data_image0
_chemical_formula_structural       C16H20C16H20C16H20C3H2CH2NHC3H2CH2NHC3H2CH2NHC3H2CH2NHC3H2CH2NHC3H2CH2NHC3NC3NC5NC5NC36H26C4H4C3NC3NC5NC5NC36H26C4H4C3NC3NC5NC5NC36H26C4H4C3NC2NHOHNHC3NC2NHOHNHC3NC2NHOHNHC3NC2NHOHNHC3NC2NHOHNHC3NC2NHOHNH
_chemical_formula_sum              "C270 H198 N36 O6"
_cell_length_a       66.3111
_cell_length_b       66.3111
_cell_length_c       15.0057
_cell_angle_alpha    89.958
_cell_angle_beta     90.042
_cell_angle_gamma    120

_space_group_name_H-M_alt    "P 1"
_space_group_IT_number       1

loop_
  _space_group_symop_operation_xyz
  'x, y, z'

loop_
  _atom_site_type_symbol
  _atom_site_label
  _atom_site_symmetry_multiplicity
  _atom_site_fract_x
  _atom_site_fract_y
  _atom_site_fract_z
  _atom_site_occupancy
  C   C1        1.0  0.10013  0.53718  0.24202  1.0000
  C   C2        1.0  0.11859  0.53250  0.23778  1.0000
  C   C3        1.0  0.18790  0.53898  0.24208  1.0000
  C   C4        1.0  0.16762  0.54070  0.24376  1.0000
  C   C5        1.0  0.09930  0.65763  0.27223  1.0000
  C   C6        1.0  0.11495  0.68166  0.28093  1.0000
  C   C7        1.0  0.13548  0.73339  0.31142  1.0000
  C   C8        1.0  0.15145  0.75736  0.31921  1.0000
  C   C9        1.0  0.94127  0.58843  0.23891  1.0000
  C   C10       1.0  0.95958  0.58354  0.24272  1.0000
  C   C11       1.0  0.89251  0.58096  0.24695  1.0000
  C   C12       1.0  0.87250  0.58317  0.24559  1.0000
  C   C13       1.0  0.96033  0.46343  0.27098  1.0000
  C   C14       1.0  0.94446  0.43944  0.27924  1.0000
  C   C15       1.0  0.90668  0.36365  0.31528  1.0000
  C   C16       1.0  0.92305  0.38754  0.30795  1.0000
  H   H1        1.0  0.90645  0.35254  0.26749  1.0000
  H   H2        1.0  0.93451  0.39295  0.25575  1.0000
  H   H3        1.0  0.93582  0.43041  0.22335  1.0000
  H   H4        1.0  0.96313  0.47112  0.20957  1.0000
  H   H5        1.0  0.96761  0.58323  0.18486  1.0000
  H   H6        1.0  0.93663  0.59179  0.17801  1.0000
  H   H7        1.0  0.09640  0.65010  0.21053  1.0000
  H   H8        1.0  0.12336  0.69087  0.22504  1.0000
  H   H9        1.0  0.15127  0.76844  0.27216  1.0000
  H   H10       1.0  0.12387  0.72787  0.25967  1.0000
  H   H11       1.0  0.16600  0.55117  0.19759  1.0000
  H   H12       1.0  0.20018  0.54799  0.19433  1.0000
  H   H13       1.0  0.12309  0.52904  0.17683  1.0000
  H   H14       1.0  0.09189  0.53725  0.18440  1.0000
  H   H15       1.0  0.89373  0.57018  0.20122  1.0000
  H   H16       1.0  0.85999  0.57414  0.19860  1.0000
  H   H17       1.0  0.18222  0.80117  0.34643  1.0000
  H   H18       1.0  0.22561  0.53611  0.25649  1.0000
  H   H19       1.0  0.83540  0.58707  0.26047  1.0000
  H   H20       1.0  0.87524  0.32001  0.34175  1.0000
  C   C17       1.0  0.55521  0.65786  0.24260  1.0000
  C   C18       1.0  0.55989  0.68099  0.23834  1.0000
  C   C19       1.0  0.55341  0.74382  0.24251  1.0000
  C   C20       1.0  0.55166  0.72181  0.24430  1.0000
  C   C21       1.0  0.43471  0.53651  0.27291  1.0000
  C   C22       1.0  0.41069  0.52816  0.28163  1.0000
  C   C23       1.0  0.35896  0.49697  0.31234  1.0000
  C   C24       1.0  0.33499  0.48899  0.32015  1.0000
  C   C25       1.0  0.50391  0.44774  0.23942  1.0000
  C   C26       1.0  0.50881  0.47095  0.24326  1.0000
  C   C27       1.0  0.51135  0.40643  0.24740  1.0000
  C   C28       1.0  0.50916  0.38422  0.24611  1.0000
  C   C29       1.0  0.62895  0.59186  0.27180  1.0000
  C   C30       1.0  0.65294  0.59995  0.28018  1.0000
  C   C31       1.0  0.72871  0.63788  0.31679  1.0000
  C   C32       1.0  0.70483  0.63039  0.30938  1.0000
  H   H21       1.0  0.73985  0.64884  0.26919  1.0000
  H   H22       1.0  0.69944  0.63652  0.25732  1.0000
  H   H23       1.0  0.66199  0.60042  0.22430  1.0000
  H   H24       1.0  0.62130  0.58705  0.21033  1.0000
  H   H25       1.0  0.50912  0.47930  0.18542  1.0000
  H   H26       1.0  0.50054  0.43976  0.17852  1.0000
  H   H27       1.0  0.44224  0.54113  0.21118  1.0000
  H   H28       1.0  0.40146  0.52733  0.22572  1.0000
  H   H29       1.0  0.32390  0.47770  0.27320  1.0000
  H   H30       1.0  0.36447  0.49085  0.26070  1.0000
  H   H31       1.0  0.54122  0.70974  0.19803  1.0000
  H   H32       1.0  0.54439  0.74711  0.19477  1.0000
  H   H33       1.0  0.56337  0.68897  0.17739  1.0000
  H   H34       1.0  0.55514  0.64956  0.18498  1.0000
  H   H35       1.0  0.52216  0.41846  0.20174  1.0000
  H   H36       1.0  0.51820  0.38076  0.19917  1.0000
  H   H37       1.0  0.29119  0.47596  0.34736  1.0000
  H   H38       1.0  0.55627  0.78440  0.25695  1.0000
  H   H39       1.0  0.50528  0.34322  0.26106  1.0000
  H   H40       1.0  0.77233  0.65002  0.34336  1.0000
  C   C33       1.0  0.43450  0.99221  0.24310  1.0000
  C   C34       1.0  0.41137  0.97374  0.23880  1.0000
  C   C35       1.0  0.34857  0.90442  0.24303  1.0000
  C   C36       1.0  0.37057  0.92470  0.24482  1.0000
  C   C37       1.0  0.55581  0.99307  0.27358  1.0000
  C   C38       1.0  0.56417  0.97740  0.28227  1.0000
  C   C39       1.0  0.59536  0.95686  0.31291  1.0000
  C   C40       1.0  0.60335  0.94087  0.32069  1.0000
  C   C41       1.0  0.64455  0.15111  0.24017  1.0000
  C   C42       1.0  0.62135  0.13280  0.24400  1.0000
  C   C43       1.0  0.68583  0.19987  0.24850  1.0000
  C   C44       1.0  0.70804  0.21988  0.24717  1.0000
  C   C45       1.0  0.50048  0.13198  0.27233  1.0000
  C   C46       1.0  0.49237  0.14786  0.28071  1.0000
  C   C47       1.0  0.45443  0.18568  0.31733  1.0000
  C   C48       1.0  0.46192  0.16929  0.30992  1.0000
  H   H41       1.0  0.44348  0.18587  0.26974  1.0000
  H   H42       1.0  0.45580  0.15780  0.25784  1.0000
  H   H43       1.0  0.49191  0.15647  0.22484  1.0000
  H   H44       1.0  0.50528  0.12915  0.21086  1.0000
  H   H45       1.0  0.61298  0.12481  0.18612  1.0000
  H   H46       1.0  0.65251  0.15579  0.17924  1.0000
  H   H47       1.0  0.55119  0.99600  0.21186  1.0000
  H   H48       1.0  0.56499  0.96902  0.22635  1.0000
  H   H49       1.0  0.61464  0.94108  0.27374  1.0000
  H   H50       1.0  0.60148  0.96850  0.26128  1.0000
  H   H51       1.0  0.38267  0.92631  0.19876  1.0000
  H   H52       1.0  0.34531  0.89212  0.19539  1.0000
  H   H53       1.0  0.40341  0.96923  0.17781  1.0000
  H   H54       1.0  0.44282  0.00044  0.18549  1.0000
  H   H55       1.0  0.67377  0.19871  0.20306  1.0000
  H   H56       1.0  0.71148  0.23245  0.20047  1.0000
  H   H57       1.0  0.61639  0.91009  0.34787  1.0000
  H   H58       1.0  0.30798  0.86672  0.25729  1.0000
  H   H59       1.0  0.74905  0.25697  0.26208  1.0000
  H   H60       1.0  0.44229  0.21715  0.34394  1.0000
  C   C49       1.0  0.23146  0.50140  0.32552  1.0000
  C   C50       1.0  0.27091  0.51136  0.28111  1.0000
  C   C51       1.0  0.24936  0.50953  0.26102  1.0000
  H   H61       1.0  0.24706  0.51500  0.20008  1.0000
  H   H62       1.0  0.28387  0.51807  0.23431  1.0000
  C   C52       1.0  0.20521  0.48998  0.00960  1.0000
  H   H63       1.0  0.19045  0.48180  0.05511  1.0000
  H   H64       1.0  0.22116  0.49806  0.04936  1.0000
  N   N1        1.0  0.21067  0.50196  0.30988  1.0000
  H   H65       1.0  0.20337  0.49383  0.25059  1.0000
  C   C53       1.0  0.59097  0.82493  0.32606  1.0000
  C   C54       1.0  0.58102  0.85445  0.28159  1.0000
  C   C55       1.0  0.58284  0.83472  0.26154  1.0000
  H   H66       1.0  0.57738  0.82697  0.20059  1.0000
  H   H67       1.0  0.57430  0.86069  0.23479  1.0000
  C   C56       1.0  0.60233  0.81010  0.01016  1.0000
  H   H68       1.0  0.61049  0.80349  0.05572  1.0000
  H   H69       1.0  0.59425  0.81796  0.04989  1.0000
  N   N2        1.0  0.59041  0.80359  0.31042  1.0000
  H   H70       1.0  0.59855  0.80444  0.25113  1.0000
  C   C57       1.0  0.26740  0.86093  0.32554  1.0000
  C   C58       1.0  0.23791  0.82149  0.28086  1.0000
  C   C59       1.0  0.25765  0.84304  0.26096  1.0000
  H   H71       1.0  0.26546  0.84535  0.20015  1.0000
  H   H72       1.0  0.23171  0.80854  0.23404  1.0000
  C   C60       1.0  0.28205  0.88712  0.00942  1.0000
  H   H73       1.0  0.28861  0.90185  0.05509  1.0000
  H   H74       1.0  0.27424  0.87114  0.04904  1.0000
  N   N3        1.0  0.28877  0.88170  0.31012  1.0000
  H   H75       1.0  0.28799  0.88901  0.25075  1.0000
  C   C61       1.0  0.83072  0.62270  0.32589  1.0000
  C   C62       1.0  0.79156  0.61356  0.28045  1.0000
  C   C63       1.0  0.81287  0.61478  0.26115  1.0000
  H   H76       1.0  0.81503  0.60902  0.20066  1.0000
  H   H77       1.0  0.77862  0.60696  0.23353  1.0000
  C   C64       1.0  0.85673  0.63436  0.00974  1.0000
  H   H78       1.0  0.87144  0.64234  0.05559  1.0000
  H   H79       1.0  0.84073  0.62648  0.04915  1.0000
  N   N4        1.0  0.85122  0.62154  0.31114  1.0000
  H   H80       1.0  0.85860  0.62935  0.25146  1.0000
  C   C65       1.0  0.46965  0.30288  0.32648  1.0000
  C   C66       1.0  0.47879  0.27287  0.28107  1.0000
  C   C67       1.0  0.47758  0.29298  0.26176  1.0000
  H   H81       1.0  0.48334  0.30091  0.20125  1.0000
  H   H82       1.0  0.48536  0.26653  0.23414  1.0000
  C   C68       1.0  0.45797  0.31723  0.01026  1.0000
  H   H83       1.0  0.44999  0.32395  0.05611  1.0000
  H   H84       1.0  0.46584  0.30909  0.04967  1.0000
  N   N5        1.0  0.47081  0.32454  0.31169  1.0000
  H   H85       1.0  0.46301  0.32414  0.25201  1.0000
  C   C69       1.0  0.78945  0.26157  0.32609  1.0000
  C   C70       1.0  0.81941  0.30070  0.28009  1.0000
  C   C71       1.0  0.79927  0.27939  0.26120  1.0000
  H   H86       1.0  0.79125  0.27721  0.20087  1.0000
  H   H87       1.0  0.82568  0.31361  0.23309  1.0000
  C   C72       1.0  0.77545  0.23571  0.00974  1.0000
  H   H88       1.0  0.76880  0.22105  0.05582  1.0000
  H   H89       1.0  0.78355  0.25176  0.04888  1.0000
  N   N6        1.0  0.76776  0.24108  0.31172  1.0000
  H   H90       1.0  0.76805  0.23369  0.25191  1.0000
  C   C73       1.0  0.02126  0.49231  0.33289  1.0000
  C   C74       1.0  0.04524  0.50523  0.32926  1.0000
  C   C75       1.0  0.05181  0.52881  0.32948  1.0000
  N   N7        1.0  0.03163  0.52929  0.33254  1.0000
  C   C76       1.0  0.01262  0.50769  0.33508  1.0000
  C   C77       1.0  0.98862  0.50094  0.33881  1.0000
  C   C78       1.0  0.97980  0.51651  0.33679  1.0000
  N   N8        1.0  0.99207  0.54000  0.33300  1.0000
  C   C79       1.0  0.97804  0.54934  0.33168  1.0000
  C   C80       1.0  0.95525  0.53058  0.33410  1.0000
  C   C81       1.0  0.95634  0.51036  0.33821  1.0000
  C   C82       1.0  0.98474  0.57328  0.32876  1.0000
  C   C83       1.0  0.00811  0.59206  0.32995  1.0000
  N   N9        1.0  0.02829  0.59158  0.33288  1.0000
  C   C84       1.0  0.04729  0.61317  0.33568  1.0000
  C   C85       1.0  0.03865  0.62856  0.33372  1.0000
  C   C86       1.0  0.01467  0.61564  0.32996  1.0000
  C   C87       1.0  0.07129  0.61992  0.33946  1.0000
  C   C88       1.0  0.08012  0.60436  0.33713  1.0000
  N   N10       1.0  0.06785  0.58087  0.33319  1.0000
  C   C89       1.0  0.08188  0.57154  0.33154  1.0000
  C   C90       1.0  0.10467  0.59031  0.33379  1.0000
  C   C91       1.0  0.10357  0.61053  0.33828  1.0000
  C   C92       1.0  0.07518  0.54759  0.32841  1.0000
  C   C93       1.0  0.09331  0.54205  0.32457  1.0000
  C   C94       1.0  0.13077  0.53264  0.31562  1.0000
  C   C95       1.0  0.12350  0.53721  0.39824  1.0000
  C   C96       1.0  0.10500  0.54182  0.40282  1.0000
  C   C97       1.0  0.15052  0.52944  0.31071  1.0000
  C   C98       1.0  0.15429  0.51599  0.37493  1.0000
  C   C99       1.0  0.17466  0.51439  0.37367  1.0000
  C   C100      1.0  0.19181  0.52600  0.30755  1.0000
  C   C101      1.0  0.08769  0.64410  0.34776  1.0000
  C   C102      1.0  0.11936  0.69282  0.36499  1.0000
  C   C103      1.0  0.10758  0.67902  0.44023  1.0000
  C   C104      1.0  0.09198  0.65499  0.43189  1.0000
  C   C105      1.0  0.13524  0.71723  0.37381  1.0000
  C   C106      1.0  0.16774  0.76600  0.38983  1.0000
  C   C107      1.0  0.16724  0.75000  0.45330  1.0000
  C   C108      1.0  0.15136  0.72604  0.44519  1.0000
  C   C109      1.0  0.96662  0.57884  0.32522  1.0000
  C   C110      1.0  0.95527  0.57944  0.40383  1.0000
  C   C111      1.0  0.93692  0.58427  0.39969  1.0000
  C   C112      1.0  0.92946  0.58871  0.31715  1.0000
  C   C113      1.0  0.90993  0.59228  0.31279  1.0000
  C   C114      1.0  0.86919  0.59668  0.31038  1.0000
  C   C115      1.0  0.88665  0.60830  0.37549  1.0000
  C   C116      1.0  0.90675  0.60622  0.37637  1.0000
  C   C117      1.0  0.97220  0.47675  0.34658  1.0000
  C   C118      1.0  0.96799  0.46566  0.43033  1.0000
  C   C119      1.0  0.94010  0.42809  0.36293  1.0000
  C   C120      1.0  0.95218  0.44167  0.43823  1.0000
  C   C121      1.0  0.92387  0.40374  0.37138  1.0000
  C   C122      1.0  0.90793  0.39506  0.44329  1.0000
  C   C123      1.0  0.89166  0.37118  0.45096  1.0000
  C   C124      1.0  0.89058  0.35515  0.38645  1.0000
  H   H91       1.0  0.88030  0.36563  0.50348  1.0000
  H   H92       1.0  0.90758  0.40614  0.48991  1.0000
  H   H93       1.0  0.94990  0.43413  0.49969  1.0000
  H   H94       1.0  0.97654  0.47493  0.48598  1.0000
  H   H95       1.0  0.01191  0.47452  0.33351  1.0000
  H   H96       1.0  0.05592  0.49825  0.32796  1.0000
  H   H97       1.0  0.03089  0.54337  0.33440  1.0000
  H   H98       1.0  0.02903  0.57749  0.33457  1.0000
  H   H99       1.0  0.94218  0.49396  0.34091  1.0000
  H   H100      1.0  0.94017  0.53122  0.33401  1.0000
  H   H101      1.0  0.96000  0.57594  0.46433  1.0000
  H   H102      1.0  0.92853  0.58373  0.45762  1.0000
  H   H103      1.0  0.00399  0.62263  0.32878  1.0000
  H   H104      1.0  0.04801  0.64635  0.33460  1.0000
  H   H105      1.0  0.11975  0.58968  0.33346  1.0000
  H   H106      1.0  0.11773  0.62692  0.34089  1.0000
  H   H107      1.0  0.08358  0.64555  0.48747  1.0000
  H   H108      1.0  0.10989  0.68641  0.50196  1.0000
  H   H109      1.0  0.15211  0.71500  0.49105  1.0000
  H   H110      1.0  0.17874  0.75566  0.50540  1.0000
  H   H111      1.0  0.10046  0.54549  0.46333  1.0000
  H   H112      1.0  0.13217  0.53809  0.45586  1.0000
  H   H113      1.0  0.17712  0.50505  0.42254  1.0000
  H   H114      1.0  0.14232  0.50742  0.42413  1.0000
  H   H115      1.0  0.91896  0.61485  0.42477  1.0000
  H   H116      1.0  0.88462  0.61803  0.42383  1.0000
  C   C125      1.0  0.18546  0.79116  0.39668  1.0000
  C   C126      1.0  0.21415  0.52592  0.31138  1.0000
  C   C127      1.0  0.87245  0.33012  0.39291  1.0000
  C   C128      1.0  0.84717  0.59738  0.31447  1.0000
  H   H117      1.0  0.18405  0.79761  0.46207  1.0000
  H   H118      1.0  0.22282  0.53456  0.37352  1.0000
  H   H119      1.0  0.83860  0.58919  0.37732  1.0000
  H   H120      1.0  0.87387  0.32340  0.45775  1.0000
  C   C129      1.0  0.60005  0.62382  0.33404  1.0000
  C   C130      1.0  0.58712  0.63488  0.33030  1.0000
  C   C131      1.0  0.56355  0.61787  0.33028  1.0000
  N   N11       1.0  0.56307  0.59720  0.33318  1.0000
  C   C132      1.0  0.58467  0.59979  0.33591  1.0000
  C   C133      1.0  0.59142  0.58254  0.33953  1.0000
  C   C134      1.0  0.57584  0.55814  0.33739  1.0000
  N   N12       1.0  0.55235  0.54693  0.33363  1.0000
  C   C135      1.0  0.54302  0.52357  0.33223  1.0000
  C   C136      1.0  0.56177  0.51953  0.33455  1.0000
  C   C137      1.0  0.58200  0.54085  0.33872  1.0000
  C   C138      1.0  0.51907  0.50632  0.32934  1.0000
  C   C139      1.0  0.50029  0.51091  0.33055  1.0000
  N   N13       1.0  0.50077  0.53158  0.33347  1.0000
  C   C140      1.0  0.47918  0.52898  0.33640  1.0000
  C   C141      1.0  0.46379  0.50496  0.33457  1.0000
  C   C142      1.0  0.47671  0.49390  0.33064  1.0000
  C   C143      1.0  0.47243  0.54623  0.34015  1.0000
  C   C144      1.0  0.48800  0.57063  0.33773  1.0000
  N   N14       1.0  0.51149  0.58185  0.33385  1.0000
  C   C145      1.0  0.52082  0.60521  0.33208  1.0000
  C   C146      1.0  0.50205  0.60923  0.33425  1.0000
  C   C147      1.0  0.48183  0.58792  0.33869  1.0000
  C   C148      1.0  0.54476  0.62245  0.32899  1.0000
  C   C149      1.0  0.55031  0.64612  0.32514  1.0000
  C   C150      1.0  0.55973  0.69301  0.31615  1.0000
  C   C151      1.0  0.55512  0.68113  0.39876  1.0000
  C   C152      1.0  0.55053  0.65803  0.40338  1.0000
  C   C153      1.0  0.56294  0.71596  0.31121  1.0000
  C   C154      1.0  0.57637  0.73315  0.37545  1.0000
  C   C155      1.0  0.57797  0.75512  0.37418  1.0000
  C   C156      1.0  0.56638  0.76069  0.30802  1.0000
  C   C157      1.0  0.44826  0.53846  0.34846  1.0000
  C   C158      1.0  0.39954  0.52143  0.36574  1.0000
  C   C159      1.0  0.41336  0.52348  0.44100  1.0000
  C   C160      1.0  0.43738  0.53190  0.43264  1.0000
  C   C161      1.0  0.37513  0.51292  0.37457  1.0000
  C   C162      1.0  0.32637  0.49667  0.39062  1.0000
  C   C163      1.0  0.34238  0.51219  0.45395  1.0000
  C   C164      1.0  0.36635  0.52028  0.44579  1.0000
  C   C165      1.0  0.51351  0.48265  0.32578  1.0000
  C   C166      1.0  0.51291  0.47066  0.40437  1.0000
  C   C167      1.0  0.50809  0.44748  0.40019  1.0000
  C   C168      1.0  0.50363  0.43561  0.31765  1.0000
  C   C169      1.0  0.50005  0.41252  0.31326  1.0000
  C   C170      1.0  0.49565  0.36737  0.31092  1.0000
  C   C171      1.0  0.48402  0.37319  0.37599  1.0000
  C   C172      1.0  0.48611  0.39537  0.37688  1.0000
  C   C173      1.0  0.61560  0.59030  0.34740  1.0000
  C   C174      1.0  0.62665  0.59706  0.43126  1.0000
  C   C175      1.0  0.66425  0.60682  0.36398  1.0000
  C   C176      1.0  0.65064  0.60521  0.43927  1.0000
  C   C177      1.0  0.68859  0.61491  0.37253  1.0000
  C   C178      1.0  0.69723  0.60752  0.44427  1.0000
  C   C179      1.0  0.72110  0.61511  0.45202  1.0000
  C   C180      1.0  0.73717  0.63016  0.38777  1.0000
  H   H121      1.0  0.72662  0.60921  0.50440  1.0000
  H   H122      1.0  0.68612  0.59602  0.49069  1.0000
  H   H123      1.0  0.65814  0.61038  0.50081  1.0000
  H   H124      1.0  0.61735  0.59626  0.48690  1.0000
  H   H125      1.0  0.61784  0.63226  0.33495  1.0000
  H   H126      1.0  0.59411  0.65255  0.32933  1.0000
  H   H127      1.0  0.54898  0.58238  0.33443  1.0000
  H   H128      1.0  0.51486  0.54640  0.33508  1.0000
  H   H129      1.0  0.59839  0.54307  0.34141  1.0000
  H   H130      1.0  0.56113  0.50381  0.33447  1.0000
  H   H131      1.0  0.51641  0.47887  0.46488  1.0000
  H   H132      1.0  0.50861  0.43961  0.45813  1.0000
  H   H133      1.0  0.46972  0.47623  0.32970  1.0000
  H   H134      1.0  0.44600  0.49652  0.33558  1.0000
  H   H135      1.0  0.50268  0.62495  0.33374  1.0000
  H   H136      1.0  0.46543  0.58568  0.34127  1.0000
  H   H137      1.0  0.44683  0.53294  0.48823  1.0000
  H   H138      1.0  0.40598  0.51842  0.50276  1.0000
  H   H139      1.0  0.37739  0.53207  0.49157  1.0000
  H   H140      1.0  0.33674  0.51807  0.50593  1.0000
  H   H141      1.0  0.54684  0.64979  0.46389  1.0000
  H   H142      1.0  0.55425  0.68890  0.45639  1.0000
  H   H143      1.0  0.58729  0.76689  0.42311  1.0000
  H   H144      1.0  0.58493  0.72974  0.42471  1.0000
  H   H145      1.0  0.47748  0.39895  0.42527  1.0000
  H   H146      1.0  0.47430  0.36143  0.42435  1.0000
  C   C181      1.0  0.30122  0.48925  0.39748  1.0000
  C   C182      1.0  0.56645  0.78311  0.31186  1.0000
  C   C183      1.0  0.76219  0.63703  0.39429  1.0000
  C   C184      1.0  0.49497  0.34466  0.31504  1.0000
  H   H147      1.0  0.29477  0.48141  0.46295  1.0000
  H   H148      1.0  0.55780  0.78311  0.37398  1.0000
  H   H149      1.0  0.50316  0.34427  0.37790  1.0000
  H   H150      1.0  0.76889  0.64507  0.45927  1.0000
  C   C185      1.0  0.46851  0.07108  0.33439  1.0000
  C   C186      1.0  0.45745  0.04710  0.33074  1.0000
  C   C187      1.0  0.47446  0.04053  0.33078  1.0000
  N   N15       1.0  0.49512  0.06072  0.33377  1.0000
  C   C188      1.0  0.49253  0.07972  0.33640  1.0000
  C   C189      1.0  0.50978  0.10372  0.34004  1.0000
  C   C190      1.0  0.53418  0.11255  0.33799  1.0000
  N   N16       1.0  0.54539  0.10027  0.33424  1.0000
  C   C191      1.0  0.56876  0.11430  0.33290  1.0000
  C   C192      1.0  0.57279  0.13709  0.33519  1.0000
  C   C193      1.0  0.55148  0.13600  0.33943  1.0000
  C   C194      1.0  0.58600  0.10759  0.33010  1.0000
  C   C195      1.0  0.58141  0.08423  0.33137  1.0000
  N   N17       1.0  0.56074  0.06405  0.33433  1.0000
  C   C196      1.0  0.56334  0.04504  0.33716  1.0000
  C   C197      1.0  0.58736  0.05368  0.33527  1.0000
  C   C198      1.0  0.59842  0.07766  0.33149  1.0000
  C   C199      1.0  0.54609  0.02104  0.34087  1.0000
  C   C200      1.0  0.52169  0.01222  0.33843  1.0000
  N   N18       1.0  0.51048  0.02449  0.33451  1.0000
  C   C201      1.0  0.48712  0.01046  0.33274  1.0000
  C   C202      1.0  0.48309  0.98768  0.33492  1.0000
  C   C203      1.0  0.50441  0.98876  0.33942  1.0000
  C   C204      1.0  0.46988  0.01717  0.32959  1.0000
  C   C205      1.0  0.44621  0.99904  0.32569  1.0000
  C   C206      1.0  0.39933  0.96157  0.31661  1.0000
  C   C207      1.0  0.41118  0.96884  0.39927  1.0000
  C   C208      1.0  0.43428  0.98736  0.40393  1.0000
  C   C209      1.0  0.37639  0.94182  0.31163  1.0000
  C   C210      1.0  0.35917  0.93807  0.37568  1.0000
  C   C211      1.0  0.33720  0.91770  0.37436  1.0000
  C   C212      1.0  0.33166  0.90053  0.30833  1.0000
  C   C213      1.0  0.55386  0.00464  0.34914  1.0000
  C   C214      1.0  0.57090  0.97295  0.36636  1.0000
  C   C215      1.0  0.56884  0.98468  0.44164  1.0000
  C   C216      1.0  0.56044  0.00030  0.43330  1.0000
  C   C217      1.0  0.57942  0.95705  0.37517  1.0000
  C   C218      1.0  0.59568  0.92454  0.39115  1.0000
  C   C219      1.0  0.58015  0.92500  0.45450  1.0000
  C   C220      1.0  0.57207  0.94089  0.44639  1.0000
  C   C221      1.0  0.60967  0.12571  0.32654  1.0000
  C   C222      1.0  0.62168  0.13700  0.40518  1.0000
  C   C223      1.0  0.64486  0.15537  0.40102  1.0000
  C   C224      1.0  0.65670  0.16287  0.31845  1.0000
  C   C225      1.0  0.67978  0.18239  0.31408  1.0000
  C   C226      1.0  0.72493  0.22314  0.31170  1.0000
  C   C227      1.0  0.71915  0.20562  0.37651  1.0000
  C   C228      1.0  0.69697  0.18553  0.37740  1.0000
  C   C229      1.0  0.50202  0.12015  0.34792  1.0000
  C   C230      1.0  0.49526  0.12440  0.43177  1.0000
  C   C231      1.0  0.48550  0.15227  0.36451  1.0000
  C   C232      1.0  0.48709  0.14023  0.43979  1.0000
  C   C233      1.0  0.47740  0.16851  0.37307  1.0000
  C   C234      1.0  0.48479  0.18450  0.44483  1.0000
  C   C235      1.0  0.47721  0.20079  0.45256  1.0000
  C   C236      1.0  0.46215  0.20183  0.38833  1.0000
  H   H151      1.0  0.48309  0.21218  0.50497  1.0000
  H   H152      1.0  0.49629  0.18488  0.49125  1.0000
  H   H153      1.0  0.48192  0.14254  0.50132  1.0000
  H   H154      1.0  0.49605  0.11587  0.48741  1.0000
  H   H155      1.0  0.46007  0.08044  0.33512  1.0000
  H   H156      1.0  0.43978  0.03642  0.32952  1.0000
  H   H157      1.0  0.50995  0.06146  0.33524  1.0000
  H   H158      1.0  0.54592  0.06331  0.33597  1.0000
  H   H159      1.0  0.54925  0.15016  0.34207  1.0000
  H   H160      1.0  0.58852  0.15216  0.33531  1.0000
  H   H161      1.0  0.61349  0.13225  0.46570  1.0000
  H   H162      1.0  0.65274  0.16372  0.45898  1.0000
  H   H163      1.0  0.61609  0.08834  0.33022  1.0000
  H   H164      1.0  0.59580  0.04432  0.33610  1.0000
  H   H165      1.0  0.46738  0.97259  0.33439  1.0000
  H   H166      1.0  0.50664  0.97460  0.34196  1.0000
  H   H167      1.0  0.55939  0.00867  0.48892  1.0000
  H   H168      1.0  0.57391  0.98234  0.50340  1.0000
  H   H169      1.0  0.56026  0.94011  0.49215  1.0000
  H   H170      1.0  0.57427  0.91346  0.50646  1.0000
  H   H171      1.0  0.44250  0.99191  0.46447  1.0000
  H   H172      1.0  0.40339  0.96019  0.45689  1.0000
  H   H173      1.0  0.32539  0.91525  0.42310  1.0000
  H   H174      1.0  0.36255  0.95004  0.42482  1.0000
  H   H175      1.0  0.69342  0.17327  0.42561  1.0000
  H   H176      1.0  0.73095  0.20760  0.42466  1.0000
  C   C237      1.0  0.60310  0.90681  0.39798  1.0000
  C   C238      1.0  0.30923  0.87820  0.31206  1.0000
  C   C239      1.0  0.45527  0.21997  0.39486  1.0000
  C   C240      1.0  0.74766  0.24515  0.31577  1.0000
  H   H177      1.0  0.61093  0.90818  0.46345  1.0000
  H   H178      1.0  0.30916  0.86954  0.37431  1.0000
  H   H179      1.0  0.74813  0.25365  0.37886  1.0000
  H   H180      1.0  0.44724  0.21862  0.45985  1.0000
  C   C241      1.0  0.23527  0.49443  0.40989  1.0000
  C   C242      1.0  0.25707  0.49627  0.43020  1.0000
  C   C243      1.0  0.27507  0.50495  0.36576  1.0000
  N   N19       1.0  0.26020  0.49008  0.51329  1.0000
  C   C244      1.0  0.24349  0.48213  0.57710  1.0000
  C   C245      1.0  0.22202  0.48063  0.55768  1.0000
  N   N20       1.0  0.21871  0.48670  0.47474  1.0000
  H   H181      1.0  0.24666  0.47754  0.63829  1.0000
  O   O1        1.0  0.20434  0.47221  0.61853  1.0000
  H   H182      1.0  0.20393  0.50335  0.63857  1.0000
  N   N21       1.0  0.29792  0.50960  0.38358  1.0000
  H   H183      1.0  0.30446  0.52096  0.43629  1.0000
  C   C246      1.0  0.59793  0.83568  0.41043  1.0000
  C   C247      1.0  0.59609  0.85564  0.43072  1.0000
  C   C248      1.0  0.58741  0.86497  0.36626  1.0000
  N   N22       1.0  0.60227  0.86493  0.51382  1.0000
  C   C249      1.0  0.61022  0.85615  0.57764  1.0000
  C   C250      1.0  0.61172  0.83618  0.55824  1.0000
  N   N23       1.0  0.60566  0.82684  0.47530  1.0000
  H   H184      1.0  0.61478  0.86387  0.63885  1.0000
  O   O2        1.0  0.62012  0.82690  0.61913  1.0000
  H   H185      1.0  0.58896  0.79535  0.63910  1.0000
  N   N24       1.0  0.58276  0.88317  0.38406  1.0000
  H   H186      1.0  0.57139  0.87833  0.43675  1.0000
  C   C251      1.0  0.25659  0.85710  0.40977  1.0000
  C   C252      1.0  0.23660  0.83530  0.42990  1.0000
  C   C253      1.0  0.22732  0.81732  0.36540  1.0000
  N   N25       1.0  0.22726  0.83215  0.51289  1.0000
  C   C254      1.0  0.23599  0.84885  0.57674  1.0000
  C   C255      1.0  0.25598  0.87032  0.55752  1.0000
  N   N26       1.0  0.26538  0.87364  0.47468  1.0000
  H   H187      1.0  0.22822  0.84566  0.63787  1.0000
  O   O3        1.0  0.26522  0.88797  0.61847  1.0000
  H   H188      1.0  0.29682  0.88847  0.63832  1.0000
  N   N27       1.0  0.20911  0.79445  0.38306  1.0000
  H   H189      1.0  0.21391  0.78791  0.43586  1.0000
  C   C256      1.0  0.82710  0.63006  0.40969  1.0000
  C   C257      1.0  0.80553  0.62882  0.42923  1.0000
  C   C258      1.0  0.78758  0.62034  0.36457  1.0000
  N   N28       1.0  0.80256  0.63535  0.51186  1.0000
  C   C259      1.0  0.81921  0.64310  0.57590  1.0000
  C   C260      1.0  0.84045  0.64401  0.55725  1.0000
  N   N29       1.0  0.84360  0.63760  0.47478  1.0000
  H   H190      1.0  0.81617  0.64795  0.63673  1.0000
  O   O4        1.0  0.85806  0.65219  0.61839  1.0000
  H   H191      1.0  0.85788  0.62078  0.63899  1.0000
  N   N30       1.0  0.76490  0.61629  0.38174  1.0000
  H   H192      1.0  0.75813  0.60509  0.43487  1.0000
  C   C261      1.0  0.46228  0.29187  0.41027  1.0000
  C   C262      1.0  0.46349  0.27152  0.42979  1.0000
  C   C263      1.0  0.47196  0.26206  0.36514  1.0000
  N   N31       1.0  0.45695  0.26199  0.51241  1.0000
  C   C264      1.0  0.44920  0.27088  0.57643  1.0000
  C   C265      1.0  0.44831  0.29122  0.55779  1.0000
  N   N32       1.0  0.45474  0.30082  0.47533  1.0000
  H   H193      1.0  0.44433  0.26296  0.63725  1.0000
  O   O5        1.0  0.44013  0.30063  0.61892  1.0000
  H   H194      1.0  0.47155  0.33187  0.63951  1.0000
  N   N33       1.0  0.47601  0.24343  0.38232  1.0000
  H   H195      1.0  0.48721  0.24785  0.43547  1.0000
  C   C266      1.0  0.80058  0.26522  0.40963  1.0000
  C   C267      1.0  0.82096  0.28679  0.42879  1.0000
  C   C268      1.0  0.83033  0.30471  0.36396  1.0000
  N   N34       1.0  0.83059  0.28980  0.51122  1.0000
  C   C269      1.0  0.82179  0.27318  0.57540  1.0000
  C   C270      1.0  0.80142  0.25194  0.55712  1.0000
  N   N35       1.0  0.79172  0.24876  0.47486  1.0000
  H   H196      1.0  0.82977  0.27625  0.63609  1.0000
  O   O6        1.0  0.79207  0.23438  0.61849  1.0000
  H   H197      1.0  0.76078  0.23445  0.63894  1.0000
  N   N36       1.0  0.84898  0.32740  0.38082  1.0000
  H   H198      1.0  0.84462  0.33418  0.43407  1.0000
