data_image0
_chemical_formula_structural       C3H2C4HNOC3H2C4HNO2C5H3NO2C5H3NO2C4HNO2C3H2CNO2C3H2C4HNO2C5H3NO2C2HC4HNO2CNC2NCNCNCNCNCNCNCNCNCNCNCNCNCNCOC5H3NO2C3H2C4HNO2C3H2C4HNO2C2HNO2C3H2NO2C5H3NO2C3H2C4HNO2C2HNO3C3H2C4HNO2C5H3NO2C3H2C3H2C4HNO2C3H2C4HNO2C3HC3H2C4HNO2C5H3NO2C5H3NO2C5H3NO2C5H3NO2C3H2NO2C3H2C4HNO2C3H2C4HNO2C3H2C4HNO2C3H2C3H2C4HNO2C3H2C4HNO2CN2CNCNCNCNCNCNCNCNCNCNCNCNCNCNCNCNCNCNCNCNCNCNCNCNCNCNCNCNCNCNCNC4H3NOC5H3NO2C3H2C4HNO2C3H2C5H3NO2C5H3NO2C2HC5H3NO2C3H2C4HNO2C3H2C4HNO2C3H2C4HNO2C3H2C4HNO2C3H2C4HNO2C5H3NO2C5H3NO2C5H3NO2C3H2C5H3NO2C5H3NO2
_chemical_formula_sum              "C336 H144 N96 O96"
_cell_length_a       62.8093
_cell_length_b       62.8094
_cell_length_c       14.8508
_cell_angle_alpha    90
_cell_angle_beta     90
_cell_angle_gamma    120

_space_group_name_H-M_alt    "P 1"
_space_group_IT_number       1

loop_
  _space_group_symop_operation_xyz
  'x, y, z'

loop_
  _atom_site_type_symbol
  _atom_site_label
  _atom_site_symmetry_multiplicity
  _atom_site_fract_x
  _atom_site_fract_y
  _atom_site_fract_z
  _atom_site_occupancy
  C   C1        1.0  0.00758  0.09646  0.34309  1.0000
  C   C2        1.0  0.02891  0.09536  0.32070  1.0000
  C   C3        1.0  0.02893  0.07284  0.32151  1.0000
  H   H1        1.0  0.04478  0.11113  0.30431  1.0000
  H   H2        1.0  0.04488  0.07317  0.30469  1.0000
  C   C4        1.0  0.00759  0.11944  0.34311  1.0000
  C   C5        1.0  0.00759  0.16540  0.34315  1.0000
  C   C6        1.0  0.00793  0.15391  0.26191  1.0000
  C   C7        1.0  0.00794  0.13127  0.26084  1.0000
  H   H3        1.0  0.00808  0.16206  0.20202  1.0000
  N   N1        1.0  0.00781  0.11992  0.17821  1.0000
  O   O1        1.0  0.02650  0.13344  0.13174  1.0000
  C   C8        1.0  0.09892  0.00497  0.34309  1.0000
  C   C9        1.0  0.07650  0.98364  0.32070  1.0000
  C   C10       1.0  0.05396  0.98362  0.32150  1.0000
  H   H4        1.0  0.07639  0.96777  0.30431  1.0000
  H   H5        1.0  0.03833  0.96768  0.30469  1.0000
  C   C11       1.0  0.12190  0.00496  0.34311  1.0000
  C   C12       1.0  0.16785  0.00496  0.34315  1.0000
  C   C13       1.0  0.15603  0.00462  0.26191  1.0000
  C   C14       1.0  0.13337  0.00461  0.26084  1.0000
  H   H6        1.0  0.16403  0.00448  0.20201  1.0000
  N   N2        1.0  0.12216  0.00476  0.17821  1.0000
  O   O2        1.0  0.13579  0.02361  0.13261  1.0000
  O   O3        1.0  0.11699  0.98607  0.13170  1.0000
  C   C15       1.0  0.14586  0.38213  0.34152  1.0000
  C   C16       1.0  0.12112  0.37405  0.31713  1.0000
  C   C17       1.0  0.10307  0.34890  0.31644  1.0000
  C   C18       1.0  0.08073  0.29234  0.25958  1.0000
  C   C19       1.0  0.06128  0.26754  0.26117  1.0000
  H   H7        1.0  0.05402  0.25872  0.20148  1.0000
  H   H8        1.0  0.11588  0.38644  0.29862  1.0000
  H   H9        1.0  0.08546  0.34395  0.29846  1.0000
  N   N3        1.0  0.09057  0.30457  0.17679  1.0000
  O   O4        1.0  0.07454  0.30567  0.12960  1.0000
  O   O5        1.0  0.09969  0.29411  0.13197  1.0000
  C   C20       1.0  0.24631  0.86670  0.34153  1.0000
  C   C21       1.0  0.26297  0.89144  0.31714  1.0000
  C   C22       1.0  0.25586  0.90949  0.31646  1.0000
  C   C23       1.0  0.22165  0.93183  0.25960  1.0000
  C   C24       1.0  0.21631  0.95128  0.26118  1.0000
  H   H10       1.0  0.21474  0.95854  0.20149  1.0000
  H   H11       1.0  0.28060  0.89668  0.29864  1.0000
  H   H12       1.0  0.26853  0.92710  0.29848  1.0000
  N   N4        1.0  0.22401  0.92197  0.17681  1.0000
  O   O6        1.0  0.24114  0.93799  0.12958  1.0000
  O   O7        1.0  0.20443  0.91285  0.13203  1.0000
  C   C25       1.0  0.30763  0.08803  0.34494  1.0000
  C   C26       1.0  0.25754  0.04870  0.34371  1.0000
  C   C27       1.0  0.27055  0.05836  0.26262  1.0000
  C   C28       1.0  0.29530  0.07793  0.26212  1.0000
  H   H13       1.0  0.26220  0.05064  0.20268  1.0000
  N   N5        1.0  0.30829  0.08687  0.18002  1.0000
  O   O8        1.0  0.30988  0.07036  0.13791  1.0000
  O   O9        1.0  0.29823  0.09538  0.12984  1.0000
  C   C29       1.0  0.28446  0.47051  0.35020  1.0000
  C   C30       1.0  0.26875  0.44598  0.32229  1.0000
  C   C31       1.0  0.24295  0.43561  0.32388  1.0000
  H   H14       1.0  0.27602  0.43551  0.30036  1.0000
  H   H15       1.0  0.23219  0.41796  0.30162  1.0000
  C   C32       1.0  0.31057  0.48161  0.34816  1.0000
  N   N6        1.0  0.31007  0.48446  0.18336  1.0000
  O   O10       1.0  0.31538  0.50407  0.14286  1.0000
  O   O11       1.0  0.31409  0.47105  0.13147  1.0000
  C   C33       1.0  0.19610  0.72810  0.35019  1.0000
  C   C34       1.0  0.18727  0.74380  0.32229  1.0000
  C   C35       1.0  0.20270  0.76961  0.32388  1.0000
  H   H16       1.0  0.16953  0.73653  0.30038  1.0000
  H   H17       1.0  0.19581  0.78037  0.30163  1.0000
  C   C36       1.0  0.18110  0.70199  0.34816  1.0000
  C   C37       1.0  0.15387  0.64965  0.34542  1.0000
  C   C38       1.0  0.16212  0.66309  0.26459  1.0000
  C   C39       1.0  0.17577  0.68914  0.26492  1.0000
  H   H18       1.0  0.15808  0.65392  0.20440  1.0000
  N   N7        1.0  0.18446  0.70248  0.18337  1.0000
  O   O12       1.0  0.19877  0.69717  0.14290  1.0000
  O   O13       1.0  0.16704  0.69846  0.13144  1.0000
  C   C40       1.0  0.16750  0.46873  0.33762  1.0000
  C   C41       1.0  0.18532  0.49324  0.31467  1.0000
  C   C42       1.0  0.17965  0.51224  0.31479  1.0000
  C   C43       1.0  0.14719  0.53640  0.25758  1.0000
  C   C44       1.0  0.14219  0.55602  0.25952  1.0000
  H   H19       1.0  0.13891  0.56221  0.20023  1.0000
  H   H20       1.0  0.20281  0.49767  0.29708  1.0000
  H   H21       1.0  0.19307  0.52968  0.29815  1.0000
  N   N8        1.0  0.14812  0.52563  0.17485  1.0000
  O   O14       1.0  0.16474  0.54103  0.12431  1.0000
  O   O15       1.0  0.12796  0.51647  0.13366  1.0000
  C   C45       1.0  0.31127  0.84506  0.33761  1.0000
  C   C46       1.0  0.31797  0.82725  0.31464  1.0000
  H   H22       1.0  0.30492  0.80977  0.29703  1.0000
  C   C47       1.0  0.02102  0.55506  0.34035  1.0000
  C   C48       1.0  0.07300  0.57969  0.34336  1.0000
  C   C49       1.0  0.06041  0.57587  0.26120  1.0000
  C   C50       1.0  0.03443  0.56344  0.25858  1.0000
  H   H23       1.0  0.07009  0.58148  0.20214  1.0000
  N   N9        1.0  0.02169  0.55900  0.17568  1.0000
  O   O16       1.0  0.02705  0.57873  0.13603  1.0000
  O   O17       1.0  0.02629  0.54596  0.12397  1.0000
  C   C51       1.0  0.02970  0.00501  0.34305  1.0000
  N   N10       1.0  0.02889  0.02637  0.34305  1.0000
  C   C52       1.0  0.00755  0.02720  0.34305  1.0000
  C   C53       1.0  0.00757  0.18810  0.34318  1.0000
  N   N11       1.0  0.02915  0.21004  0.34285  1.0000
  C   C54       1.0  0.02935  0.23186  0.34304  1.0000
  N   N12       1.0  0.00754  0.23145  0.34330  1.0000
  C   C55       1.0  0.23433  0.02683  0.34349  1.0000
  N   N13       1.0  0.21249  0.02659  0.34355  1.0000
  C   C56       1.0  0.19057  0.00498  0.34318  1.0000
  N   N14       1.0  0.19094  0.98341  0.34287  1.0000
  C   C57       1.0  0.21258  0.98323  0.34306  1.0000
  N   N15       1.0  0.23398  0.00504  0.34331  1.0000
  C   C58       1.0  0.20614  0.44011  0.34801  1.0000
  N   N16       1.0  0.18874  0.41576  0.34635  1.0000
  C   C59       1.0  0.16409  0.40779  0.34243  1.0000
  N   N17       1.0  0.15731  0.42536  0.33971  1.0000
  C   C60       1.0  0.17391  0.44989  0.34017  1.0000
  N   N18       1.0  0.19793  0.45636  0.34452  1.0000
  C   C61       1.0  0.24402  0.80642  0.34798  1.0000
  N   N19       1.0  0.23706  0.82382  0.34633  1.0000
  C   C62       1.0  0.25374  0.84847  0.34243  1.0000
  N   N20       1.0  0.27809  0.85525  0.33972  1.0000
  C   C63       1.0  0.28602  0.83866  0.34016  1.0000
  N   N21       1.0  0.26847  0.81464  0.34449  1.0000
  C   C64       1.0  0.13262  0.58366  0.34280  1.0000
  N   N22       1.0  0.14800  0.60847  0.34319  1.0000
  C   C65       1.0  0.13865  0.62393  0.34383  1.0000
  N   N23       1.0  0.11391  0.61444  0.34412  1.0000
  C   C66       1.0  0.09854  0.58977  0.34385  1.0000
  N   N24       1.0  0.10797  0.57452  0.34311  1.0000
  C   C67       1.0  0.00756  0.05021  0.34307  1.0000
  O   O18       1.0  0.02622  0.13331  0.55364  1.0000
  C   C68       1.0  0.05270  0.00500  0.34306  1.0000
  C   C69       1.0  0.07534  0.02636  0.36465  1.0000
  C   C70       1.0  0.09785  0.02631  0.36545  1.0000
  C   C71       1.0  0.13370  0.00530  0.42540  1.0000
  C   C72       1.0  0.15635  0.00529  0.42437  1.0000
  H   H24       1.0  0.16449  0.00544  0.48429  1.0000
  H   H25       1.0  0.07568  0.04232  0.38140  1.0000
  H   H26       1.0  0.11363  0.04218  0.38184  1.0000
  N   N25       1.0  0.12234  0.00515  0.50800  1.0000
  O   O19       1.0  0.13585  0.02384  0.55452  1.0000
  O   O20       1.0  0.11711  0.98630  0.55360  1.0000
  C   C73       1.0  0.10895  0.33072  0.34120  1.0000
  C   C74       1.0  0.13348  0.33853  0.36620  1.0000
  C   C75       1.0  0.15159  0.36370  0.36558  1.0000
  H   H27       1.0  0.13838  0.32587  0.38463  1.0000
  H   H28       1.0  0.16907  0.36845  0.38455  1.0000
  C   C76       1.0  0.09038  0.30524  0.34181  1.0000
  C   C77       1.0  0.05119  0.25509  0.34286  1.0000
  C   C78       1.0  0.06077  0.26811  0.42400  1.0000
  C   C79       1.0  0.08027  0.29289  0.42460  1.0000
  H   H29       1.0  0.05304  0.25974  0.48391  1.0000
  N   N26       1.0  0.08914  0.30588  0.50674  1.0000
  O   O21       1.0  0.07257  0.30739  0.54874  1.0000
  O   O22       1.0  0.09770  0.29587  0.55697  1.0000
  C   C80       1.0  0.23181  0.90361  0.34121  1.0000
  C   C81       1.0  0.21508  0.87907  0.36620  1.0000
  C   C82       1.0  0.22215  0.86097  0.36558  1.0000
  H   H30       1.0  0.19752  0.87418  0.38463  1.0000
  H   H31       1.0  0.20942  0.84349  0.38455  1.0000
  C   C83       1.0  0.22490  0.92218  0.34184  1.0000
  C   C84       1.0  0.21399  0.96139  0.34289  1.0000
  C   C85       1.0  0.21740  0.95180  0.42404  1.0000
  C   C86       1.0  0.22266  0.93229  0.42463  1.0000
  H   H32       1.0  0.21677  0.95954  0.48394  1.0000
  N   N27       1.0  0.22678  0.92342  0.50676  1.0000
  O   O23       1.0  0.24486  0.93998  0.54878  1.0000
  O   O24       1.0  0.20821  0.91486  0.55698  1.0000
  C   C87       1.0  0.29474  0.07828  0.42713  1.0000
  C   C88       1.0  0.26997  0.05878  0.42545  1.0000
  H   H33       1.0  0.26116  0.05146  0.48511  1.0000
  N   N28       1.0  0.30694  0.08812  0.50998  1.0000
  O   O25       1.0  0.30812  0.07210  0.55699  1.0000
  O   O26       1.0  0.29641  0.09714  0.55494  1.0000
  C   C89       1.0  0.23209  0.44959  0.35173  1.0000
  C   C90       1.0  0.24813  0.47413  0.38024  1.0000
  C   C91       1.0  0.27379  0.48440  0.37982  1.0000
  H   H34       1.0  0.24133  0.48503  0.40183  1.0000
  H   H35       1.0  0.28463  0.50225  0.40010  1.0000
  N   N29       1.0  0.31124  0.47920  0.51309  1.0000
  O   O27       1.0  0.31686  0.49721  0.56418  1.0000
  O   O28       1.0  0.31552  0.46414  0.55337  1.0000
  C   C92       1.0  0.22754  0.78047  0.35170  1.0000
  C   C93       1.0  0.23605  0.76444  0.38021  1.0000
  C   C94       1.0  0.22066  0.73878  0.37980  1.0000
  C   C95       1.0  0.17278  0.68855  0.43002  1.0000
  C   C96       1.0  0.15901  0.66254  0.42750  1.0000
  H   H36       1.0  0.15268  0.65298  0.48655  1.0000
  H   H37       1.0  0.25375  0.77124  0.40179  1.0000
  H   H38       1.0  0.22767  0.72793  0.40007  1.0000
  N   N30       1.0  0.17800  0.70132  0.51309  1.0000
  O   O29       1.0  0.19038  0.69570  0.56420  1.0000
  O   O30       1.0  0.15866  0.69704  0.55334  1.0000
  C   C97       1.0  0.15593  0.50742  0.33879  1.0000
  C   C98       1.0  0.13794  0.48310  0.36142  1.0000
  C   C99       1.0  0.14361  0.46401  0.36010  1.0000
  H   H39       1.0  0.12059  0.47912  0.37898  1.0000
  H   H40       1.0  0.13022  0.44670  0.37801  1.0000
  C   C100      1.0  0.15062  0.52695  0.33988  1.0000
  C   C101      1.0  0.14108  0.56673  0.34146  1.0000
  C   C102      1.0  0.14447  0.55720  0.42270  1.0000
  C   C103      1.0  0.14937  0.53751  0.42297  1.0000
  H   H41       1.0  0.14290  0.56430  0.48280  1.0000
  N   N31       1.0  0.15302  0.52819  0.50491  1.0000
  O   O31       1.0  0.17119  0.54443  0.54753  1.0000
  O   O32       1.0  0.13438  0.51988  0.55473  1.0000
  C   C104      1.0  0.03357  0.55897  0.42364  1.0000
  C   C105      1.0  0.05955  0.57121  0.42401  1.0000
  H   H42       1.0  0.06862  0.57351  0.48371  1.0000
  N   N32       1.0  0.02000  0.54993  0.50461  1.0000
  O   O33       1.0  0.02498  0.56701  0.55957  1.0000
  O   O34       1.0  0.02406  0.53432  0.54169  1.0000
  O   O35       1.0  0.98897  0.11470  0.13259  1.0000
  C   C106      1.0  0.91611  0.91364  0.34309  1.0000
  C   C107      1.0  0.91720  0.93606  0.32070  1.0000
  C   C108      1.0  0.93972  0.95860  0.32151  1.0000
  H   H43       1.0  0.90143  0.93616  0.30431  1.0000
  H   H44       1.0  0.93940  0.97423  0.30469  1.0000
  C   C109      1.0  0.89312  0.89066  0.34311  1.0000
  C   C110      1.0  0.84717  0.84470  0.34315  1.0000
  C   C111      1.0  0.85865  0.85654  0.26191  1.0000
  C   C112      1.0  0.88129  0.87919  0.26084  1.0000
  H   H45       1.0  0.85050  0.84854  0.20202  1.0000
  N   N33       1.0  0.89264  0.89041  0.17821  1.0000
  O   O36       1.0  0.89786  0.87678  0.13257  1.0000
  O   O37       1.0  0.87912  0.89558  0.13175  1.0000
  C   C113      1.0  0.63044  0.76625  0.34150  1.0000
  C   C114      1.0  0.63852  0.74959  0.31712  1.0000
  C   C115      1.0  0.66367  0.75669  0.31644  1.0000
  C   C116      1.0  0.72023  0.79090  0.25958  1.0000
  C   C117      1.0  0.74502  0.79625  0.26117  1.0000
  H   H46       1.0  0.75385  0.79782  0.20147  1.0000
  H   H47       1.0  0.62612  0.73196  0.29862  1.0000
  H   H48       1.0  0.66861  0.74403  0.29846  1.0000
  N   N34       1.0  0.70800  0.78853  0.17678  1.0000
  O   O38       1.0  0.70690  0.77139  0.12958  1.0000
  O   O39       1.0  0.71846  0.80810  0.13197  1.0000
  C   C118      1.0  0.33307  0.10671  0.34565  1.0000
  C   C119      1.0  0.34074  0.13122  0.32075  1.0000
  C   C120      1.0  0.36587  0.14945  0.32157  1.0000
  H   H49       1.0  0.32800  0.13602  0.30228  1.0000
  H   H50       1.0  0.37052  0.16690  0.30268  1.0000
  C   C121      1.0  0.78369  0.67950  0.34567  1.0000
  C   C122      1.0  0.80053  0.67183  0.32076  1.0000
  C   C123      1.0  0.79363  0.64670  0.32156  1.0000
  H   H51       1.0  0.81806  0.68456  0.30228  1.0000
  H   H52       1.0  0.80643  0.64205  0.30267  1.0000
  C   C124      1.0  0.79045  0.70494  0.34498  1.0000
  C   C125      1.0  0.80119  0.75501  0.34381  1.0000
  C   C126      1.0  0.79783  0.74201  0.26269  1.0000
  C   C127      1.0  0.79265  0.71726  0.26216  1.0000
  H   H53       1.0  0.79844  0.75036  0.20275  1.0000
  N   N35       1.0  0.78859  0.70427  0.18006  1.0000
  O   O40       1.0  0.77048  0.70267  0.13801  1.0000
  O   O41       1.0  0.80716  0.71434  0.12984  1.0000
  C   C128      1.0  0.90586  0.22886  0.34567  1.0000
  C   C129      1.0  0.88134  0.21202  0.32076  1.0000
  C   C130      1.0  0.86312  0.21893  0.32157  1.0000
  H   H54       1.0  0.87655  0.19449  0.30229  1.0000
  H   H55       1.0  0.84566  0.20612  0.30267  1.0000
  C   C131      1.0  0.92454  0.22210  0.34496  1.0000
  C   C132      1.0  0.96388  0.21139  0.34377  1.0000
  C   C133      1.0  0.95423  0.21472  0.26265  1.0000
  C   C134      1.0  0.93466  0.21990  0.26214  1.0000
  H   H56       1.0  0.96196  0.21411  0.20271  1.0000
  N   N36       1.0  0.92572  0.22395  0.18004  1.0000
  O   O42       1.0  0.94222  0.24206  0.13796  1.0000
  O   O43       1.0  0.91721  0.20538  0.12984  1.0000
  C   C135      1.0  0.36291  0.50673  0.34540  1.0000
  C   C136      1.0  0.34946  0.50152  0.26457  1.0000
  C   C137      1.0  0.32342  0.48913  0.26491  1.0000
  H   H57       1.0  0.35863  0.50665  0.20438  1.0000
  C   C138      1.0  0.54205  0.81646  0.35018  1.0000
  C   C139      1.0  0.56659  0.82530  0.32228  1.0000
  C   C140      1.0  0.57696  0.80986  0.32387  1.0000
  H   H58       1.0  0.57705  0.84303  0.30038  1.0000
  H   H59       1.0  0.59461  0.81675  0.30163  1.0000
  C   C141      1.0  0.53095  0.83147  0.34815  1.0000
  C   C142      1.0  0.50583  0.85869  0.34541  1.0000
  C   C143      1.0  0.51103  0.85045  0.26458  1.0000
  C   C144      1.0  0.52343  0.83680  0.26490  1.0000
  H   H60       1.0  0.50590  0.85449  0.20439  1.0000
  N   N37       1.0  0.52809  0.82812  0.18335  1.0000
  O   O44       1.0  0.50848  0.81381  0.14287  1.0000
  O   O45       1.0  0.54149  0.84554  0.13145  1.0000
  C   C145      1.0  0.45157  0.23029  0.33613  1.0000
  C   C146      1.0  0.47607  0.24637  0.30729  1.0000
  C   C147      1.0  0.48629  0.27203  0.30796  1.0000
  C   C148      1.0  0.48824  0.32218  0.25861  1.0000
  C   C149      1.0  0.50059  0.34819  0.26112  1.0000
  H   H61       1.0  0.50370  0.35775  0.20212  1.0000
  H   H62       1.0  0.48697  0.23962  0.28530  1.0000
  H   H63       1.0  0.50412  0.28292  0.28741  1.0000
  N   N38       1.0  0.48036  0.30939  0.17566  1.0000
  O   O46       1.0  0.49817  0.31492  0.12366  1.0000
  O   O47       1.0  0.46523  0.31375  0.13640  1.0000
  C   C150      1.0  0.78877  0.56100  0.33607  1.0000
  C   C151      1.0  0.78036  0.53650  0.30723  1.0000
  C   C152      1.0  0.79578  0.52627  0.30791  1.0000
  C   C153      1.0  0.84398  0.52431  0.25861  1.0000
  C   C154      1.0  0.85764  0.51196  0.26113  1.0000
  H   H64       1.0  0.86409  0.50885  0.20213  1.0000
  H   H65       1.0  0.76270  0.52560  0.28522  1.0000
  H   H66       1.0  0.78885  0.50845  0.28735  1.0000
  N   N39       1.0  0.83907  0.53219  0.17566  1.0000
  O   O48       1.0  0.82679  0.51438  0.12365  1.0000
  O   O49       1.0  0.85856  0.54732  0.13638  1.0000
  C   C155      1.0  0.78228  0.22379  0.33612  1.0000
  C   C156      1.0  0.76619  0.23220  0.30728  1.0000
  C   C157      1.0  0.74054  0.21677  0.30795  1.0000
  C   C158      1.0  0.69038  0.16858  0.25861  1.0000
  C   C159      1.0  0.66436  0.15492  0.26112  1.0000
  H   H67       1.0  0.65481  0.14847  0.20212  1.0000
  H   H68       1.0  0.77294  0.24986  0.28530  1.0000
  H   H69       1.0  0.72965  0.22371  0.28741  1.0000
  N   N40       1.0  0.70317  0.17349  0.17565  1.0000
  O   O50       1.0  0.69764  0.18578  0.12366  1.0000
  O   O51       1.0  0.69880  0.15400  0.13636  1.0000
  C   C160      1.0  0.54384  0.70129  0.33763  1.0000
  C   C161      1.0  0.51932  0.69459  0.31466  1.0000
  C   C162      1.0  0.50033  0.66992  0.31479  1.0000
  C   C163      1.0  0.47617  0.61330  0.25765  1.0000
  C   C164      1.0  0.45655  0.58868  0.25961  1.0000
  H   H70       1.0  0.45036  0.57921  0.20033  1.0000
  H   H71       1.0  0.51489  0.70764  0.29706  1.0000
  H   H72       1.0  0.48288  0.66590  0.29815  1.0000
  N   N41       1.0  0.48695  0.62499  0.17491  1.0000
  O   O52       1.0  0.47155  0.62620  0.12434  1.0000
  O   O53       1.0  0.49611  0.61399  0.13376  1.0000
  C   C165      1.0  0.34264  0.83292  0.31477  1.0000
  C   C166      1.0  0.39925  0.86537  0.25762  1.0000
  C   C167      1.0  0.42387  0.87037  0.25958  1.0000
  H   H73       1.0  0.43334  0.87364  0.20029  1.0000
  H   H74       1.0  0.34666  0.81950  0.29812  1.0000
  N   N42       1.0  0.38756  0.86445  0.17488  1.0000
  O   O54       1.0  0.38634  0.84783  0.12434  1.0000
  O   O55       1.0  0.39856  0.88461  0.13370  1.0000
  C   C168      1.0  0.51008  0.15483  0.34924  1.0000
  C   C169      1.0  0.48583  0.13675  0.32618  1.0000
  C   C170      1.0  0.46661  0.14223  0.32747  1.0000
  H   H75       1.0  0.48200  0.11946  0.30831  1.0000
  H   H76       1.0  0.44936  0.12878  0.30919  1.0000
  C   C171      1.0  0.52976  0.14973  0.34798  1.0000
  C   C172      1.0  0.56964  0.14036  0.34591  1.0000
  C   C173      1.0  0.55956  0.14298  0.26473  1.0000
  C   C174      1.0  0.53985  0.14787  0.26468  1.0000
  H   H77       1.0  0.56623  0.14084  0.20455  1.0000
  N   N43       1.0  0.53007  0.15086  0.18273  1.0000
  O   O56       1.0  0.54606  0.16871  0.13806  1.0000
  O   O57       1.0  0.52152  0.13186  0.13478  1.0000
  C   C175      1.0  0.65481  0.50248  0.34926  1.0000
  C   C176      1.0  0.66097  0.52674  0.32621  1.0000
  C   C177      1.0  0.68567  0.54596  0.32749  1.0000
  H   H78       1.0  0.64751  0.53057  0.30834  1.0000
  H   H79       1.0  0.68947  0.56321  0.30922  1.0000
  C   C178      1.0  0.63003  0.48281  0.34802  1.0000
  C   C179      1.0  0.58076  0.44291  0.34596  1.0000
  C   C180      1.0  0.59347  0.45301  0.26478  1.0000
  C   C181      1.0  0.61806  0.47272  0.26472  1.0000
  H   H80       1.0  0.58465  0.44635  0.20460  1.0000
  N   N44       1.0  0.63083  0.48251  0.18275  1.0000
  O   O58       1.0  0.63270  0.46653  0.13805  1.0000
  O   O59       1.0  0.62038  0.49106  0.13484  1.0000
  C   C182      1.0  0.85773  0.35775  0.34926  1.0000
  C   C183      1.0  0.87581  0.35158  0.32619  1.0000
  C   C184      1.0  0.87033  0.32688  0.32747  1.0000
  H   H81       1.0  0.89311  0.36504  0.30831  1.0000
  H   H82       1.0  0.88379  0.32309  0.30920  1.0000
  C   C185      1.0  0.86283  0.38253  0.34801  1.0000
  C   C186      1.0  0.87219  0.43179  0.34596  1.0000
  C   C187      1.0  0.86959  0.41909  0.26478  1.0000
  C   C188      1.0  0.86470  0.39449  0.26471  1.0000
  H   H83       1.0  0.87174  0.42790  0.20460  1.0000
  N   N45       1.0  0.86172  0.38172  0.18275  1.0000
  O   O60       1.0  0.84388  0.37986  0.13805  1.0000
  O   O61       1.0  0.88074  0.39218  0.13484  1.0000
  C   C189      1.0  0.99503  0.54102  0.33814  1.0000
  C   C190      1.0  0.98339  0.51600  0.31374  1.0000
  C   C191      1.0  0.95763  0.50166  0.31387  1.0000
  H   H84       1.0  0.99355  0.50797  0.29669  1.0000
  H   H85       1.0  0.94990  0.48357  0.29591  1.0000
  C   C192      1.0  0.47153  0.45652  0.33810  1.0000
  C   C193      1.0  0.49656  0.46990  0.31369  1.0000
  C   C194      1.0  0.51090  0.45849  0.31383  1.0000
  H   H86       1.0  0.50459  0.48810  0.29665  1.0000
  H   H87       1.0  0.52899  0.46885  0.29587  1.0000
  C   C195      1.0  0.45750  0.46848  0.34031  1.0000
  C   C196      1.0  0.43288  0.49584  0.34331  1.0000
  C   C197      1.0  0.43669  0.48706  0.26115  1.0000
  C   C198      1.0  0.44911  0.47350  0.25854  1.0000
  H   H88       1.0  0.43107  0.49112  0.20210  1.0000
  N   N46       1.0  0.45354  0.46519  0.17566  1.0000
  O   O62       1.0  0.43381  0.45082  0.13603  1.0000
  O   O63       1.0  0.46657  0.48281  0.12391  1.0000
  C   C199      1.0  0.55605  0.01752  0.33814  1.0000
  C   C200      1.0  0.54267  0.02917  0.31371  1.0000
  C   C201      1.0  0.55409  0.05493  0.31384  1.0000
  H   H89       1.0  0.52447  0.01900  0.29665  1.0000
  H   H90       1.0  0.54372  0.06265  0.29586  1.0000
  C   C202      1.0  0.54409  0.99153  0.34036  1.0000
  C   C203      1.0  0.51673  0.93955  0.34338  1.0000
  C   C204      1.0  0.52551  0.95214  0.26122  1.0000
  C   C205      1.0  0.53906  0.97812  0.25859  1.0000
  H   H91       1.0  0.52144  0.94246  0.20216  1.0000
  N   N47       1.0  0.54737  0.99086  0.17570  1.0000
  O   O64       1.0  0.56174  0.98549  0.13607  1.0000
  O   O65       1.0  0.52975  0.98626  0.12397  1.0000
  C   C206      1.0  0.98537  0.98286  0.34305  1.0000
  N   N48       1.0  0.00753  0.98367  0.34305  1.0000
  N   N49       1.0  0.98620  0.00504  0.34305  1.0000
  C   C207      1.0  0.98575  0.21003  0.34350  1.0000
  N   N50       1.0  0.98597  0.18842  0.34358  1.0000
  C   C208      1.0  0.80253  0.77823  0.34352  1.0000
  N   N51       1.0  0.82414  0.80007  0.34359  1.0000
  C   C209      1.0  0.82447  0.82199  0.34318  1.0000
  N   N52       1.0  0.80253  0.82163  0.34284  1.0000
  C   C210      1.0  0.78070  0.80000  0.34303  1.0000
  N   N53       1.0  0.78111  0.77859  0.34331  1.0000
  C   C211      1.0  0.57245  0.76854  0.34798  1.0000
  N   N54       1.0  0.59681  0.77550  0.34631  1.0000
  C   C212      1.0  0.60478  0.75882  0.34241  1.0000
  N   N55       1.0  0.58721  0.73447  0.33971  1.0000
  C   C213      1.0  0.56268  0.72654  0.34016  1.0000
  N   N56       1.0  0.55621  0.74409  0.34449  1.0000
  C   C214      1.0  0.44218  0.20435  0.33975  1.0000
  N   N57       1.0  0.41785  0.18685  0.34122  1.0000
  C   C215      1.0  0.41001  0.16222  0.34503  1.0000
  N   N58       1.0  0.42768  0.15557  0.34786  1.0000
  C   C216      1.0  0.45218  0.17227  0.34763  1.0000
  N   N59       1.0  0.45852  0.19625  0.34336  1.0000
  C   C217      1.0  0.77222  0.57039  0.33970  1.0000
  N   N60       1.0  0.77904  0.59471  0.34119  1.0000
  C   C218      1.0  0.76226  0.60255  0.34503  1.0000
  N   N61       1.0  0.73794  0.58489  0.34788  1.0000
  C   C219      1.0  0.73014  0.56039  0.34764  1.0000
  N   N62       1.0  0.74779  0.55405  0.34334  1.0000
  C   C220      1.0  0.80822  0.24034  0.33972  1.0000
  N   N63       1.0  0.82572  0.23351  0.34121  1.0000
  C   C221      1.0  0.85035  0.25030  0.34503  1.0000
  N   N64       1.0  0.85699  0.27461  0.34787  1.0000
  C   C222      1.0  0.84029  0.28241  0.34765  1.0000
  N   N65       1.0  0.81631  0.26477  0.34336  1.0000
  C   C223      1.0  0.42890  0.55148  0.34283  1.0000
  N   N66       1.0  0.40409  0.54205  0.34322  1.0000
  C   C224      1.0  0.38864  0.51724  0.34380  1.0000
  N   N67       1.0  0.39813  0.50199  0.34406  1.0000
  C   C225      1.0  0.42280  0.51130  0.34379  1.0000
  N   N68       1.0  0.43804  0.53597  0.34311  1.0000
  C   C226      1.0  0.46108  0.87993  0.34284  1.0000
  N   N69       1.0  0.47051  0.86455  0.34321  1.0000
  C   C227      1.0  0.49532  0.87391  0.34382  1.0000
  N   N70       1.0  0.51057  0.89865  0.34411  1.0000
  C   C228      1.0  0.50127  0.91401  0.34386  1.0000
  N   N71       1.0  0.47660  0.90458  0.34315  1.0000
  C   C229      1.0  0.58608  0.13130  0.34460  1.0000
  N   N72       1.0  0.61096  0.14594  0.34591  1.0000
  C   C230      1.0  0.62564  0.13572  0.34429  1.0000
  N   N73       1.0  0.61521  0.11086  0.34116  1.0000
  C   C231      1.0  0.59038  0.09584  0.33988  1.0000
  N   N74       1.0  0.57625  0.10659  0.34158  1.0000
  C   C232      1.0  0.55527  0.42648  0.34461  1.0000
  N   N75       1.0  0.54503  0.40160  0.34593  1.0000
  C   C233      1.0  0.52013  0.38692  0.34428  1.0000
  N   N76       1.0  0.50570  0.39735  0.34113  1.0000
  C   C234      1.0  0.51551  0.42218  0.33986  1.0000
  N   N77       1.0  0.54039  0.43631  0.34157  1.0000
  C   C235      1.0  0.88125  0.45729  0.34462  1.0000
  N   N78       1.0  0.86661  0.46752  0.34594  1.0000
  C   C236      1.0  0.87683  0.49243  0.34431  1.0000
  N   N79       1.0  0.90169  0.50686  0.34117  1.0000
  C   C237      1.0  0.91671  0.49705  0.33990  1.0000
  N   N80       1.0  0.90596  0.47216  0.34160  1.0000
  C   C238      1.0  0.98620  0.05149  0.36466  1.0000
  C   C239      1.0  0.98624  0.07404  0.36546  1.0000
  C   C240      1.0  0.00724  0.13090  0.42541  1.0000
  C   C241      1.0  0.00724  0.15356  0.42438  1.0000
  H   H92       1.0  0.00709  0.16154  0.48429  1.0000
  H   H93       1.0  0.97024  0.03587  0.38142  1.0000
  H   H94       1.0  0.97038  0.07395  0.38186  1.0000
  N   N81       1.0  0.00738  0.11968  0.50801  1.0000
  O   O66       1.0  0.98869  0.11451  0.55450  1.0000
  C   C242      1.0  0.96235  0.95986  0.34306  1.0000
  C   C243      1.0  0.96107  0.93722  0.36466  1.0000
  C   C244      1.0  0.93852  0.91471  0.36546  1.0000
  C   C245      1.0  0.88166  0.87885  0.42540  1.0000
  C   C246      1.0  0.85901  0.85620  0.42438  1.0000
  H   H95       1.0  0.85102  0.84805  0.48429  1.0000
  H   H96       1.0  0.97669  0.93688  0.38142  1.0000
  H   H97       1.0  0.93861  0.89894  0.38185  1.0000
  N   N82       1.0  0.89288  0.89020  0.50801  1.0000
  O   O67       1.0  0.89806  0.87669  0.55450  1.0000
  O   O68       1.0  0.87926  0.89543  0.55364  1.0000
  C   C247      1.0  0.68184  0.78074  0.34118  1.0000
  C   C248      1.0  0.67404  0.79747  0.36618  1.0000
  C   C249      1.0  0.64886  0.79041  0.36556  1.0000
  H   H98       1.0  0.68670  0.81503  0.38461  1.0000
  H   H99       1.0  0.64412  0.80313  0.38453  1.0000
  C   C250      1.0  0.70733  0.78765  0.34181  1.0000
  C   C251      1.0  0.75747  0.79860  0.34285  1.0000
  C   C252      1.0  0.74445  0.79517  0.42399  1.0000
  C   C253      1.0  0.71968  0.78989  0.42458  1.0000
  H   H100      1.0  0.75282  0.79580  0.48389  1.0000
  N   N83       1.0  0.70669  0.78577  0.50672  1.0000
  O   O69       1.0  0.70517  0.76769  0.54872  1.0000
  O   O70       1.0  0.71669  0.80434  0.55696  1.0000
  C   C254      1.0  0.38439  0.14386  0.34573  1.0000
  C   C255      1.0  0.37645  0.11914  0.36999  1.0000
  C   C256      1.0  0.35134  0.10098  0.37049  1.0000
  H   H101      1.0  0.38892  0.11401  0.38857  1.0000
  H   H102      1.0  0.34650  0.08339  0.38842  1.0000
  C   C257      1.0  0.76952  0.62817  0.34573  1.0000
  C   C258      1.0  0.75274  0.63612  0.37002  1.0000
  C   C259      1.0  0.75969  0.66122  0.37052  1.0000
  C   C260      1.0  0.79362  0.71783  0.42718  1.0000
  C   C261      1.0  0.79887  0.74259  0.42553  1.0000
  H   H103      1.0  0.80039  0.75141  0.48520  1.0000
  H   H104      1.0  0.73514  0.62365  0.38860  1.0000
  H   H105      1.0  0.74694  0.66607  0.38846  1.0000
  N   N84       1.0  0.79127  0.70563  0.51001  1.0000
  O   O71       1.0  0.77409  0.70445  0.55711  1.0000
  O   O72       1.0  0.81083  0.71616  0.55491  1.0000
  C   C262      1.0  0.86870  0.24303  0.34573  1.0000
  C   C263      1.0  0.89342  0.25981  0.37000  1.0000
  C   C264      1.0  0.91158  0.25287  0.37050  1.0000
  C   C265      1.0  0.93427  0.21894  0.42716  1.0000
  C   C266      1.0  0.95378  0.21370  0.42551  1.0000
  H   H106      1.0  0.96109  0.21218  0.48517  1.0000
  H   H107      1.0  0.89855  0.27741  0.38858  1.0000
  H   H108      1.0  0.92917  0.26561  0.38844  1.0000
  N   N85       1.0  0.92441  0.22128  0.50999  1.0000
  O   O73       1.0  0.94041  0.23847  0.55708  1.0000
  O   O74       1.0  0.91539  0.20172  0.55489  1.0000
  C   C267      1.0  0.32401  0.48675  0.43002  1.0000
  C   C268      1.0  0.35003  0.49899  0.42749  1.0000
  H   H109      1.0  0.35959  0.50224  0.48654  1.0000
  C   C269      1.0  0.56298  0.78502  0.35167  1.0000
  C   C270      1.0  0.53844  0.77651  0.38019  1.0000
  C   C271      1.0  0.52817  0.79190  0.37978  1.0000
  C   C272      1.0  0.52582  0.83978  0.43001  1.0000
  C   C273      1.0  0.51358  0.85355  0.42749  1.0000
  H   H110      1.0  0.51033  0.85987  0.48655  1.0000
  H   H111      1.0  0.52753  0.75881  0.40177  1.0000
  H   H112      1.0  0.51031  0.78490  0.40005  1.0000
  N   N86       1.0  0.53337  0.83456  0.51308  1.0000
  O   O75       1.0  0.51537  0.82218  0.56419  1.0000
  O   O76       1.0  0.54843  0.85390  0.55334  1.0000
  C   C274      1.0  0.47241  0.28264  0.33815  1.0000
  C   C275      1.0  0.44791  0.26688  0.36635  1.0000
  C   C276      1.0  0.43758  0.24109  0.36450  1.0000
  H   H113      1.0  0.43745  0.27412  0.38869  1.0000
  H   H114      1.0  0.41996  0.23028  0.38702  1.0000
  C   C277      1.0  0.48348  0.30875  0.34035  1.0000
  C   C278      1.0  0.50885  0.36110  0.34300  1.0000
  C   C279      1.0  0.50410  0.34767  0.42369  1.0000
  C   C280      1.0  0.49151  0.32162  0.42342  1.0000
  H   H115      1.0  0.50972  0.35686  0.48372  1.0000
  N   N87       1.0  0.48721  0.30827  0.50478  1.0000
  O   O77       1.0  0.50699  0.31344  0.54364  1.0000
  O   O78       1.0  0.47417  0.31242  0.55810  1.0000
  C   C281      1.0  0.82028  0.54015  0.33813  1.0000
  C   C282      1.0  0.82902  0.56465  0.36635  1.0000
  C   C283      1.0  0.81355  0.57498  0.36449  1.0000
  H   H116      1.0  0.84671  0.57511  0.38872  1.0000
  H   H117      1.0  0.82036  0.59260  0.38702  1.0000
  C   C284      1.0  0.83531  0.52908  0.34034  1.0000
  C   C285      1.0  0.86229  0.50370  0.34301  1.0000
  C   C286      1.0  0.85362  0.50846  0.42370  1.0000
  C   C287      1.0  0.84015  0.52105  0.42341  1.0000
  H   H118      1.0  0.85719  0.50285  0.48373  1.0000
  N   N88       1.0  0.83111  0.52537  0.50477  1.0000
  O   O79       1.0  0.81650  0.50558  0.54366  1.0000
  O   O80       1.0  0.84831  0.53841  0.55808  1.0000
  C   C288      1.0  0.72992  0.19227  0.33814  1.0000
  C   C289      1.0  0.74568  0.18353  0.36633  1.0000
  C   C290      1.0  0.77148  0.19900  0.36448  1.0000
  H   H119      1.0  0.73845  0.16584  0.38866  1.0000
  H   H120      1.0  0.78228  0.19219  0.38698  1.0000
  C   C291      1.0  0.70382  0.17724  0.34034  1.0000
  C   C292      1.0  0.65146  0.15027  0.34300  1.0000
  C   C293      1.0  0.66489  0.15892  0.42369  1.0000
  C   C294      1.0  0.69095  0.17239  0.42341  1.0000
  H   H121      1.0  0.65571  0.15536  0.48373  1.0000
  N   N89       1.0  0.70430  0.18142  0.50478  1.0000
  O   O81       1.0  0.69913  0.19604  0.54369  1.0000
  O   O82       1.0  0.70014  0.16423  0.55807  1.0000
  C   C295      1.0  0.50515  0.65103  0.33882  1.0000
  C   C296      1.0  0.52947  0.65737  0.36146  1.0000
  C   C297      1.0  0.54856  0.68212  0.36013  1.0000
  H   H122      1.0  0.53345  0.64398  0.37904  1.0000
  H   H123      1.0  0.56587  0.68604  0.37806  1.0000
  C   C298      1.0  0.48561  0.62619  0.33994  1.0000
  C   C299      1.0  0.44582  0.57687  0.34157  1.0000
  C   C300      1.0  0.45536  0.58979  0.42278  1.0000
  C   C301      1.0  0.47506  0.61439  0.42303  1.0000
  H   H124      1.0  0.44826  0.58113  0.48289  1.0000
  N   N90       1.0  0.48438  0.62736  0.50496  1.0000
  O   O83       1.0  0.46814  0.62929  0.54757  1.0000
  O   O84       1.0  0.49268  0.61703  0.55479  1.0000
  C   C302      1.0  0.36153  0.85664  0.33880  1.0000
  C   C303      1.0  0.35519  0.87462  0.36146  1.0000
  C   C304      1.0  0.33044  0.86895  0.36013  1.0000
  H   H125      1.0  0.36858  0.89198  0.37905  1.0000
  H   H126      1.0  0.32652  0.88235  0.37807  1.0000
  C   C305      1.0  0.38637  0.86194  0.33991  1.0000
  C   C306      1.0  0.43569  0.87147  0.34153  1.0000
  C   C307      1.0  0.42278  0.86810  0.42275  1.0000
  C   C308      1.0  0.39817  0.86320  0.42300  1.0000
  H   H127      1.0  0.43144  0.86967  0.48286  1.0000
  N   N91       1.0  0.38521  0.85956  0.50494  1.0000
  O   O85       1.0  0.38328  0.84139  0.54757  1.0000
  O   O86       1.0  0.39554  0.87820  0.55475  1.0000
  C   C309      1.0  0.47113  0.16603  0.35033  1.0000
  C   C310      1.0  0.49557  0.18394  0.37375  1.0000
  C   C311      1.0  0.51470  0.17846  0.37366  1.0000
  C   C312      1.0  0.53973  0.14700  0.43023  1.0000
  C   C313      1.0  0.55942  0.14210  0.42809  1.0000
  H   H128      1.0  0.56589  0.13918  0.48740  1.0000
  H   H129      1.0  0.49986  0.20137  0.39162  1.0000
  H   H130      1.0  0.53208  0.19195  0.39053  1.0000
  N   N92       1.0  0.52929  0.14833  0.51321  1.0000
  O   O87       1.0  0.54487  0.16527  0.56227  1.0000
  O   O88       1.0  0.52040  0.12842  0.55590  1.0000
  C   C314      1.0  0.70495  0.54143  0.35035  1.0000
  C   C315      1.0  0.69842  0.51699  0.37377  1.0000
  C   C316      1.0  0.67381  0.49787  0.37367  1.0000
  C   C317      1.0  0.61733  0.47283  0.43027  1.0000
  C   C318      1.0  0.59274  0.45314  0.42813  1.0000
  H   H131      1.0  0.58336  0.44667  0.48744  1.0000
  H   H132      1.0  0.71156  0.51271  0.39162  1.0000
  H   H133      1.0  0.66992  0.48048  0.39054  1.0000
  N   N93       1.0  0.62910  0.48327  0.51325  1.0000
  O   O89       1.0  0.63046  0.46769  0.56228  1.0000
  O   O90       1.0  0.61807  0.49215  0.55594  1.0000
  C   C319      1.0  0.84653  0.30761  0.35035  1.0000
  C   C320      1.0  0.82862  0.31413  0.37377  1.0000
  C   C321      1.0  0.83411  0.33874  0.37367  1.0000
  C   C322      1.0  0.86556  0.39523  0.43026  1.0000
  C   C323      1.0  0.87045  0.41981  0.42813  1.0000
  H   H134      1.0  0.87335  0.42920  0.48744  1.0000
  H   H135      1.0  0.81120  0.30100  0.39164  1.0000
  H   H136      1.0  0.82061  0.34264  0.39055  1.0000
  N   N94       1.0  0.86422  0.38346  0.51324  1.0000
  O   O91       1.0  0.84728  0.38209  0.56228  1.0000
  O   O92       1.0  0.88413  0.39448  0.55594  1.0000
  C   C324      1.0  0.94277  0.51190  0.33771  1.0000
  C   C325      1.0  0.95471  0.53715  0.36108  1.0000
  C   C326      1.0  0.98053  0.55152  0.36195  1.0000
  H   H137      1.0  0.94477  0.54527  0.37973  1.0000
  H   H138      1.0  0.98865  0.56963  0.38028  1.0000
  C   C327      1.0  0.50065  0.43338  0.33766  1.0000
  C   C328      1.0  0.47541  0.42008  0.36103  1.0000
  C   C329      1.0  0.46103  0.43153  0.36191  1.0000
  C   C330      1.0  0.45360  0.47713  0.42359  1.0000
  C   C331      1.0  0.44136  0.49088  0.42397  1.0000
  H   H139      1.0  0.43906  0.49765  0.48367  1.0000
  H   H140      1.0  0.46728  0.40201  0.37968  1.0000
  H   H141      1.0  0.44293  0.42154  0.38024  1.0000
  N   N95       1.0  0.46264  0.47260  0.50456  1.0000
  O   O93       1.0  0.44556  0.46051  0.55954  1.0000
  O   O94       1.0  0.47825  0.49227  0.54163  1.0000
  C   C332      1.0  0.57918  0.06979  0.33769  1.0000
  C   C333      1.0  0.59249  0.05784  0.36108  1.0000
  C   C334      1.0  0.58104  0.03202  0.36197  1.0000
  C   C335      1.0  0.53544  0.97898  0.42365  1.0000
  C   C336      1.0  0.52169  0.95300  0.42403  1.0000
  H   H142      1.0  0.51492  0.94393  0.48373  1.0000
  H   H143      1.0  0.61055  0.06779  0.37975  1.0000
  H   H144      1.0  0.59102  0.02390  0.38031  1.0000
  N   N96       1.0  0.53998  0.99256  0.50461  1.0000
  O   O95       1.0  0.55207  0.98758  0.55959  1.0000
  O   O96       1.0  0.52031  0.98851  0.54168  1.0000
