data_image0
_chemical_formula_structural       C8H3NCHCNH2C2OCH2C8H3NCHCNH2C2OCH2CHNC4HCH2C4HCH2C2OCH2CNH2CHNC4HCH2C4HCH2C2OCH2CNH2CNHCNHC21NOCH2C3NOCH2CNHCNHC21NOCH2C3NOCH2C7HCH2CNHCNHCHCH2C2H3C3NOCH3C3NOCH3C7HCH2CNHCNHCHCH2C2H3C3NOCH3C3NOCH3C8HC7HCH4CNHCNHCNHCNHCNHCNHC8HC7HCH4C8HC7HCH4C3NOCH3C3NOCH3C3NOCH3C3NOCH3C3NOCH3C3NOCH3C8HC7HCH4CNHCNHCNHCNHCNHCNHC8HC7HCH4C8HC7HCH4C3NOCH3C3NOCH3C3NOCH3C3NOCH3C3NOCH3C3NOCH3
_chemical_formula_sum              "C312 H168 N48 O24"
_cell_length_a       46.4331
_cell_length_b       46.4331
_cell_length_c       14.8097
_cell_angle_alpha    89.998
_cell_angle_beta     90.002
_cell_angle_gamma    120

_space_group_name_H-M_alt    "P 1"
_space_group_IT_number       1

loop_
  _space_group_symop_operation_xyz
  'x, y, z'

loop_
  _atom_site_type_symbol
  _atom_site_label
  _atom_site_symmetry_multiplicity
  _atom_site_fract_x
  _atom_site_fract_y
  _atom_site_fract_z
  _atom_site_occupancy
  C   C1        1.0  0.02794  0.26485  0.34579  1.0000
  C   C2        1.0  0.04600  0.30046  0.34586  1.0000
  C   C3        1.0  0.08144  0.31803  0.34512  1.0000
  C   C4        1.0  0.09809  0.29960  0.34496  1.0000
  C   C5        1.0  0.08111  0.26453  0.34501  1.0000
  C   C6        1.0  0.04569  0.24698  0.34567  1.0000
  C   C7        1.0  0.02782  0.31741  0.34646  1.0000
  C   C8        1.0  0.02723  0.21186  0.34606  1.0000
  H   H1        1.0  0.12367  0.31228  0.34509  1.0000
  H   H2        1.0  0.03983  0.34284  0.34656  1.0000
  H   H3        1.0  0.03902  0.19822  0.34605  1.0000
  N   N1        1.0  0.11791  0.25173  0.26797  1.0000
  C   C9        1.0  0.11850  0.36919  0.26583  1.0000
  H   H4        1.0  0.11044  0.35743  0.20497  1.0000
  C   C10       1.0  0.10144  0.24988  0.34563  1.0000
  N   N2        1.0  0.11761  0.25147  0.42359  1.0000
  H   H5        1.0  0.14386  0.27746  0.59174  1.0000
  H   H6        1.0  0.12395  0.23325  0.60130  1.0000
  C   C11       1.0  0.11849  0.36920  0.42813  1.0000
  C   C12       1.0  0.10216  0.35314  0.34685  1.0000
  O   O1        1.0  0.10587  0.35267  0.50853  1.0000
  C   C13       1.0  0.12271  0.36807  0.59129  1.0000
  H   H7        1.0  0.10891  0.35164  0.64715  1.0000
  H   H8        1.0  0.12368  0.39184  0.60142  1.0000
  C   C14       1.0  0.02794  0.76485  0.34579  1.0000
  C   C15       1.0  0.04600  0.80046  0.34586  1.0000
  C   C16       1.0  0.08144  0.81803  0.34512  1.0000
  C   C17       1.0  0.09809  0.79960  0.34496  1.0000
  C   C18       1.0  0.08111  0.76453  0.34501  1.0000
  C   C19       1.0  0.04569  0.74698  0.34567  1.0000
  C   C20       1.0  0.02782  0.81741  0.34646  1.0000
  C   C21       1.0  0.02723  0.71186  0.34606  1.0000
  H   H9        1.0  0.12367  0.81228  0.34509  1.0000
  H   H10       1.0  0.03983  0.84284  0.34656  1.0000
  H   H11       1.0  0.03902  0.69822  0.34605  1.0000
  N   N3        1.0  0.11791  0.75173  0.26797  1.0000
  C   C22       1.0  0.11850  0.86919  0.26583  1.0000
  H   H12       1.0  0.11043  0.85743  0.20497  1.0000
  C   C23       1.0  0.10144  0.74988  0.34563  1.0000
  N   N4        1.0  0.11761  0.75148  0.42359  1.0000
  H   H13       1.0  0.14386  0.77746  0.59174  1.0000
  H   H14       1.0  0.12395  0.73325  0.60130  1.0000
  C   C24       1.0  0.11849  0.86920  0.42813  1.0000
  C   C25       1.0  0.10216  0.85314  0.34685  1.0000
  O   O2        1.0  0.10587  0.85267  0.50853  1.0000
  C   C26       1.0  0.12271  0.86807  0.59129  1.0000
  H   H15       1.0  0.10891  0.85164  0.64715  1.0000
  H   H16       1.0  0.12368  0.89184  0.60142  1.0000
  C   C27       1.0  0.14667  0.25078  0.26591  1.0000
  H   H17       1.0  0.15843  0.25446  0.20505  1.0000
  N   N5        1.0  0.14822  0.39793  0.26800  1.0000
  C   C28       1.0  0.21544  0.24703  0.34614  1.0000
  C   C29       1.0  0.19786  0.26490  0.34537  1.0000
  C   C30       1.0  0.21630  0.29998  0.34502  1.0000
  C   C31       1.0  0.19849  0.21190  0.34683  1.0000
  H   H18       1.0  0.20362  0.31288  0.34494  1.0000
  C   C32       1.0  0.21579  0.19430  0.34675  1.0000
  H   H19       1.0  0.20216  0.16888  0.34691  1.0000
  H   H20       1.0  0.17306  0.19847  0.34700  1.0000
  C   C33       1.0  0.21587  0.41772  0.34515  1.0000
  C   C34       1.0  0.19779  0.43470  0.34518  1.0000
  C   C35       1.0  0.21566  0.47012  0.34586  1.0000
  C   C36       1.0  0.19899  0.48858  0.34638  1.0000
  H   H21       1.0  0.20296  0.39213  0.34522  1.0000
  C   C37       1.0  0.21658  0.02347  0.34647  1.0000
  H   H22       1.0  0.20315  0.03547  0.34654  1.0000
  H   H23       1.0  0.17357  0.47680  0.34646  1.0000
  C   C38       1.0  0.14666  0.25082  0.42808  1.0000
  C   C39       1.0  0.16275  0.25051  0.34687  1.0000
  O   O3        1.0  0.16316  0.25475  0.50855  1.0000
  C   C40       1.0  0.14769  0.25609  0.59128  1.0000
  H   H24       1.0  0.16412  0.25874  0.64718  1.0000
  H   H25       1.0  0.23861  0.36735  0.59211  1.0000
  C   C41       1.0  0.16281  0.41439  0.34570  1.0000
  N   N6        1.0  0.14821  0.39823  0.42366  1.0000
  H   H26       1.0  0.14788  0.37183  0.59169  1.0000
  H   H27       1.0  0.23761  0.11904  0.60134  1.0000
  C   C42       1.0  0.14667  0.75078  0.26591  1.0000
  H   H28       1.0  0.15843  0.75446  0.20505  1.0000
  N   N7        1.0  0.14821  0.89793  0.26800  1.0000
  C   C43       1.0  0.21544  0.74703  0.34614  1.0000
  C   C44       1.0  0.19786  0.76489  0.34537  1.0000
  C   C45       1.0  0.21630  0.79998  0.34502  1.0000
  C   C46       1.0  0.19849  0.71190  0.34683  1.0000
  H   H29       1.0  0.20362  0.81288  0.34494  1.0000
  C   C47       1.0  0.21579  0.69430  0.34675  1.0000
  H   H30       1.0  0.20216  0.66888  0.34691  1.0000
  H   H31       1.0  0.17306  0.69847  0.34700  1.0000
  C   C48       1.0  0.21587  0.91772  0.34515  1.0000
  C   C49       1.0  0.19779  0.93470  0.34518  1.0000
  C   C50       1.0  0.21565  0.97012  0.34586  1.0000
  C   C51       1.0  0.19899  0.98858  0.34638  1.0000
  H   H32       1.0  0.20296  0.89214  0.34522  1.0000
  C   C52       1.0  0.21658  0.52347  0.34647  1.0000
  H   H33       1.0  0.20315  0.53547  0.34654  1.0000
  H   H34       1.0  0.17357  0.97680  0.34646  1.0000
  C   C53       1.0  0.14666  0.75082  0.42808  1.0000
  C   C54       1.0  0.16275  0.75051  0.34687  1.0000
  O   O4        1.0  0.16316  0.75475  0.50855  1.0000
  C   C55       1.0  0.14769  0.75609  0.59128  1.0000
  H   H35       1.0  0.16412  0.75874  0.64718  1.0000
  H   H36       1.0  0.23860  0.86735  0.59211  1.0000
  C   C56       1.0  0.16281  0.91439  0.34570  1.0000
  N   N8        1.0  0.14821  0.89823  0.42366  1.0000
  H   H37       1.0  0.14788  0.87183  0.59169  1.0000
  H   H38       1.0  0.23761  0.61904  0.60134  1.0000
  C   C57       1.0  0.26556  0.39765  0.26566  1.0000
  N   N9        1.0  0.26467  0.36796  0.26747  1.0000
  H   H39       1.0  0.26239  0.40607  0.20472  1.0000
  C   C58       1.0  0.25536  0.11412  0.26575  1.0000
  N   N10       1.0  0.25604  0.14369  0.26797  1.0000
  H   H40       1.0  0.25922  0.10617  0.20489  1.0000
  C   C59       1.0  0.25105  0.26458  0.34596  1.0000
  C   C60       1.0  0.25137  0.31806  0.34516  1.0000
  C   C61       1.0  0.26892  0.30019  0.34569  1.0000
  C   C62       1.0  0.30405  0.31686  0.34596  1.0000
  C   C63       1.0  0.26877  0.24657  0.34595  1.0000
  C   C64       1.0  0.25092  0.21096  0.34607  1.0000
  C   C65       1.0  0.26849  0.19311  0.34523  1.0000
  C   C66       1.0  0.30357  0.21122  0.34486  1.0000
  C   C67       1.0  0.30439  0.26413  0.34573  1.0000
  C   C68       1.0  0.25127  0.48786  0.34583  1.0000
  C   C69       1.0  0.26881  0.46980  0.34576  1.0000
  C   C70       1.0  0.25095  0.43436  0.34536  1.0000
  C   C71       1.0  0.30395  0.48798  0.34619  1.0000
  C   C72       1.0  0.26928  0.02359  0.34585  1.0000
  C   C73       1.0  0.30489  0.04135  0.34573  1.0000
  C   C74       1.0  0.30462  0.09374  0.34500  1.0000
  C   C75       1.0  0.26955  0.07707  0.34521  1.0000
  C   C76       1.0  0.25172  0.04164  0.34593  1.0000
  C   C77       1.0  0.26455  0.39699  0.42798  1.0000
  C   C78       1.0  0.26533  0.41362  0.34681  1.0000
  C   C79       1.0  0.26602  0.35304  0.34507  1.0000
  N   N11       1.0  0.26394  0.36731  0.42317  1.0000
  O   O5        1.0  0.26023  0.40928  0.50846  1.0000
  C   C80       1.0  0.25958  0.39278  0.59119  1.0000
  H   H41       1.0  0.25669  0.40637  0.64716  1.0000
  H   H42       1.0  0.28277  0.39252  0.60070  1.0000
  C   C81       1.0  0.25513  0.11396  0.42793  1.0000
  C   C82       1.0  0.25510  0.09774  0.34665  1.0000
  C   C83       1.0  0.25390  0.15813  0.34565  1.0000
  N   N12       1.0  0.25552  0.14354  0.42356  1.0000
  O   O6        1.0  0.25902  0.10133  0.50835  1.0000
  C   C84       1.0  0.26044  0.11814  0.59113  1.0000
  H   H43       1.0  0.28181  0.14334  0.59154  1.0000
  H   H44       1.0  0.26313  0.10436  0.64696  1.0000
  C   C85       1.0  0.26556  0.89765  0.26566  1.0000
  N   N13       1.0  0.26467  0.86796  0.26747  1.0000
  H   H45       1.0  0.26239  0.90607  0.20472  1.0000
  C   C86       1.0  0.25536  0.61412  0.26575  1.0000
  N   N14       1.0  0.25604  0.64369  0.26797  1.0000
  H   H46       1.0  0.25922  0.60617  0.20489  1.0000
  C   C87       1.0  0.25105  0.76458  0.34596  1.0000
  C   C88       1.0  0.25137  0.81806  0.34516  1.0000
  C   C89       1.0  0.26892  0.80019  0.34569  1.0000
  C   C90       1.0  0.30404  0.81686  0.34596  1.0000
  C   C91       1.0  0.26877  0.74657  0.34595  1.0000
  C   C92       1.0  0.25092  0.71096  0.34607  1.0000
  C   C93       1.0  0.26849  0.69311  0.34523  1.0000
  C   C94       1.0  0.30357  0.71122  0.34486  1.0000
  C   C95       1.0  0.30439  0.76413  0.34573  1.0000
  C   C96       1.0  0.25127  0.98786  0.34583  1.0000
  C   C97       1.0  0.26881  0.96980  0.34576  1.0000
  C   C98       1.0  0.25095  0.93436  0.34536  1.0000
  C   C99       1.0  0.30395  0.98798  0.34619  1.0000
  C   C100      1.0  0.26928  0.52359  0.34585  1.0000
  C   C101      1.0  0.30489  0.54135  0.34573  1.0000
  C   C102      1.0  0.30462  0.59374  0.34500  1.0000
  C   C103      1.0  0.26955  0.57707  0.34521  1.0000
  C   C104      1.0  0.25171  0.54164  0.34593  1.0000
  C   C105      1.0  0.26455  0.89699  0.42798  1.0000
  C   C106      1.0  0.26533  0.91362  0.34681  1.0000
  C   C107      1.0  0.26602  0.85304  0.34507  1.0000
  N   N15       1.0  0.26394  0.86731  0.42317  1.0000
  O   O7        1.0  0.26023  0.90928  0.50846  1.0000
  C   C108      1.0  0.25958  0.89278  0.59119  1.0000
  H   H47       1.0  0.25669  0.90637  0.64716  1.0000
  H   H48       1.0  0.28277  0.89252  0.60070  1.0000
  C   C109      1.0  0.25513  0.61396  0.42793  1.0000
  C   C110      1.0  0.25510  0.59774  0.34665  1.0000
  C   C111      1.0  0.25390  0.65813  0.34565  1.0000
  N   N16       1.0  0.25552  0.64354  0.42356  1.0000
  O   O8        1.0  0.25902  0.60133  0.50835  1.0000
  C   C112      1.0  0.26044  0.61814  0.59113  1.0000
  H   H49       1.0  0.28181  0.64334  0.59154  1.0000
  H   H50       1.0  0.26313  0.60436  0.64696  1.0000
  C   C113      1.0  0.49221  0.24713  0.34583  1.0000
  C   C114      1.0  0.47445  0.26498  0.34591  1.0000
  C   C115      1.0  0.43903  0.24740  0.34536  1.0000
  C   C116      1.0  0.42207  0.21233  0.34517  1.0000
  C   C117      1.0  0.43874  0.19392  0.34527  1.0000
  C   C118      1.0  0.47417  0.21152  0.34575  1.0000
  C   C119      1.0  0.49292  0.30011  0.34644  1.0000
  H   H51       1.0  0.39649  0.19962  0.34518  1.0000
  C   C120      1.0  0.49234  0.19456  0.34613  1.0000
  H   H52       1.0  0.48113  0.31374  0.34659  1.0000
  H   H53       1.0  0.48034  0.16913  0.34616  1.0000
  C   C121      1.0  0.37335  0.26071  0.26546  1.0000
  N   N17       1.0  0.40230  0.26014  0.26770  1.0000
  H   H54       1.0  0.36171  0.25720  0.20447  1.0000
  C   C122      1.0  0.40202  0.14252  0.26557  1.0000
  N   N18       1.0  0.37248  0.11358  0.26765  1.0000
  H   H55       1.0  0.41027  0.15412  0.20459  1.0000
  C   C123      1.0  0.32198  0.24630  0.34505  1.0000
  H   H56       1.0  0.31627  0.19834  0.34482  1.0000
  C   C124      1.0  0.32135  0.29926  0.34604  1.0000
  H   H57       1.0  0.34677  0.31269  0.34596  1.0000
  H   H58       1.0  0.31768  0.34227  0.34590  1.0000
  C   C125      1.0  0.32273  0.07677  0.34523  1.0000
  C   C126      1.0  0.32155  0.02288  0.34611  1.0000
  H   H59       1.0  0.31749  0.11932  0.34498  1.0000
  H   H60       1.0  0.34697  0.03467  0.34617  1.0000
  H   H61       1.0  0.31737  0.47597  0.34625  1.0000
  C   C127      1.0  0.37310  0.26044  0.42774  1.0000
  C   C128      1.0  0.35710  0.26073  0.34628  1.0000
  C   C129      1.0  0.41863  0.26200  0.34560  1.0000
  N   N19       1.0  0.40232  0.26011  0.42353  1.0000
  O   O9        1.0  0.35650  0.25644  0.50811  1.0000
  C   C130      1.0  0.37198  0.25528  0.59100  1.0000
  H   H62       1.0  0.37602  0.23404  0.59169  1.0000
  H   H63       1.0  0.35546  0.25252  0.64675  1.0000
  H   H64       1.0  0.39562  0.27824  0.60105  1.0000
  C   C131      1.0  0.40161  0.14284  0.42777  1.0000
  C   C132      1.0  0.41808  0.15880  0.34652  1.0000
  C   C133      1.0  0.35769  0.09716  0.34523  1.0000
  N   N20       1.0  0.37206  0.11363  0.42313  1.0000
  O   O10       1.0  0.41395  0.15946  0.50823  1.0000
  C   C134      1.0  0.39747  0.14367  0.59102  1.0000
  H   H65       1.0  0.37204  0.13920  0.59191  1.0000
  H   H66       1.0  0.41107  0.16020  0.64691  1.0000
  H   H67       1.0  0.39722  0.12023  0.60067  1.0000
  C   C135      1.0  0.49221  0.74713  0.34583  1.0000
  C   C136      1.0  0.47445  0.76498  0.34591  1.0000
  C   C137      1.0  0.43903  0.74740  0.34536  1.0000
  C   C138      1.0  0.42207  0.71233  0.34517  1.0000
  C   C139      1.0  0.43874  0.69392  0.34527  1.0000
  C   C140      1.0  0.47417  0.71152  0.34575  1.0000
  C   C141      1.0  0.49292  0.80011  0.34644  1.0000
  H   H68       1.0  0.39649  0.69962  0.34518  1.0000
  C   C142      1.0  0.49234  0.69456  0.34613  1.0000
  H   H69       1.0  0.48113  0.81374  0.34659  1.0000
  H   H70       1.0  0.48034  0.66913  0.34616  1.0000
  C   C143      1.0  0.37335  0.76071  0.26546  1.0000
  N   N21       1.0  0.40230  0.76014  0.26770  1.0000
  H   H71       1.0  0.36171  0.75720  0.20447  1.0000
  C   C144      1.0  0.40202  0.64252  0.26557  1.0000
  N   N22       1.0  0.37248  0.61359  0.26765  1.0000
  H   H72       1.0  0.41027  0.65412  0.20459  1.0000
  C   C145      1.0  0.32198  0.74630  0.34505  1.0000
  H   H73       1.0  0.31627  0.69834  0.34482  1.0000
  C   C146      1.0  0.32135  0.79926  0.34604  1.0000
  H   H74       1.0  0.34677  0.81269  0.34596  1.0000
  H   H75       1.0  0.31768  0.84228  0.34590  1.0000
  C   C147      1.0  0.32273  0.57677  0.34523  1.0000
  C   C148      1.0  0.32155  0.52288  0.34611  1.0000
  H   H76       1.0  0.31749  0.61932  0.34498  1.0000
  H   H77       1.0  0.34697  0.53467  0.34617  1.0000
  H   H78       1.0  0.31737  0.97597  0.34625  1.0000
  C   C149      1.0  0.37309  0.76044  0.42774  1.0000
  C   C150      1.0  0.35710  0.76073  0.34628  1.0000
  C   C151      1.0  0.41864  0.76200  0.34560  1.0000
  N   N23       1.0  0.40232  0.76011  0.42353  1.0000
  O   O11       1.0  0.35650  0.75644  0.50811  1.0000
  C   C152      1.0  0.37199  0.75528  0.59100  1.0000
  H   H79       1.0  0.37602  0.73404  0.59169  1.0000
  H   H80       1.0  0.35546  0.75252  0.64675  1.0000
  H   H81       1.0  0.39562  0.77824  0.60105  1.0000
  C   C153      1.0  0.40161  0.64284  0.42777  1.0000
  C   C154      1.0  0.41808  0.65881  0.34652  1.0000
  C   C155      1.0  0.35769  0.59716  0.34523  1.0000
  N   N24       1.0  0.37206  0.61363  0.42313  1.0000
  O   O12       1.0  0.41395  0.65946  0.50823  1.0000
  C   C156      1.0  0.39747  0.64367  0.59102  1.0000
  H   H82       1.0  0.37204  0.63920  0.59191  1.0000
  H   H83       1.0  0.41107  0.66020  0.64691  1.0000
  H   H84       1.0  0.39722  0.62023  0.60067  1.0000
  C   C157      1.0  0.52795  0.26485  0.34579  1.0000
  C   C158      1.0  0.54601  0.30046  0.34586  1.0000
  C   C159      1.0  0.58144  0.31803  0.34512  1.0000
  C   C160      1.0  0.59809  0.29960  0.34496  1.0000
  C   C161      1.0  0.58111  0.26453  0.34501  1.0000
  C   C162      1.0  0.54569  0.24698  0.34567  1.0000
  C   C163      1.0  0.52782  0.31741  0.34646  1.0000
  C   C164      1.0  0.52723  0.21186  0.34606  1.0000
  H   H85       1.0  0.62367  0.31228  0.34509  1.0000
  C   C165      1.0  0.99222  0.24713  0.34583  1.0000
  C   C166      1.0  0.97445  0.26498  0.34591  1.0000
  C   C167      1.0  0.93903  0.24740  0.34536  1.0000
  C   C168      1.0  0.92207  0.21233  0.34517  1.0000
  C   C169      1.0  0.93874  0.19392  0.34527  1.0000
  C   C170      1.0  0.97417  0.21152  0.34575  1.0000
  C   C171      1.0  0.99292  0.30011  0.34644  1.0000
  H   H86       1.0  0.89649  0.19962  0.34518  1.0000
  C   C172      1.0  0.99234  0.19456  0.34613  1.0000
  H   H87       1.0  0.98113  0.31374  0.34659  1.0000
  H   H88       1.0  0.53983  0.34284  0.34656  1.0000
  H   H89       1.0  0.98034  0.16913  0.34616  1.0000
  H   H90       1.0  0.53902  0.19822  0.34605  1.0000
  C   C173      1.0  0.64667  0.25078  0.26591  1.0000
  N   N25       1.0  0.61791  0.25173  0.26797  1.0000
  H   H91       1.0  0.65843  0.25446  0.20505  1.0000
  C   C174      1.0  0.76556  0.39765  0.26566  1.0000
  N   N26       1.0  0.76467  0.36796  0.26747  1.0000
  H   H92       1.0  0.76239  0.40607  0.20472  1.0000
  C   C175      1.0  0.61850  0.36919  0.26583  1.0000
  N   N27       1.0  0.64822  0.39793  0.26800  1.0000
  H   H93       1.0  0.61044  0.35743  0.20497  1.0000
  C   C176      1.0  0.87335  0.26071  0.26546  1.0000
  N   N28       1.0  0.90230  0.26014  0.26770  1.0000
  H   H94       1.0  0.86171  0.25720  0.20447  1.0000
  C   C177      1.0  0.75537  0.11412  0.26575  1.0000
  N   N29       1.0  0.75604  0.14369  0.26797  1.0000
  H   H95       1.0  0.75922  0.10617  0.20489  1.0000
  C   C178      1.0  0.90202  0.14252  0.26557  1.0000
  N   N30       1.0  0.87247  0.11358  0.26765  1.0000
  H   H96       1.0  0.91027  0.15412  0.20459  1.0000
  C   C179      1.0  0.75105  0.26458  0.34596  1.0000
  C   C180      1.0  0.71544  0.24703  0.34614  1.0000
  C   C181      1.0  0.69786  0.26490  0.34537  1.0000
  C   C182      1.0  0.71630  0.29998  0.34502  1.0000
  C   C183      1.0  0.75137  0.31806  0.34516  1.0000
  C   C184      1.0  0.76892  0.30019  0.34569  1.0000
  C   C185      1.0  0.69849  0.21190  0.34683  1.0000
  C   C186      1.0  0.80404  0.31686  0.34596  1.0000
  H   H97       1.0  0.70362  0.31288  0.34494  1.0000
  C   C187      1.0  0.76877  0.24657  0.34595  1.0000
  C   C188      1.0  0.75092  0.21096  0.34607  1.0000
  C   C189      1.0  0.76849  0.19311  0.34523  1.0000
  C   C190      1.0  0.80357  0.21122  0.34486  1.0000
  C   C191      1.0  0.82198  0.24630  0.34505  1.0000
  C   C192      1.0  0.80438  0.26413  0.34573  1.0000
  C   C193      1.0  0.71579  0.19430  0.34675  1.0000
  H   H98       1.0  0.81627  0.19834  0.34482  1.0000
  C   C194      1.0  0.82135  0.29926  0.34604  1.0000
  H   H99       1.0  0.70216  0.16888  0.34691  1.0000
  H   H100      1.0  0.67306  0.19847  0.34700  1.0000
  H   H101      1.0  0.84677  0.31269  0.34596  1.0000
  H   H102      1.0  0.81768  0.34227  0.34590  1.0000
  C   C195      1.0  0.75127  0.48786  0.34583  1.0000
  C   C196      1.0  0.76881  0.46980  0.34576  1.0000
  C   C197      1.0  0.75095  0.43436  0.34536  1.0000
  C   C198      1.0  0.71587  0.41772  0.34515  1.0000
  C   C199      1.0  0.69779  0.43470  0.34518  1.0000
  C   C200      1.0  0.71566  0.47012  0.34586  1.0000
  C   C201      1.0  0.80395  0.48798  0.34619  1.0000
  C   C202      1.0  0.69899  0.48858  0.34638  1.0000
  H   H103      1.0  0.70296  0.39213  0.34522  1.0000
  C   C203      1.0  0.76928  0.02359  0.34585  1.0000
  C   C204      1.0  0.80489  0.04135  0.34573  1.0000
  C   C205      1.0  0.82273  0.07677  0.34523  1.0000
  C   C206      1.0  0.80462  0.09374  0.34500  1.0000
  C   C207      1.0  0.76955  0.07707  0.34521  1.0000
  C   C208      1.0  0.75171  0.04164  0.34593  1.0000
  C   C209      1.0  0.82155  0.02288  0.34611  1.0000
  H   H104      1.0  0.81750  0.11932  0.34498  1.0000
  C   C210      1.0  0.71658  0.02347  0.34647  1.0000
  H   H105      1.0  0.84697  0.03467  0.34617  1.0000
  H   H106      1.0  0.81737  0.47597  0.34625  1.0000
  H   H107      1.0  0.70315  0.03547  0.34654  1.0000
  H   H108      1.0  0.67357  0.47680  0.34646  1.0000
  C   C211      1.0  0.64666  0.25082  0.42808  1.0000
  C   C212      1.0  0.66275  0.25051  0.34687  1.0000
  C   C213      1.0  0.60144  0.24988  0.34563  1.0000
  N   N31       1.0  0.61761  0.25147  0.42359  1.0000
  O   O13       1.0  0.66317  0.25475  0.50855  1.0000
  C   C214      1.0  0.64770  0.25609  0.59128  1.0000
  H   H109      1.0  0.64386  0.27746  0.59174  1.0000
  H   H110      1.0  0.66412  0.25874  0.64718  1.0000
  H   H111      1.0  0.62395  0.23325  0.60130  1.0000
  C   C215      1.0  0.76455  0.39699  0.42798  1.0000
  C   C216      1.0  0.76533  0.41362  0.34681  1.0000
  C   C217      1.0  0.76602  0.35304  0.34507  1.0000
  N   N32       1.0  0.76394  0.36731  0.42317  1.0000
  O   O14       1.0  0.76023  0.40928  0.50846  1.0000
  C   C218      1.0  0.75958  0.39278  0.59119  1.0000
  H   H112      1.0  0.73861  0.36735  0.59211  1.0000
  H   H113      1.0  0.75669  0.40637  0.64716  1.0000
  H   H114      1.0  0.78277  0.39252  0.60070  1.0000
  C   C219      1.0  0.61849  0.36920  0.42813  1.0000
  C   C220      1.0  0.60216  0.35314  0.34685  1.0000
  C   C221      1.0  0.66281  0.41439  0.34570  1.0000
  N   N33       1.0  0.64821  0.39823  0.42366  1.0000
  O   O15       1.0  0.60587  0.35267  0.50853  1.0000
  C   C222      1.0  0.62271  0.36807  0.59129  1.0000
  H   H115      1.0  0.64789  0.37183  0.59169  1.0000
  H   H116      1.0  0.60891  0.35164  0.64715  1.0000
  H   H117      1.0  0.62368  0.39184  0.60142  1.0000
  C   C223      1.0  0.87309  0.26044  0.42774  1.0000
  C   C224      1.0  0.85710  0.26073  0.34628  1.0000
  C   C225      1.0  0.91863  0.26200  0.34560  1.0000
  N   N34       1.0  0.90232  0.26011  0.42353  1.0000
  O   O16       1.0  0.85650  0.25644  0.50811  1.0000
  C   C226      1.0  0.87198  0.25528  0.59100  1.0000
  H   H118      1.0  0.87602  0.23404  0.59169  1.0000
  H   H119      1.0  0.85547  0.25252  0.64675  1.0000
  H   H120      1.0  0.89562  0.27824  0.60105  1.0000
  C   C227      1.0  0.75513  0.11396  0.42793  1.0000
  C   C228      1.0  0.75510  0.09774  0.34665  1.0000
  C   C229      1.0  0.75391  0.15813  0.34565  1.0000
  N   N35       1.0  0.75552  0.14354  0.42356  1.0000
  O   O17       1.0  0.75902  0.10133  0.50835  1.0000
  C   C230      1.0  0.76044  0.11814  0.59113  1.0000
  H   H121      1.0  0.78181  0.14334  0.59154  1.0000
  H   H122      1.0  0.76313  0.10436  0.64696  1.0000
  H   H123      1.0  0.73761  0.11904  0.60134  1.0000
  C   C231      1.0  0.90161  0.14284  0.42777  1.0000
  C   C232      1.0  0.91808  0.15880  0.34652  1.0000
  C   C233      1.0  0.85769  0.09716  0.34523  1.0000
  N   N36       1.0  0.87206  0.11363  0.42313  1.0000
  O   O18       1.0  0.91395  0.15946  0.50823  1.0000
  C   C234      1.0  0.89747  0.14367  0.59102  1.0000
  H   H124      1.0  0.87204  0.13920  0.59191  1.0000
  H   H125      1.0  0.91107  0.16020  0.64691  1.0000
  H   H126      1.0  0.89723  0.12023  0.60067  1.0000
  C   C235      1.0  0.52794  0.76485  0.34579  1.0000
  C   C236      1.0  0.54600  0.80046  0.34586  1.0000
  C   C237      1.0  0.58144  0.81803  0.34512  1.0000
  C   C238      1.0  0.59809  0.79960  0.34496  1.0000
  C   C239      1.0  0.58111  0.76453  0.34501  1.0000
  C   C240      1.0  0.54569  0.74698  0.34567  1.0000
  C   C241      1.0  0.52782  0.81741  0.34646  1.0000
  C   C242      1.0  0.52723  0.71186  0.34606  1.0000
  H   H127      1.0  0.62367  0.81228  0.34509  1.0000
  C   C243      1.0  0.99221  0.74713  0.34583  1.0000
  C   C244      1.0  0.97445  0.76498  0.34591  1.0000
  C   C245      1.0  0.93903  0.74740  0.34536  1.0000
  C   C246      1.0  0.92207  0.71233  0.34517  1.0000
  C   C247      1.0  0.93874  0.69392  0.34527  1.0000
  C   C248      1.0  0.97417  0.71152  0.34575  1.0000
  C   C249      1.0  0.99292  0.80011  0.34644  1.0000
  H   H128      1.0  0.89649  0.69962  0.34518  1.0000
  C   C250      1.0  0.99234  0.69456  0.34613  1.0000
  H   H129      1.0  0.98113  0.81374  0.34659  1.0000
  H   H130      1.0  0.53983  0.84284  0.34656  1.0000
  H   H131      1.0  0.98034  0.66913  0.34616  1.0000
  H   H132      1.0  0.53902  0.69822  0.34605  1.0000
  C   C251      1.0  0.64667  0.75078  0.26591  1.0000
  N   N37       1.0  0.61791  0.75173  0.26797  1.0000
  H   H133      1.0  0.65843  0.75446  0.20505  1.0000
  C   C252      1.0  0.76557  0.89765  0.26566  1.0000
  N   N38       1.0  0.76467  0.86796  0.26747  1.0000
  H   H134      1.0  0.76239  0.90607  0.20472  1.0000
  C   C253      1.0  0.61850  0.86919  0.26583  1.0000
  N   N39       1.0  0.64822  0.89793  0.26800  1.0000
  H   H135      1.0  0.61044  0.85743  0.20497  1.0000
  C   C254      1.0  0.87335  0.76071  0.26546  1.0000
  N   N40       1.0  0.90230  0.76014  0.26770  1.0000
  H   H136      1.0  0.86171  0.75720  0.20447  1.0000
  C   C255      1.0  0.75536  0.61412  0.26575  1.0000
  N   N41       1.0  0.75604  0.64369  0.26797  1.0000
  H   H137      1.0  0.75922  0.60617  0.20489  1.0000
  C   C256      1.0  0.90202  0.64252  0.26557  1.0000
  N   N42       1.0  0.87248  0.61359  0.26765  1.0000
  H   H138      1.0  0.91027  0.65412  0.20459  1.0000
  C   C257      1.0  0.75105  0.76458  0.34596  1.0000
  C   C258      1.0  0.71544  0.74703  0.34614  1.0000
  C   C259      1.0  0.69786  0.76489  0.34537  1.0000
  C   C260      1.0  0.71630  0.79998  0.34502  1.0000
  C   C261      1.0  0.75137  0.81806  0.34516  1.0000
  C   C262      1.0  0.76892  0.80019  0.34569  1.0000
  C   C263      1.0  0.69849  0.71190  0.34683  1.0000
  C   C264      1.0  0.80405  0.81686  0.34596  1.0000
  H   H139      1.0  0.70362  0.81288  0.34494  1.0000
  C   C265      1.0  0.76877  0.74657  0.34595  1.0000
  C   C266      1.0  0.75092  0.71096  0.34607  1.0000
  C   C267      1.0  0.76849  0.69311  0.34523  1.0000
  C   C268      1.0  0.80357  0.71122  0.34486  1.0000
  C   C269      1.0  0.82198  0.74630  0.34505  1.0000
  C   C270      1.0  0.80439  0.76413  0.34573  1.0000
  C   C271      1.0  0.71579  0.69430  0.34675  1.0000
  H   H140      1.0  0.81627  0.69834  0.34482  1.0000
  C   C272      1.0  0.82135  0.79926  0.34604  1.0000
  H   H141      1.0  0.70216  0.66888  0.34691  1.0000
  H   H142      1.0  0.67306  0.69847  0.34700  1.0000
  H   H143      1.0  0.84677  0.81269  0.34596  1.0000
  H   H144      1.0  0.81768  0.84228  0.34590  1.0000
  C   C273      1.0  0.75127  0.98786  0.34583  1.0000
  C   C274      1.0  0.76881  0.96980  0.34576  1.0000
  C   C275      1.0  0.75095  0.93436  0.34536  1.0000
  C   C276      1.0  0.71587  0.91772  0.34515  1.0000
  C   C277      1.0  0.69779  0.93470  0.34518  1.0000
  C   C278      1.0  0.71566  0.97012  0.34586  1.0000
  C   C279      1.0  0.80395  0.98798  0.34619  1.0000
  C   C280      1.0  0.69899  0.98858  0.34638  1.0000
  H   H145      1.0  0.70296  0.89214  0.34522  1.0000
  C   C281      1.0  0.76928  0.52359  0.34585  1.0000
  C   C282      1.0  0.80489  0.54135  0.34573  1.0000
  C   C283      1.0  0.82273  0.57677  0.34523  1.0000
  C   C284      1.0  0.80462  0.59374  0.34500  1.0000
  C   C285      1.0  0.76954  0.57707  0.34521  1.0000
  C   C286      1.0  0.75171  0.54164  0.34593  1.0000
  C   C287      1.0  0.82155  0.52288  0.34611  1.0000
  H   H146      1.0  0.81749  0.61932  0.34498  1.0000
  C   C288      1.0  0.71658  0.52347  0.34647  1.0000
  H   H147      1.0  0.84697  0.53467  0.34617  1.0000
  H   H148      1.0  0.81737  0.97597  0.34625  1.0000
  H   H149      1.0  0.70315  0.53547  0.34654  1.0000
  H   H150      1.0  0.67357  0.97680  0.34646  1.0000
  C   C289      1.0  0.64666  0.75082  0.42808  1.0000
  C   C290      1.0  0.66275  0.75051  0.34687  1.0000
  C   C291      1.0  0.60144  0.74988  0.34563  1.0000
  N   N43       1.0  0.61761  0.75148  0.42359  1.0000
  O   O19       1.0  0.66316  0.75475  0.50855  1.0000
  C   C292      1.0  0.64769  0.75609  0.59128  1.0000
  H   H151      1.0  0.64386  0.77746  0.59174  1.0000
  H   H152      1.0  0.66412  0.75874  0.64718  1.0000
  H   H153      1.0  0.62395  0.73325  0.60130  1.0000
  C   C293      1.0  0.76455  0.89699  0.42798  1.0000
  C   C294      1.0  0.76533  0.91362  0.34681  1.0000
  C   C295      1.0  0.76602  0.85304  0.34507  1.0000
  N   N44       1.0  0.76394  0.86731  0.42317  1.0000
  O   O20       1.0  0.76024  0.90928  0.50846  1.0000
  C   C296      1.0  0.75958  0.89278  0.59119  1.0000
  H   H154      1.0  0.73860  0.86735  0.59211  1.0000
  H   H155      1.0  0.75669  0.90637  0.64716  1.0000
  H   H156      1.0  0.78277  0.89252  0.60070  1.0000
  C   C297      1.0  0.61849  0.86920  0.42813  1.0000
  C   C298      1.0  0.60216  0.85314  0.34685  1.0000
  C   C299      1.0  0.66281  0.91439  0.34570  1.0000
  N   N45       1.0  0.64821  0.89823  0.42366  1.0000
  O   O21       1.0  0.60587  0.85267  0.50853  1.0000
  C   C300      1.0  0.62271  0.86807  0.59129  1.0000
  H   H157      1.0  0.64788  0.87183  0.59169  1.0000
  H   H158      1.0  0.60891  0.85164  0.64715  1.0000
  H   H159      1.0  0.62368  0.89184  0.60142  1.0000
  C   C301      1.0  0.87309  0.76044  0.42774  1.0000
  C   C302      1.0  0.85710  0.76073  0.34628  1.0000
  C   C303      1.0  0.91864  0.76200  0.34560  1.0000
  N   N46       1.0  0.90232  0.76011  0.42353  1.0000
  O   O22       1.0  0.85650  0.75644  0.50811  1.0000
  C   C304      1.0  0.87198  0.75528  0.59100  1.0000
  H   H160      1.0  0.87602  0.73404  0.59169  1.0000
  H   H161      1.0  0.85546  0.75252  0.64675  1.0000
  H   H162      1.0  0.89562  0.77824  0.60105  1.0000
  C   C305      1.0  0.75513  0.61396  0.42793  1.0000
  C   C306      1.0  0.75510  0.59774  0.34665  1.0000
  C   C307      1.0  0.75390  0.65813  0.34565  1.0000
  N   N47       1.0  0.75552  0.64354  0.42356  1.0000
  O   O23       1.0  0.75902  0.60133  0.50835  1.0000
  C   C308      1.0  0.76044  0.61814  0.59113  1.0000
  H   H163      1.0  0.78182  0.64334  0.59154  1.0000
  H   H164      1.0  0.76313  0.60436  0.64696  1.0000
  H   H165      1.0  0.73761  0.61904  0.60134  1.0000
  C   C309      1.0  0.90161  0.64284  0.42777  1.0000
  C   C310      1.0  0.91808  0.65881  0.34652  1.0000
  C   C311      1.0  0.85769  0.59716  0.34523  1.0000
  N   N48       1.0  0.87206  0.61363  0.42313  1.0000
  O   O24       1.0  0.91395  0.65946  0.50823  1.0000
  C   C312      1.0  0.89747  0.64367  0.59102  1.0000
  H   H166      1.0  0.87204  0.63920  0.59191  1.0000
  H   H167      1.0  0.91107  0.66020  0.64691  1.0000
  H   H168      1.0  0.89722  0.62023  0.60067  1.0000
