data_image0
_chemical_formula_structural       C7H4C4NC2NHOC6H2C18H12C2H2CH3NC2NHOCH3C7H4C4NC2NHOC6H2C18H12C2H2CH3NC2NHOCH3C7H4C4NC2NHOC6H2C18H12C2H2CH3NC2NHOCH3C7H4C4NC2NHOC6H2C18H12C2H2CH3NC2NHOCH3C7H4C4NC2NHOC6H2C18H12C2H2CH3NC2NHOCH3C7H4C4NC2NHOC6H2C18H12C2H2CH3NC2NHOCH3C7H4C4NC2NHOC6H2C18H12C2H2CH3NC2NHOCH3C7H4C4NC2NHOC6H2C18H12C2H2CH3NC2NHOCH3C7H4C4NC2NHOC6H2C18H12C2H2CH3NC2NHOCH3
_chemical_formula_sum              "C387 H252 N36 O18"
_cell_length_a       36.4033
_cell_length_b       36.4038
_cell_length_c       15.0867
_cell_angle_alpha    90
_cell_angle_beta     90
_cell_angle_gamma    90.0698

_space_group_name_H-M_alt    "P 1"
_space_group_IT_number       1

loop_
  _space_group_symop_operation_xyz
  'x, y, z'

loop_
  _atom_site_type_symbol
  _atom_site_label
  _atom_site_symmetry_multiplicity
  _atom_site_fract_x
  _atom_site_fract_y
  _atom_site_fract_z
  _atom_site_occupancy
  C   C1        1.0  0.07483  0.03950  0.03261  1.0000
  C   C2        1.0  0.08974  0.34111  0.07218  1.0000
  C   C3        1.0  0.07173  0.30705  0.06152  1.0000
  C   C4        1.0  0.28957  0.30381  0.00170  1.0000
  C   C5        1.0  0.26243  0.30671  0.06723  1.0000
  C   C6        1.0  0.24444  0.00733  0.07941  1.0000
  C   C7        1.0  0.25926  0.03922  0.04012  1.0000
  H   H1        1.0  0.08827  0.06419  0.03668  1.0000
  H   H2        1.0  0.08341  0.28335  0.08485  1.0000
  H   H3        1.0  0.25095  0.28295  0.09103  1.0000
  H   H4        1.0  0.24591  0.06389  0.04524  1.0000
  C   C8        1.0  0.00442  0.19812  0.35417  1.0000
  C   C9        1.0  0.99129  0.18067  0.27618  1.0000
  C   C10       1.0  0.32418  0.14157  0.27139  1.0000
  C   C11       1.0  0.33756  0.12027  0.34252  1.0000
  N   N1        1.0  0.31037  0.12518  0.19767  1.0000
  C   C12       1.0  0.29775  0.14442  0.12738  1.0000
  C   C13       1.0  0.96662  0.18306  0.12892  1.0000
  N   N2        1.0  0.97919  0.19968  0.20398  1.0000
  H   H5        1.0  0.28765  0.13076  0.07350  1.0000
  O   O1        1.0  0.95498  0.20369  0.05857  1.0000
  C   C14       1.0  0.12827  0.00645  0.07813  1.0000
  C   C15       1.0  0.14820  0.99399  0.00319  1.0000
  C   C16       1.0  0.18693  0.99361  0.00548  1.0000
  C   C17       1.0  0.20578  0.00576  0.08242  1.0000
  C   C18       1.0  0.18579  0.01957  0.15523  1.0000
  C   C19       1.0  0.14715  0.01995  0.15302  1.0000
  H   H6        1.0  0.13294  0.03035  0.20585  1.0000
  H   H7        1.0  0.19918  0.02968  0.20971  1.0000
  C   C20       1.0  0.33536  0.23610  0.37286  1.0000
  C   C21       1.0  0.30142  0.25020  0.40270  1.0000
  C   C22       1.0  0.30038  0.28037  0.46102  1.0000
  C   C23       1.0  0.33306  0.29610  0.49580  1.0000
  C   C24       1.0  0.03338  0.28285  0.46069  1.0000
  C   C25       1.0  0.03466  0.25401  0.39935  1.0000
  C   C26       1.0  0.33247  0.99757  0.55159  1.0000
  C   C27       1.0  0.33264  0.02551  0.47675  1.0000
  C   C28       1.0  0.03265  0.03535  0.43391  1.0000
  C   C29       1.0  0.03375  0.06243  0.36814  1.0000
  C   C30       1.0  0.33465  0.08167  0.34700  1.0000
  C   C31       1.0  0.30054  0.06788  0.37664  1.0000
  C   C32       1.0  0.29969  0.03916  0.43877  1.0000
  C   C33       1.0  0.30114  0.00116  0.61753  1.0000
  C   C34       1.0  0.03076  0.33472  0.61673  1.0000
  C   C35       1.0  0.04497  0.03632  0.64108  1.0000
  C   C36       1.0  0.04320  0.30398  0.66628  1.0000
  C   C37       1.0  0.28793  0.03606  0.64510  1.0000
  H   H8        1.0  0.03573  0.05970  0.61096  1.0000
  H   H9        1.0  0.03309  0.27832  0.65376  1.0000
  H   H10       1.0  0.29965  0.27836  0.65501  1.0000
  H   H11       1.0  0.29707  0.05958  0.61536  1.0000
  H   H12       1.0  0.27469  0.03134  0.46322  1.0000
  H   H13       1.0  0.27675  0.08210  0.36510  1.0000
  H   H14       1.0  0.05887  0.07290  0.35047  1.0000
  H   H15       1.0  0.05717  0.02533  0.45595  1.0000
  H   H16       1.0  0.05778  0.29375  0.48102  1.0000
  H   H17       1.0  0.27532  0.28980  0.48115  1.0000
  H   H18       1.0  0.27741  0.23674  0.38855  1.0000
  H   H19       1.0  0.05980  0.24336  0.38287  1.0000
  C   C38       1.0  0.35045  0.13812  0.41956  1.0000
  C   C39       1.0  0.01712  0.17624  0.42524  1.0000
  H   H20       1.0  0.02561  0.18777  0.48377  1.0000
  H   H21       1.0  0.35864  0.12354  0.47424  1.0000
  C   C40       1.0  0.97853  0.20096  0.64874  1.0000
  H   H22       1.0  0.96647  0.21712  0.59545  1.0000
  H   H23       1.0  0.31428  0.17273  0.62488  1.0000
  H   H24       1.0  0.00587  0.21184  0.66299  1.0000
  N   N3        1.0  0.20493  0.98160  0.59828  1.0000
  C   C41       1.0  0.18807  0.96996  0.52348  1.0000
  C   C42       1.0  0.14954  0.97097  0.52025  1.0000
  N   N4        1.0  0.13143  0.98256  0.59364  1.0000
  H   H25       1.0  0.20318  0.96085  0.47091  1.0000
  O   O2        1.0  0.13019  0.95829  0.44899  1.0000
  C   C43       1.0  0.12993  0.98320  0.37512  1.0000
  H   H26       1.0  0.11208  0.97177  0.32406  1.0000
  H   H27       1.0  0.15741  0.31966  0.34706  1.0000
  H   H28       1.0  0.11928  0.01018  0.39369  1.0000
  C   C44       1.0  0.07483  0.37284  0.03261  1.0000
  C   C45       1.0  0.08974  0.67445  0.07218  1.0000
  C   C46       1.0  0.07173  0.64039  0.06153  1.0000
  C   C47       1.0  0.28958  0.63714  0.00171  1.0000
  C   C48       1.0  0.26243  0.64004  0.06723  1.0000
  C   C49       1.0  0.24444  0.34067  0.07942  1.0000
  C   C50       1.0  0.25926  0.37256  0.04012  1.0000
  H   H29       1.0  0.08826  0.39753  0.03667  1.0000
  H   H30       1.0  0.08341  0.61668  0.08486  1.0000
  H   H31       1.0  0.25095  0.61628  0.09103  1.0000
  H   H32       1.0  0.24591  0.39723  0.04525  1.0000
  C   C51       1.0  0.00442  0.53145  0.35417  1.0000
  C   C52       1.0  0.99129  0.51401  0.27618  1.0000
  C   C53       1.0  0.32418  0.47490  0.27139  1.0000
  C   C54       1.0  0.33756  0.45360  0.34252  1.0000
  N   N5        1.0  0.31037  0.45851  0.19767  1.0000
  C   C55       1.0  0.29775  0.47776  0.12738  1.0000
  C   C56       1.0  0.96663  0.51640  0.12892  1.0000
  N   N6        1.0  0.97919  0.53302  0.20398  1.0000
  H   H33       1.0  0.28765  0.46410  0.07350  1.0000
  O   O3        1.0  0.95498  0.53702  0.05857  1.0000
  C   C57       1.0  0.12827  0.33979  0.07813  1.0000
  C   C58       1.0  0.14820  0.32733  0.00319  1.0000
  C   C59       1.0  0.18693  0.32695  0.00548  1.0000
  C   C60       1.0  0.20578  0.33910  0.08242  1.0000
  C   C61       1.0  0.18579  0.35291  0.15523  1.0000
  C   C62       1.0  0.14715  0.35329  0.15302  1.0000
  H   H34       1.0  0.13294  0.36370  0.20586  1.0000
  H   H35       1.0  0.19918  0.36301  0.20971  1.0000
  C   C63       1.0  0.33536  0.56943  0.37287  1.0000
  C   C64       1.0  0.30142  0.58354  0.40270  1.0000
  C   C65       1.0  0.30039  0.61371  0.46102  1.0000
  C   C66       1.0  0.33306  0.62943  0.49580  1.0000
  C   C67       1.0  0.03338  0.61618  0.46069  1.0000
  C   C68       1.0  0.03467  0.58735  0.39935  1.0000
  C   C69       1.0  0.33247  0.33090  0.55160  1.0000
  C   C70       1.0  0.33264  0.35885  0.47675  1.0000
  C   C71       1.0  0.03265  0.36868  0.43391  1.0000
  C   C72       1.0  0.03375  0.39576  0.36814  1.0000
  C   C73       1.0  0.33465  0.41500  0.34700  1.0000
  C   C74       1.0  0.30054  0.40121  0.37664  1.0000
  C   C75       1.0  0.29969  0.37249  0.43877  1.0000
  C   C76       1.0  0.30114  0.33450  0.61754  1.0000
  C   C77       1.0  0.03076  0.66805  0.61674  1.0000
  C   C78       1.0  0.04497  0.36966  0.64108  1.0000
  C   C79       1.0  0.04320  0.63731  0.66629  1.0000
  C   C80       1.0  0.28793  0.36940  0.64510  1.0000
  H   H36       1.0  0.03573  0.39304  0.61096  1.0000
  H   H37       1.0  0.03309  0.61165  0.65376  1.0000
  H   H38       1.0  0.29965  0.61169  0.65501  1.0000
  H   H39       1.0  0.29707  0.39292  0.61537  1.0000
  H   H40       1.0  0.27469  0.36468  0.46322  1.0000
  H   H41       1.0  0.27675  0.41544  0.36511  1.0000
  H   H42       1.0  0.05887  0.40623  0.35046  1.0000
  H   H43       1.0  0.05717  0.35866  0.45595  1.0000
  H   H44       1.0  0.05778  0.62708  0.48103  1.0000
  H   H45       1.0  0.27532  0.62313  0.48115  1.0000
  H   H46       1.0  0.27741  0.57007  0.38856  1.0000
  H   H47       1.0  0.05980  0.57669  0.38288  1.0000
  C   C81       1.0  0.35045  0.47145  0.41956  1.0000
  C   C82       1.0  0.01712  0.50958  0.42524  1.0000
  H   H48       1.0  0.02561  0.52111  0.48377  1.0000
  H   H49       1.0  0.35864  0.45687  0.47424  1.0000
  C   C83       1.0  0.97853  0.53429  0.64874  1.0000
  H   H50       1.0  0.96648  0.55045  0.59545  1.0000
  H   H51       1.0  0.31428  0.50607  0.62488  1.0000
  H   H52       1.0  0.00588  0.54517  0.66299  1.0000
  N   N7        1.0  0.20493  0.31494  0.59828  1.0000
  C   C84       1.0  0.18806  0.30330  0.52348  1.0000
  C   C85       1.0  0.14954  0.30431  0.52025  1.0000
  N   N8        1.0  0.13143  0.31590  0.59365  1.0000
  H   H53       1.0  0.20317  0.29419  0.47092  1.0000
  O   O4        1.0  0.13019  0.29162  0.44900  1.0000
  C   C86       1.0  0.12993  0.31654  0.37512  1.0000
  H   H54       1.0  0.11207  0.30510  0.32406  1.0000
  H   H55       1.0  0.15741  0.65299  0.34706  1.0000
  H   H56       1.0  0.11928  0.34351  0.39369  1.0000
  C   C87       1.0  0.07483  0.70617  0.03261  1.0000
  C   C88       1.0  0.08974  0.00777  0.07218  1.0000
  C   C89       1.0  0.07173  0.97371  0.06151  1.0000
  C   C90       1.0  0.28957  0.97047  0.00170  1.0000
  C   C91       1.0  0.26243  0.97337  0.06722  1.0000
  C   C92       1.0  0.24444  0.67400  0.07942  1.0000
  C   C93       1.0  0.25926  0.70589  0.04012  1.0000
  H   H57       1.0  0.08827  0.73087  0.03668  1.0000
  H   H58       1.0  0.08341  0.95001  0.08484  1.0000
  H   H59       1.0  0.25095  0.94961  0.09102  1.0000
  H   H60       1.0  0.24591  0.73057  0.04524  1.0000
  C   C94       1.0  0.00443  0.86479  0.35417  1.0000
  C   C95       1.0  0.99130  0.84734  0.27617  1.0000
  C   C96       1.0  0.32418  0.80823  0.27138  1.0000
  C   C97       1.0  0.33757  0.78693  0.34252  1.0000
  N   N9        1.0  0.31037  0.79184  0.19767  1.0000
  C   C98       1.0  0.29775  0.81108  0.12738  1.0000
  C   C99       1.0  0.96663  0.84972  0.12891  1.0000
  N   N10       1.0  0.97919  0.86635  0.20397  1.0000
  H   H61       1.0  0.28765  0.79743  0.07350  1.0000
  O   O5        1.0  0.95498  0.87035  0.05856  1.0000
  C   C100      1.0  0.12827  0.67312  0.07814  1.0000
  C   C101      1.0  0.14820  0.66066  0.00320  1.0000
  C   C102      1.0  0.18693  0.66028  0.00548  1.0000
  C   C103      1.0  0.20578  0.67243  0.08242  1.0000
  C   C104      1.0  0.18579  0.68624  0.15524  1.0000
  C   C105      1.0  0.14715  0.68662  0.15303  1.0000
  H   H62       1.0  0.13294  0.69703  0.20586  1.0000
  H   H63       1.0  0.19918  0.69635  0.20971  1.0000
  C   C106      1.0  0.33536  0.90276  0.37285  1.0000
  C   C107      1.0  0.30142  0.91687  0.40269  1.0000
  C   C108      1.0  0.30039  0.94704  0.46102  1.0000
  C   C109      1.0  0.33306  0.96276  0.49579  1.0000
  C   C110      1.0  0.03338  0.94952  0.46068  1.0000
  C   C111      1.0  0.03467  0.92068  0.39934  1.0000
  C   C112      1.0  0.33247  0.66424  0.55161  1.0000
  C   C113      1.0  0.33264  0.69218  0.47676  1.0000
  C   C114      1.0  0.03265  0.70202  0.43392  1.0000
  C   C115      1.0  0.03376  0.72910  0.36815  1.0000
  C   C116      1.0  0.33465  0.74834  0.34700  1.0000
  C   C117      1.0  0.30054  0.73454  0.37664  1.0000
  C   C118      1.0  0.29969  0.70583  0.43877  1.0000
  C   C119      1.0  0.30114  0.66783  0.61754  1.0000
  C   C120      1.0  0.03076  0.00138  0.61673  1.0000
  C   C121      1.0  0.04497  0.70300  0.64108  1.0000
  C   C122      1.0  0.04320  0.97064  0.66628  1.0000
  C   C123      1.0  0.28793  0.70273  0.64511  1.0000
  H   H64       1.0  0.03573  0.72637  0.61097  1.0000
  H   H65       1.0  0.03310  0.94498  0.65375  1.0000
  H   H66       1.0  0.29966  0.94502  0.65500  1.0000
  H   H67       1.0  0.29707  0.72625  0.61536  1.0000
  H   H68       1.0  0.27469  0.69801  0.46322  1.0000
  H   H69       1.0  0.27675  0.74877  0.36510  1.0000
  H   H70       1.0  0.05887  0.73956  0.35047  1.0000
  H   H71       1.0  0.05717  0.69199  0.45595  1.0000
  H   H72       1.0  0.05778  0.96042  0.48101  1.0000
  H   H73       1.0  0.27532  0.95646  0.48115  1.0000
  H   H74       1.0  0.27741  0.90340  0.38855  1.0000
  H   H75       1.0  0.05980  0.91002  0.38286  1.0000
  C   C124      1.0  0.35045  0.80479  0.41956  1.0000
  C   C125      1.0  0.01713  0.84291  0.42523  1.0000
  H   H76       1.0  0.02561  0.85444  0.48376  1.0000
  H   H77       1.0  0.35865  0.79020  0.47423  1.0000
  C   C126      1.0  0.97852  0.86762  0.64873  1.0000
  H   H78       1.0  0.96647  0.88378  0.59544  1.0000
  H   H79       1.0  0.31428  0.83939  0.62487  1.0000
  H   H80       1.0  0.00587  0.87850  0.66297  1.0000
  N   N11       1.0  0.20493  0.64827  0.59828  1.0000
  C   C127      1.0  0.18806  0.63663  0.52348  1.0000
  C   C128      1.0  0.14954  0.63764  0.52025  1.0000
  N   N12       1.0  0.13143  0.64923  0.59365  1.0000
  H   H81       1.0  0.20317  0.62752  0.47092  1.0000
  O   O6        1.0  0.13019  0.62496  0.44901  1.0000
  C   C129      1.0  0.12993  0.64987  0.37513  1.0000
  H   H82       1.0  0.11208  0.63843  0.32407  1.0000
  H   H83       1.0  0.15741  0.98632  0.34706  1.0000
  H   H84       1.0  0.11928  0.67685  0.39370  1.0000
  C   C130      1.0  0.40817  0.03950  0.03261  1.0000
  C   C131      1.0  0.42307  0.34111  0.07218  1.0000
  C   C132      1.0  0.40506  0.30705  0.06152  1.0000
  C   C133      1.0  0.62291  0.30381  0.00170  1.0000
  C   C134      1.0  0.59576  0.30671  0.06723  1.0000
  C   C135      1.0  0.57777  0.00733  0.07941  1.0000
  C   C136      1.0  0.59260  0.03922  0.04012  1.0000
  H   H85       1.0  0.42160  0.06419  0.03668  1.0000
  H   H86       1.0  0.41674  0.28335  0.08485  1.0000
  H   H87       1.0  0.58428  0.28295  0.09103  1.0000
  H   H88       1.0  0.57924  0.06389  0.04524  1.0000
  C   C137      1.0  0.33776  0.19812  0.35417  1.0000
  C   C138      1.0  0.32462  0.18067  0.27618  1.0000
  C   C139      1.0  0.65751  0.14157  0.27139  1.0000
  C   C140      1.0  0.67089  0.12027  0.34252  1.0000
  N   N13       1.0  0.64370  0.12518  0.19767  1.0000
  C   C141      1.0  0.63108  0.14442  0.12738  1.0000
  C   C142      1.0  0.29996  0.18306  0.12892  1.0000
  N   N14       1.0  0.31252  0.19968  0.20398  1.0000
  H   H89       1.0  0.62098  0.13076  0.07350  1.0000
  O   O7        1.0  0.28832  0.20369  0.05857  1.0000
  C   C143      1.0  0.46161  0.00645  0.07813  1.0000
  C   C144      1.0  0.48153  0.99399  0.00319  1.0000
  C   C145      1.0  0.52026  0.99361  0.00548  1.0000
  C   C146      1.0  0.53912  0.00576  0.08242  1.0000
  C   C147      1.0  0.51913  0.01957  0.15523  1.0000
  C   C148      1.0  0.48049  0.01995  0.15302  1.0000
  H   H90       1.0  0.46627  0.03035  0.20585  1.0000
  H   H91       1.0  0.53251  0.02968  0.20971  1.0000
  C   C149      1.0  0.66870  0.23610  0.37286  1.0000
  C   C150      1.0  0.63475  0.25020  0.40270  1.0000
  C   C151      1.0  0.63372  0.28037  0.46102  1.0000
  C   C152      1.0  0.66639  0.29610  0.49580  1.0000
  C   C153      1.0  0.36672  0.28285  0.46069  1.0000
  C   C154      1.0  0.36800  0.25401  0.39935  1.0000
  C   C155      1.0  0.66580  0.99757  0.55159  1.0000
  C   C156      1.0  0.66597  0.02551  0.47675  1.0000
  C   C157      1.0  0.36598  0.03535  0.43391  1.0000
  C   C158      1.0  0.36709  0.06243  0.36814  1.0000
  C   C159      1.0  0.66799  0.08167  0.34700  1.0000
  C   C160      1.0  0.63387  0.06788  0.37664  1.0000
  C   C161      1.0  0.63302  0.03916  0.43877  1.0000
  C   C162      1.0  0.63448  0.00116  0.61753  1.0000
  C   C163      1.0  0.36410  0.33472  0.61673  1.0000
  C   C164      1.0  0.37830  0.03632  0.64108  1.0000
  C   C165      1.0  0.37653  0.30398  0.66628  1.0000
  C   C166      1.0  0.62126  0.03606  0.64510  1.0000
  H   H92       1.0  0.36906  0.05970  0.61096  1.0000
  H   H93       1.0  0.36643  0.27832  0.65376  1.0000
  H   H94       1.0  0.63299  0.27836  0.65501  1.0000
  H   H95       1.0  0.63041  0.05958  0.61536  1.0000
  H   H96       1.0  0.60802  0.03134  0.46322  1.0000
  H   H97       1.0  0.61008  0.08210  0.36510  1.0000
  H   H98       1.0  0.39220  0.07290  0.35047  1.0000
  H   H99       1.0  0.39050  0.02533  0.45595  1.0000
  H   H100      1.0  0.39112  0.29375  0.48102  1.0000
  H   H101      1.0  0.60865  0.28980  0.48115  1.0000
  H   H102      1.0  0.61074  0.23674  0.38855  1.0000
  H   H103      1.0  0.39314  0.24336  0.38287  1.0000
  C   C167      1.0  0.68378  0.13812  0.41956  1.0000
  C   C168      1.0  0.35046  0.17624  0.42524  1.0000
  H   H104      1.0  0.35894  0.18777  0.48377  1.0000
  H   H105      1.0  0.69198  0.12354  0.47424  1.0000
  C   C169      1.0  0.31186  0.20096  0.64874  1.0000
  H   H106      1.0  0.29981  0.21712  0.59545  1.0000
  H   H107      1.0  0.64762  0.17273  0.62488  1.0000
  H   H108      1.0  0.33921  0.21184  0.66299  1.0000
  N   N15       1.0  0.53826  0.98160  0.59828  1.0000
  C   C170      1.0  0.52140  0.96996  0.52348  1.0000
  C   C171      1.0  0.48287  0.97097  0.52025  1.0000
  N   N16       1.0  0.46477  0.98256  0.59364  1.0000
  H   H109      1.0  0.53651  0.96085  0.47091  1.0000
  O   O8        1.0  0.46352  0.95829  0.44899  1.0000
  C   C172      1.0  0.46326  0.98320  0.37512  1.0000
  H   H110      1.0  0.44541  0.97177  0.32406  1.0000
  H   H111      1.0  0.49075  0.31966  0.34706  1.0000
  H   H112      1.0  0.45262  0.01018  0.39369  1.0000
  C   C173      1.0  0.40817  0.37284  0.03261  1.0000
  C   C174      1.0  0.42308  0.67445  0.07218  1.0000
  C   C175      1.0  0.40506  0.64039  0.06153  1.0000
  C   C176      1.0  0.62291  0.63714  0.00171  1.0000
  C   C177      1.0  0.59576  0.64004  0.06723  1.0000
  C   C178      1.0  0.57777  0.34067  0.07942  1.0000
  C   C179      1.0  0.59259  0.37256  0.04012  1.0000
  H   H113      1.0  0.42160  0.39753  0.03667  1.0000
  H   H114      1.0  0.41674  0.61668  0.08486  1.0000
  H   H115      1.0  0.58428  0.61628  0.09103  1.0000
  H   H116      1.0  0.57924  0.39723  0.04525  1.0000
  C   C180      1.0  0.33776  0.53145  0.35417  1.0000
  C   C181      1.0  0.32463  0.51401  0.27618  1.0000
  C   C182      1.0  0.65751  0.47490  0.27139  1.0000
  C   C183      1.0  0.67090  0.45360  0.34252  1.0000
  N   N17       1.0  0.64370  0.45851  0.19767  1.0000
  C   C184      1.0  0.63108  0.47776  0.12738  1.0000
  C   C185      1.0  0.29996  0.51640  0.12892  1.0000
  N   N18       1.0  0.31252  0.53302  0.20398  1.0000
  H   H117      1.0  0.62098  0.46410  0.07350  1.0000
  O   O9        1.0  0.28832  0.53702  0.05857  1.0000
  C   C186      1.0  0.46161  0.33979  0.07813  1.0000
  C   C187      1.0  0.48153  0.32733  0.00319  1.0000
  C   C188      1.0  0.52026  0.32695  0.00548  1.0000
  C   C189      1.0  0.53912  0.33910  0.08242  1.0000
  C   C190      1.0  0.51912  0.35291  0.15523  1.0000
  C   C191      1.0  0.48049  0.35329  0.15302  1.0000
  H   H118      1.0  0.46627  0.36370  0.20586  1.0000
  H   H119      1.0  0.53251  0.36301  0.20971  1.0000
  C   C192      1.0  0.66870  0.56943  0.37287  1.0000
  C   C193      1.0  0.63476  0.58354  0.40270  1.0000
  C   C194      1.0  0.63372  0.61371  0.46102  1.0000
  C   C195      1.0  0.66639  0.62943  0.49580  1.0000
  C   C196      1.0  0.36672  0.61618  0.46069  1.0000
  C   C197      1.0  0.36800  0.58735  0.39935  1.0000
  C   C198      1.0  0.66580  0.33090  0.55160  1.0000
  C   C199      1.0  0.66597  0.35885  0.47675  1.0000
  C   C200      1.0  0.36598  0.36868  0.43391  1.0000
  C   C201      1.0  0.36709  0.39576  0.36814  1.0000
  C   C202      1.0  0.66798  0.41500  0.34700  1.0000
  C   C203      1.0  0.63387  0.40121  0.37664  1.0000
  C   C204      1.0  0.63302  0.37249  0.43877  1.0000
  C   C205      1.0  0.63448  0.33450  0.61754  1.0000
  C   C206      1.0  0.36410  0.66805  0.61674  1.0000
  C   C207      1.0  0.37830  0.36966  0.64108  1.0000
  C   C208      1.0  0.37653  0.63731  0.66629  1.0000
  C   C209      1.0  0.62126  0.36940  0.64510  1.0000
  H   H120      1.0  0.36906  0.39304  0.61096  1.0000
  H   H121      1.0  0.36643  0.61165  0.65376  1.0000
  H   H122      1.0  0.63299  0.61169  0.65501  1.0000
  H   H123      1.0  0.63040  0.39292  0.61537  1.0000
  H   H124      1.0  0.60802  0.36468  0.46322  1.0000
  H   H125      1.0  0.61008  0.41544  0.36511  1.0000
  H   H126      1.0  0.39220  0.40623  0.35046  1.0000
  H   H127      1.0  0.39050  0.35866  0.45595  1.0000
  H   H128      1.0  0.39112  0.62708  0.48103  1.0000
  H   H129      1.0  0.60865  0.62313  0.48115  1.0000
  H   H130      1.0  0.61074  0.57007  0.38856  1.0000
  H   H131      1.0  0.39314  0.57669  0.38288  1.0000
  C   C210      1.0  0.68378  0.47145  0.41956  1.0000
  C   C211      1.0  0.35046  0.50958  0.42524  1.0000
  H   H132      1.0  0.35894  0.52111  0.48377  1.0000
  H   H133      1.0  0.69198  0.45687  0.47424  1.0000
  C   C212      1.0  0.31186  0.53429  0.64874  1.0000
  H   H134      1.0  0.29981  0.55045  0.59545  1.0000
  H   H135      1.0  0.64762  0.50607  0.62488  1.0000
  H   H136      1.0  0.33921  0.54517  0.66299  1.0000
  N   N19       1.0  0.53826  0.31494  0.59828  1.0000
  C   C213      1.0  0.52139  0.30330  0.52348  1.0000
  C   C214      1.0  0.48287  0.30431  0.52025  1.0000
  N   N20       1.0  0.46477  0.31590  0.59365  1.0000
  H   H137      1.0  0.53651  0.29419  0.47092  1.0000
  O   O10       1.0  0.46352  0.29162  0.44900  1.0000
  C   C215      1.0  0.46326  0.31654  0.37512  1.0000
  H   H138      1.0  0.44541  0.30510  0.32406  1.0000
  H   H139      1.0  0.49075  0.65299  0.34706  1.0000
  H   H140      1.0  0.45262  0.34351  0.39369  1.0000
  C   C216      1.0  0.40816  0.70617  0.03261  1.0000
  C   C217      1.0  0.42308  0.00777  0.07218  1.0000
  C   C218      1.0  0.40507  0.97371  0.06151  1.0000
  C   C219      1.0  0.62291  0.97047  0.00170  1.0000
  C   C220      1.0  0.59576  0.97337  0.06722  1.0000
  C   C221      1.0  0.57777  0.67400  0.07942  1.0000
  C   C222      1.0  0.59259  0.70589  0.04012  1.0000
  H   H141      1.0  0.42160  0.73087  0.03668  1.0000
  H   H142      1.0  0.41674  0.95001  0.08484  1.0000
  H   H143      1.0  0.58429  0.94961  0.09102  1.0000
  H   H144      1.0  0.57924  0.73057  0.04524  1.0000
  C   C223      1.0  0.33776  0.86479  0.35417  1.0000
  C   C224      1.0  0.32463  0.84734  0.27617  1.0000
  C   C225      1.0  0.65751  0.80823  0.27138  1.0000
  C   C226      1.0  0.67090  0.78693  0.34252  1.0000
  N   N21       1.0  0.64371  0.79184  0.19767  1.0000
  C   C227      1.0  0.63108  0.81108  0.12738  1.0000
  C   C228      1.0  0.29996  0.84972  0.12891  1.0000
  N   N22       1.0  0.31252  0.86635  0.20397  1.0000
  H   H145      1.0  0.62099  0.79743  0.07350  1.0000
  O   O11       1.0  0.28831  0.87035  0.05856  1.0000
  C   C229      1.0  0.46161  0.67312  0.07814  1.0000
  C   C230      1.0  0.48153  0.66066  0.00320  1.0000
  C   C231      1.0  0.52026  0.66028  0.00548  1.0000
  C   C232      1.0  0.53911  0.67243  0.08242  1.0000
  C   C233      1.0  0.51912  0.68624  0.15524  1.0000
  C   C234      1.0  0.48049  0.68662  0.15303  1.0000
  H   H146      1.0  0.46627  0.69703  0.20586  1.0000
  H   H147      1.0  0.53251  0.69635  0.20971  1.0000
  C   C235      1.0  0.66870  0.90276  0.37285  1.0000
  C   C236      1.0  0.63476  0.91687  0.40269  1.0000
  C   C237      1.0  0.63372  0.94704  0.46102  1.0000
  C   C238      1.0  0.66639  0.96276  0.49579  1.0000
  C   C239      1.0  0.36672  0.94952  0.46068  1.0000
  C   C240      1.0  0.36800  0.92068  0.39934  1.0000
  C   C241      1.0  0.66580  0.66424  0.55161  1.0000
  C   C242      1.0  0.66597  0.69218  0.47676  1.0000
  C   C243      1.0  0.36599  0.70202  0.43392  1.0000
  C   C244      1.0  0.36709  0.72910  0.36815  1.0000
  C   C245      1.0  0.66799  0.74834  0.34700  1.0000
  C   C246      1.0  0.63388  0.73454  0.37664  1.0000
  C   C247      1.0  0.63302  0.70583  0.43877  1.0000
  C   C248      1.0  0.63448  0.66783  0.61754  1.0000
  C   C249      1.0  0.36410  0.00138  0.61673  1.0000
  C   C250      1.0  0.37830  0.70300  0.64108  1.0000
  C   C251      1.0  0.37654  0.97064  0.66628  1.0000
  C   C252      1.0  0.62126  0.70273  0.64511  1.0000
  H   H148      1.0  0.36906  0.72637  0.61097  1.0000
  H   H149      1.0  0.36643  0.94498  0.65375  1.0000
  H   H150      1.0  0.63299  0.94502  0.65500  1.0000
  H   H151      1.0  0.63040  0.72625  0.61536  1.0000
  H   H152      1.0  0.60802  0.69801  0.46322  1.0000
  H   H153      1.0  0.61008  0.74877  0.36510  1.0000
  H   H154      1.0  0.39220  0.73956  0.35047  1.0000
  H   H155      1.0  0.39051  0.69199  0.45595  1.0000
  H   H156      1.0  0.39112  0.96042  0.48101  1.0000
  H   H157      1.0  0.60865  0.95646  0.48115  1.0000
  H   H158      1.0  0.61074  0.90340  0.38855  1.0000
  H   H159      1.0  0.39314  0.91002  0.38286  1.0000
  C   C253      1.0  0.68378  0.80479  0.41956  1.0000
  C   C254      1.0  0.35046  0.84291  0.42523  1.0000
  H   H160      1.0  0.35894  0.85444  0.48376  1.0000
  H   H161      1.0  0.69198  0.79020  0.47423  1.0000
  C   C255      1.0  0.31185  0.86762  0.64873  1.0000
  H   H162      1.0  0.29980  0.88378  0.59544  1.0000
  H   H163      1.0  0.64761  0.83939  0.62487  1.0000
  H   H164      1.0  0.33920  0.87850  0.66297  1.0000
  N   N23       1.0  0.53826  0.64827  0.59828  1.0000
  C   C256      1.0  0.52140  0.63663  0.52348  1.0000
  C   C257      1.0  0.48287  0.63764  0.52025  1.0000
  N   N24       1.0  0.46477  0.64923  0.59365  1.0000
  H   H165      1.0  0.53651  0.62752  0.47092  1.0000
  O   O12       1.0  0.46352  0.62496  0.44901  1.0000
  C   C258      1.0  0.46326  0.64987  0.37513  1.0000
  H   H166      1.0  0.44541  0.63843  0.32407  1.0000
  H   H167      1.0  0.49075  0.98632  0.34706  1.0000
  H   H168      1.0  0.45262  0.67685  0.39370  1.0000
  C   C259      1.0  0.74150  0.03950  0.03261  1.0000
  C   C260      1.0  0.75641  0.34111  0.07218  1.0000
  C   C261      1.0  0.73840  0.30705  0.06152  1.0000
  C   C262      1.0  0.95624  0.30381  0.00170  1.0000
  C   C263      1.0  0.92909  0.30671  0.06723  1.0000
  C   C264      1.0  0.91110  0.00733  0.07941  1.0000
  C   C265      1.0  0.92593  0.03922  0.04012  1.0000
  H   H169      1.0  0.75493  0.06419  0.03668  1.0000
  H   H170      1.0  0.75008  0.28335  0.08485  1.0000
  H   H171      1.0  0.91762  0.28295  0.09103  1.0000
  H   H172      1.0  0.91258  0.06389  0.04524  1.0000
  C   C266      1.0  0.67109  0.19812  0.35417  1.0000
  C   C267      1.0  0.65796  0.18067  0.27618  1.0000
  C   C268      1.0  0.99084  0.14157  0.27139  1.0000
  C   C269      1.0  0.00423  0.12027  0.34252  1.0000
  N   N25       1.0  0.97704  0.12518  0.19767  1.0000
  C   C270      1.0  0.96441  0.14442  0.12738  1.0000
  C   C271      1.0  0.63329  0.18306  0.12892  1.0000
  N   N26       1.0  0.64585  0.19968  0.20398  1.0000
  H   H173      1.0  0.95432  0.13076  0.07350  1.0000
  O   O13       1.0  0.62165  0.20369  0.05857  1.0000
  C   C272      1.0  0.79494  0.00645  0.07813  1.0000
  C   C273      1.0  0.81487  0.99399  0.00319  1.0000
  C   C274      1.0  0.85359  0.99361  0.00548  1.0000
  C   C275      1.0  0.87245  0.00576  0.08242  1.0000
  C   C276      1.0  0.85246  0.01957  0.15523  1.0000
  C   C277      1.0  0.81382  0.01995  0.15302  1.0000
  H   H174      1.0  0.79961  0.03035  0.20585  1.0000
  H   H175      1.0  0.86585  0.02968  0.20971  1.0000
  C   C278      1.0  0.00203  0.23610  0.37286  1.0000
  C   C279      1.0  0.96809  0.25020  0.40270  1.0000
  C   C280      1.0  0.96705  0.28037  0.46102  1.0000
  C   C281      1.0  0.99973  0.29610  0.49580  1.0000
  C   C282      1.0  0.70005  0.28285  0.46069  1.0000
  C   C283      1.0  0.70133  0.25401  0.39935  1.0000
  C   C284      1.0  0.99914  0.99757  0.55159  1.0000
  C   C285      1.0  0.99931  0.02551  0.47675  1.0000
  C   C286      1.0  0.69932  0.03535  0.43391  1.0000
  C   C287      1.0  0.70042  0.06243  0.36814  1.0000
  C   C288      1.0  0.00132  0.08167  0.34700  1.0000
  C   C289      1.0  0.96721  0.06788  0.37664  1.0000
  C   C290      1.0  0.96635  0.03916  0.43877  1.0000
  C   C291      1.0  0.96781  0.00116  0.61753  1.0000
  C   C292      1.0  0.69743  0.33472  0.61673  1.0000
  C   C293      1.0  0.71163  0.03632  0.64108  1.0000
  C   C294      1.0  0.70987  0.30398  0.66628  1.0000
  C   C295      1.0  0.95459  0.03606  0.64510  1.0000
  H   H176      1.0  0.70239  0.05970  0.61096  1.0000
  H   H177      1.0  0.69976  0.27832  0.65376  1.0000
  H   H178      1.0  0.96632  0.27836  0.65501  1.0000
  H   H179      1.0  0.96374  0.05958  0.61536  1.0000
  H   H180      1.0  0.94136  0.03134  0.46322  1.0000
  H   H181      1.0  0.94341  0.08210  0.36510  1.0000
  H   H182      1.0  0.72554  0.07290  0.35047  1.0000
  H   H183      1.0  0.72384  0.02533  0.45595  1.0000
  H   H184      1.0  0.72445  0.29375  0.48102  1.0000
  H   H185      1.0  0.94199  0.28980  0.48115  1.0000
  H   H186      1.0  0.94408  0.23674  0.38855  1.0000
  H   H187      1.0  0.72647  0.24336  0.38287  1.0000
  C   C296      1.0  0.01712  0.13812  0.41956  1.0000
  C   C297      1.0  0.68379  0.17624  0.42524  1.0000
  H   H188      1.0  0.69227  0.18777  0.48377  1.0000
  H   H189      1.0  0.02531  0.12354  0.47424  1.0000
  C   C298      1.0  0.64519  0.20096  0.64874  1.0000
  H   H190      1.0  0.63314  0.21712  0.59545  1.0000
  H   H191      1.0  0.98095  0.17273  0.62488  1.0000
  H   H192      1.0  0.67254  0.21184  0.66299  1.0000
  N   N27       1.0  0.87160  0.98160  0.59828  1.0000
  C   C299      1.0  0.85473  0.96996  0.52348  1.0000
  C   C300      1.0  0.81621  0.97097  0.52025  1.0000
  N   N28       1.0  0.79810  0.98256  0.59364  1.0000
  H   H193      1.0  0.86984  0.96085  0.47091  1.0000
  O   O14       1.0  0.79685  0.95829  0.44899  1.0000
  C   C301      1.0  0.79660  0.98320  0.37512  1.0000
  H   H194      1.0  0.77874  0.97177  0.32406  1.0000
  H   H195      1.0  0.82408  0.31966  0.34706  1.0000
  H   H196      1.0  0.78595  0.01018  0.39369  1.0000
  C   C302      1.0  0.74150  0.37284  0.03261  1.0000
  C   C303      1.0  0.75641  0.67445  0.07218  1.0000
  C   C304      1.0  0.73840  0.64039  0.06153  1.0000
  C   C305      1.0  0.95624  0.63714  0.00171  1.0000
  C   C306      1.0  0.92909  0.64004  0.06723  1.0000
  C   C307      1.0  0.91110  0.34067  0.07942  1.0000
  C   C308      1.0  0.92593  0.37256  0.04012  1.0000
  H   H197      1.0  0.75493  0.39753  0.03667  1.0000
  H   H198      1.0  0.75008  0.61668  0.08486  1.0000
  H   H199      1.0  0.91762  0.61628  0.09103  1.0000
  H   H200      1.0  0.91258  0.39723  0.04525  1.0000
  C   C309      1.0  0.67109  0.53145  0.35417  1.0000
  C   C310      1.0  0.65796  0.51401  0.27618  1.0000
  C   C311      1.0  0.99084  0.47490  0.27139  1.0000
  C   C312      1.0  0.00423  0.45360  0.34252  1.0000
  N   N29       1.0  0.97704  0.45851  0.19767  1.0000
  C   C313      1.0  0.96441  0.47776  0.12738  1.0000
  C   C314      1.0  0.63330  0.51640  0.12892  1.0000
  N   N30       1.0  0.64585  0.53302  0.20398  1.0000
  H   H201      1.0  0.95432  0.46410  0.07350  1.0000
  O   O15       1.0  0.62165  0.53702  0.05857  1.0000
  C   C315      1.0  0.79494  0.33979  0.07813  1.0000
  C   C316      1.0  0.81486  0.32733  0.00319  1.0000
  C   C317      1.0  0.85359  0.32695  0.00548  1.0000
  C   C318      1.0  0.87245  0.33910  0.08242  1.0000
  C   C319      1.0  0.85245  0.35291  0.15523  1.0000
  C   C320      1.0  0.81382  0.35329  0.15302  1.0000
  H   H202      1.0  0.79961  0.36370  0.20586  1.0000
  H   H203      1.0  0.86584  0.36301  0.20971  1.0000
  C   C321      1.0  0.00203  0.56943  0.37287  1.0000
  C   C322      1.0  0.96809  0.58354  0.40270  1.0000
  C   C323      1.0  0.96705  0.61371  0.46102  1.0000
  C   C324      1.0  0.99973  0.62943  0.49580  1.0000
  C   C325      1.0  0.70005  0.61618  0.46069  1.0000
  C   C326      1.0  0.70133  0.58735  0.39935  1.0000
  C   C327      1.0  0.99913  0.33090  0.55160  1.0000
  C   C328      1.0  0.99931  0.35885  0.47675  1.0000
  C   C329      1.0  0.69931  0.36868  0.43391  1.0000
  C   C330      1.0  0.70042  0.39576  0.36814  1.0000
  C   C331      1.0  0.00132  0.41500  0.34700  1.0000
  C   C332      1.0  0.96720  0.40121  0.37664  1.0000
  C   C333      1.0  0.96635  0.37249  0.43877  1.0000
  C   C334      1.0  0.96781  0.33450  0.61754  1.0000
  C   C335      1.0  0.69743  0.66805  0.61674  1.0000
  C   C336      1.0  0.71163  0.36966  0.64108  1.0000
  C   C337      1.0  0.70987  0.63731  0.66629  1.0000
  C   C338      1.0  0.95459  0.36940  0.64510  1.0000
  H   H204      1.0  0.70239  0.39304  0.61096  1.0000
  H   H205      1.0  0.69976  0.61165  0.65376  1.0000
  H   H206      1.0  0.96632  0.61169  0.65501  1.0000
  H   H207      1.0  0.96374  0.39292  0.61537  1.0000
  H   H208      1.0  0.94135  0.36468  0.46322  1.0000
  H   H209      1.0  0.94341  0.41544  0.36511  1.0000
  H   H210      1.0  0.72553  0.40623  0.35046  1.0000
  H   H211      1.0  0.72384  0.35866  0.45595  1.0000
  H   H212      1.0  0.72445  0.62708  0.48103  1.0000
  H   H213      1.0  0.94198  0.62313  0.48115  1.0000
  H   H214      1.0  0.94408  0.57007  0.38856  1.0000
  H   H215      1.0  0.72647  0.57669  0.38288  1.0000
  C   C339      1.0  0.01712  0.47145  0.41956  1.0000
  C   C340      1.0  0.68379  0.50958  0.42524  1.0000
  H   H216      1.0  0.69227  0.52111  0.48377  1.0000
  H   H217      1.0  0.02531  0.45687  0.47424  1.0000
  C   C341      1.0  0.64519  0.53429  0.64874  1.0000
  H   H218      1.0  0.63314  0.55045  0.59545  1.0000
  H   H219      1.0  0.98095  0.50607  0.62488  1.0000
  H   H220      1.0  0.67254  0.54517  0.66299  1.0000
  N   N31       1.0  0.87159  0.31494  0.59828  1.0000
  C   C342      1.0  0.85473  0.30330  0.52348  1.0000
  C   C343      1.0  0.81620  0.30431  0.52025  1.0000
  N   N32       1.0  0.79810  0.31590  0.59365  1.0000
  H   H221      1.0  0.86984  0.29419  0.47092  1.0000
  O   O16       1.0  0.79685  0.29162  0.44900  1.0000
  C   C344      1.0  0.79660  0.31654  0.37512  1.0000
  H   H222      1.0  0.77874  0.30510  0.32406  1.0000
  H   H223      1.0  0.82408  0.65299  0.34706  1.0000
  H   H224      1.0  0.78595  0.34351  0.39369  1.0000
  C   C345      1.0  0.74150  0.70617  0.03261  1.0000
  C   C346      1.0  0.75641  0.00777  0.07218  1.0000
  C   C347      1.0  0.73840  0.97371  0.06151  1.0000
  C   C348      1.0  0.95624  0.97047  0.00170  1.0000
  C   C349      1.0  0.92909  0.97337  0.06722  1.0000
  C   C350      1.0  0.91110  0.67400  0.07942  1.0000
  C   C351      1.0  0.92593  0.70589  0.04012  1.0000
  H   H225      1.0  0.75493  0.73087  0.03668  1.0000
  H   H226      1.0  0.75008  0.95001  0.08484  1.0000
  H   H227      1.0  0.91762  0.94961  0.09102  1.0000
  H   H228      1.0  0.91258  0.73057  0.04524  1.0000
  C   C352      1.0  0.67109  0.86479  0.35417  1.0000
  C   C353      1.0  0.65796  0.84734  0.27617  1.0000
  C   C354      1.0  0.99084  0.80823  0.27138  1.0000
  C   C355      1.0  0.00423  0.78693  0.34252  1.0000
  N   N33       1.0  0.97704  0.79184  0.19767  1.0000
  C   C356      1.0  0.96441  0.81108  0.12738  1.0000
  C   C357      1.0  0.63329  0.84972  0.12891  1.0000
  N   N34       1.0  0.64585  0.86635  0.20397  1.0000
  H   H229      1.0  0.95432  0.79743  0.07350  1.0000
  O   O17       1.0  0.62165  0.87035  0.05856  1.0000
  C   C358      1.0  0.79494  0.67312  0.07814  1.0000
  C   C359      1.0  0.81486  0.66066  0.00320  1.0000
  C   C360      1.0  0.85359  0.66028  0.00548  1.0000
  C   C361      1.0  0.87245  0.67243  0.08242  1.0000
  C   C362      1.0  0.85246  0.68624  0.15524  1.0000
  C   C363      1.0  0.81382  0.68662  0.15303  1.0000
  H   H230      1.0  0.79961  0.69703  0.20586  1.0000
  H   H231      1.0  0.86584  0.69635  0.20971  1.0000
  C   C364      1.0  0.00203  0.90276  0.37285  1.0000
  C   C365      1.0  0.96809  0.91687  0.40269  1.0000
  C   C366      1.0  0.96705  0.94704  0.46102  1.0000
  C   C367      1.0  0.99973  0.96276  0.49579  1.0000
  C   C368      1.0  0.70005  0.94952  0.46068  1.0000
  C   C369      1.0  0.70133  0.92068  0.39934  1.0000
  C   C370      1.0  0.99913  0.66424  0.55161  1.0000
  C   C371      1.0  0.99931  0.69218  0.47676  1.0000
  C   C372      1.0  0.69932  0.70202  0.43392  1.0000
  C   C373      1.0  0.70042  0.72910  0.36815  1.0000
  C   C374      1.0  0.00132  0.74834  0.34700  1.0000
  C   C375      1.0  0.96721  0.73454  0.37664  1.0000
  C   C376      1.0  0.96636  0.70583  0.43877  1.0000
  C   C377      1.0  0.96781  0.66783  0.61754  1.0000
  C   C378      1.0  0.69743  0.00138  0.61673  1.0000
  C   C379      1.0  0.71163  0.70300  0.64108  1.0000
  C   C380      1.0  0.70987  0.97064  0.66628  1.0000
  C   C381      1.0  0.95459  0.70273  0.64511  1.0000
  H   H232      1.0  0.70239  0.72637  0.61097  1.0000
  H   H233      1.0  0.69976  0.94498  0.65375  1.0000
  H   H234      1.0  0.96632  0.94502  0.65500  1.0000
  H   H235      1.0  0.96374  0.72625  0.61536  1.0000
  H   H236      1.0  0.94135  0.69801  0.46322  1.0000
  H   H237      1.0  0.94342  0.74877  0.36510  1.0000
  H   H238      1.0  0.72554  0.73956  0.35047  1.0000
  H   H239      1.0  0.72384  0.69199  0.45595  1.0000
  H   H240      1.0  0.72445  0.96042  0.48101  1.0000
  H   H241      1.0  0.94199  0.95646  0.48115  1.0000
  H   H242      1.0  0.94408  0.90340  0.38855  1.0000
  H   H243      1.0  0.72647  0.91002  0.38286  1.0000
  C   C382      1.0  0.01712  0.80479  0.41956  1.0000
  C   C383      1.0  0.68379  0.84291  0.42523  1.0000
  H   H244      1.0  0.69228  0.85444  0.48376  1.0000
  H   H245      1.0  0.02531  0.79020  0.47423  1.0000
  C   C384      1.0  0.64519  0.86762  0.64873  1.0000
  H   H246      1.0  0.63313  0.88378  0.59544  1.0000
  H   H247      1.0  0.98094  0.83939  0.62487  1.0000
  H   H248      1.0  0.67253  0.87850  0.66297  1.0000
  N   N35       1.0  0.87159  0.64827  0.59828  1.0000
  C   C385      1.0  0.85473  0.63663  0.52348  1.0000
  C   C386      1.0  0.81621  0.63764  0.52025  1.0000
  N   N36       1.0  0.79810  0.64923  0.59365  1.0000
  H   H249      1.0  0.86984  0.62752  0.47092  1.0000
  O   O18       1.0  0.79685  0.62496  0.44901  1.0000
  C   C387      1.0  0.79659  0.64987  0.37513  1.0000
  H   H250      1.0  0.77874  0.63843  0.32407  1.0000
  H   H251      1.0  0.82408  0.98632  0.34706  1.0000
  H   H252      1.0  0.78595  0.67685  0.39370  1.0000
