data_image0
_chemical_formula_structural       C3N2HC2NCHCHCH3CHC3H2C3H2C3H2C3H2C2H2CH3C2H2CH3C2H2CH3C2H2CH3C2H2CH3C2H2CH3C4NC2NHNHC4NC2NHNHC2NCHC4NC2NHNHC4NC2NHNHC3N2HC4NC2NHNHC4NC2NHNHC4NC2NHNHC4NC2NHNHC4NC2NHNHC4NC2NHNHC18H11C24H15C18H11C24H15C24H15C24H15C24H15C24H15C24H15C24H15C24H15C24H15C4NC2NHNHC4NC2NHNHC4NC2NHNHC4NC2NHNHC4NC2NHNHC4NC2NHNHC2H2CH3C2H2CH3CHC2H2CH3C2H2CH3CHCH3C2H2CH3C2H2CH3C2H2CH3C2H2CH3C2H2CH3C2H2CH3
_chemical_formula_sum              "C450 N54 H306"
_cell_length_a       76.0101
_cell_length_b       76.0101
_cell_length_c       14.9656
_cell_angle_alpha    90
_cell_angle_beta     90
_cell_angle_gamma    120

_space_group_name_H-M_alt    "P 1"
_space_group_IT_number       1

loop_
  _space_group_symop_operation_xyz
  'x, y, z'

loop_
  _atom_site_type_symbol
  _atom_site_label
  _atom_site_symmetry_multiplicity
  _atom_site_fract_x
  _atom_site_fract_y
  _atom_site_fract_z
  _atom_site_occupancy
  C   C1        1.0  0.01922  0.80520  0.32970  1.0000
  C   C2        1.0  0.00780  0.80522  0.25461  1.0000
  C   C3        1.0  0.00731  0.81611  0.10387  1.0000
  N   N1        1.0  0.01712  0.81551  0.17864  1.0000
  N   N2        1.0  0.01814  0.82829  0.02986  1.0000
  H   H1        1.0  0.03287  0.83834  0.04812  1.0000
  C   C4        1.0  0.00836  0.19012  0.25563  1.0000
  C   C5        1.0  0.01929  0.20112  0.33262  1.0000
  N   N3        1.0  0.01810  0.18971  0.17992  1.0000
  C   C6        1.0  0.00854  0.17929  0.10510  1.0000
  H   H2        1.0  0.01686  0.17931  0.05149  1.0000
  C   C7        1.0  0.00813  0.79354  0.40450  1.0000
  H   H3        1.0  0.01559  0.79300  0.46032  1.0000
  C   C8        1.0  0.01872  0.81643  0.61948  1.0000
  H   H4        1.0  0.00337  0.80615  0.59524  1.0000
  H   H5        1.0  0.02600  0.80761  0.63713  1.0000
  H   H6        1.0  0.02731  0.82678  0.56518  1.0000
  C   C9        1.0  0.00772  0.20129  0.40642  1.0000
  H   H7        1.0  0.01477  0.20872  0.46406  1.0000
  C   C10       1.0  0.05256  0.20298  0.30589  1.0000
  C   C11       1.0  0.04114  0.21173  0.33803  1.0000
  C   C12       1.0  0.05220  0.23130  0.37677  1.0000
  H   H8        1.0  0.04541  0.18860  0.28004  1.0000
  H   H9        1.0  0.04477  0.23840  0.40107  1.0000
  C   C13       1.0  0.05227  0.80757  0.36670  1.0000
  C   C14       1.0  0.04108  0.81634  0.33204  1.0000
  C   C15       1.0  0.05234  0.83662  0.30115  1.0000
  H   H10       1.0  0.04493  0.79295  0.38990  1.0000
  H   H11       1.0  0.04507  0.84398  0.27815  1.0000
  C   C16       1.0  0.08513  0.23341  0.34563  1.0000
  C   C17       1.0  0.07393  0.21369  0.30785  1.0000
  C   C18       1.0  0.07358  0.24174  0.38133  1.0000
  H   H12       1.0  0.08120  0.20687  0.27911  1.0000
  H   H13       1.0  0.08060  0.25566  0.41154  1.0000
  C   C19       1.0  0.08503  0.83857  0.33564  1.0000
  C   C20       1.0  0.07367  0.81847  0.36920  1.0000
  C   C21       1.0  0.07373  0.84732  0.30149  1.0000
  H   H14       1.0  0.08085  0.81145  0.39695  1.0000
  H   H15       1.0  0.08095  0.86163  0.27498  1.0000
  C   C22       1.0  0.18289  0.37661  0.26504  1.0000
  C   C23       1.0  0.19331  0.39797  0.26723  1.0000
  H   H16       1.0  0.19280  0.40545  0.21139  1.0000
  H   H17       1.0  0.17551  0.36959  0.20726  1.0000
  C   C24       1.0  0.21600  0.40882  0.05151  1.0000
  H   H18       1.0  0.20537  0.39357  0.07582  1.0000
  H   H19       1.0  0.20755  0.41642  0.03279  1.0000
  H   H20       1.0  0.22632  0.41729  0.10606  1.0000
  C   C25       1.0  0.61283  0.79341  0.26503  1.0000
  C   C26       1.0  0.59147  0.78248  0.26721  1.0000
  H   H21       1.0  0.58399  0.77450  0.21139  1.0000
  H   H22       1.0  0.61984  0.79306  0.20724  1.0000
  C   C27       1.0  0.58062  0.79432  0.05149  1.0000
  H   H23       1.0  0.59587  0.79893  0.07579  1.0000
  H   H24       1.0  0.57301  0.77827  0.03274  1.0000
  H   H25       1.0  0.57215  0.79617  0.10606  1.0000
  C   C28       1.0  0.19602  0.80654  0.26500  1.0000
  C   C29       1.0  0.20696  0.79612  0.26720  1.0000
  H   H26       1.0  0.21495  0.79663  0.21138  1.0000
  H   H27       1.0  0.19639  0.81392  0.20724  1.0000
  C   C30       1.0  0.19512  0.77344  0.05149  1.0000
  H   H28       1.0  0.19051  0.78407  0.07579  1.0000
  H   H29       1.0  0.21117  0.78188  0.03276  1.0000
  H   H30       1.0  0.19327  0.76311  0.10604  1.0000
  C   C31       1.0  0.81161  0.60778  0.26500  1.0000
  C   C32       1.0  0.80118  0.58642  0.26718  1.0000
  H   H31       1.0  0.80169  0.57894  0.21135  1.0000
  H   H32       1.0  0.81898  0.61480  0.20721  1.0000
  C   C33       1.0  0.77848  0.57557  0.05149  1.0000
  H   H33       1.0  0.78911  0.59081  0.07580  1.0000
  H   H34       1.0  0.78693  0.56796  0.03278  1.0000
  H   H35       1.0  0.76815  0.56709  0.10602  1.0000
  C   C34       1.0  0.38167  0.19096  0.26504  1.0000
  C   C35       1.0  0.40303  0.20189  0.26723  1.0000
  H   H36       1.0  0.41051  0.20988  0.21141  1.0000
  H   H37       1.0  0.37465  0.19132  0.20725  1.0000
  C   C36       1.0  0.41388  0.19007  0.05146  1.0000
  H   H38       1.0  0.39863  0.18547  0.07575  1.0000
  H   H39       1.0  0.42149  0.20612  0.03266  1.0000
  H   H40       1.0  0.42235  0.18823  0.10604  1.0000
  C   C37       1.0  0.79847  0.17785  0.26502  1.0000
  C   C38       1.0  0.78755  0.18828  0.26718  1.0000
  H   H41       1.0  0.77955  0.18776  0.21138  1.0000
  H   H42       1.0  0.79812  0.17047  0.20723  1.0000
  C   C39       1.0  0.79938  0.21095  0.05148  1.0000
  H   H43       1.0  0.80399  0.20032  0.07579  1.0000
  H   H44       1.0  0.78333  0.20251  0.03274  1.0000
  H   H45       1.0  0.80123  0.22128  0.10604  1.0000
  C   C40       1.0  0.18424  0.20115  0.32970  1.0000
  C   C41       1.0  0.18423  0.18972  0.25461  1.0000
  C   C42       1.0  0.19517  0.17900  0.25562  1.0000
  C   C43       1.0  0.20618  0.17908  0.33262  1.0000
  N   N4        1.0  0.19477  0.16885  0.17992  1.0000
  C   C44       1.0  0.18435  0.16800  0.10510  1.0000
  C   C45       1.0  0.17333  0.17833  0.10387  1.0000
  N   N5        1.0  0.17393  0.18874  0.17864  1.0000
  H   H46       1.0  0.18437  0.15969  0.05149  1.0000
  N   N6        1.0  0.16115  0.17698  0.02987  1.0000
  H   H47       1.0  0.15110  0.18165  0.04813  1.0000
  C   C46       1.0  0.78829  0.97023  0.32970  1.0000
  C   C47       1.0  0.79973  0.98165  0.25461  1.0000
  C   C48       1.0  0.81044  0.00331  0.25562  1.0000
  C   C49       1.0  0.81036  0.01425  0.33261  1.0000
  N   N7        1.0  0.82059  0.01306  0.17991  1.0000
  C   C50       1.0  0.82146  0.00349  0.10512  1.0000
  C   C51       1.0  0.81112  0.98214  0.10388  1.0000
  N   N8        1.0  0.80070  0.97233  0.17864  1.0000
  H   H48       1.0  0.82974  0.01182  0.05147  1.0000
  N   N9        1.0  0.81245  0.97130  0.02985  1.0000
  H   H49       1.0  0.80778  0.95658  0.04810  1.0000
  C   C52       1.0  0.98613  0.79427  0.25563  1.0000
  C   C53       1.0  0.97520  0.78326  0.33262  1.0000
  N   N10       1.0  0.97639  0.79468  0.17993  1.0000
  C   C54       1.0  0.98595  0.80511  0.10512  1.0000
  H   H50       1.0  0.97763  0.80507  0.05147  1.0000
  C   C55       1.0  0.81025  0.78324  0.32972  1.0000
  C   C56       1.0  0.81027  0.79468  0.25463  1.0000
  C   C57       1.0  0.79932  0.80539  0.25564  1.0000
  C   C58       1.0  0.78831  0.80531  0.33264  1.0000
  N   N11       1.0  0.79973  0.81554  0.17994  1.0000
  C   C59       1.0  0.81015  0.81640  0.10513  1.0000
  C   C60       1.0  0.82117  0.80606  0.10389  1.0000
  N   N12       1.0  0.82056  0.79565  0.17865  1.0000
  H   H51       1.0  0.81013  0.82470  0.05150  1.0000
  N   N13       1.0  0.83334  0.80741  0.02988  1.0000
  H   H52       1.0  0.84340  0.80273  0.04813  1.0000
  C   C61       1.0  0.20621  0.01416  0.32972  1.0000
  C   C62       1.0  0.19477  0.00273  0.25463  1.0000
  C   C63       1.0  0.18405  0.98107  0.25564  1.0000
  C   C64       1.0  0.18413  0.97014  0.33264  1.0000
  N   N14       1.0  0.17391  0.97133  0.17994  1.0000
  C   C65       1.0  0.17304  0.98089  0.10514  1.0000
  C   C66       1.0  0.18339  0.00225  0.10389  1.0000
  N   N15       1.0  0.19380  0.01206  0.17866  1.0000
  H   H53       1.0  0.16475  0.97257  0.05149  1.0000
  N   N16       1.0  0.18204  0.01308  0.02988  1.0000
  H   H54       1.0  0.18672  0.02781  0.04814  1.0000
  C   C67       1.0  0.97528  0.17919  0.32971  1.0000
  C   C68       1.0  0.98670  0.17917  0.25461  1.0000
  C   C69       1.0  0.98718  0.16828  0.10387  1.0000
  N   N17       1.0  0.97738  0.16888  0.17864  1.0000
  N   N18       1.0  0.97635  0.15609  0.02988  1.0000
  H   H55       1.0  0.96163  0.14604  0.04815  1.0000
  C   C70       1.0  0.21997  0.62263  0.32988  1.0000
  C   C71       1.0  0.21153  0.60857  0.25849  1.0000
  C   C72       1.0  0.21150  0.58986  0.26088  1.0000
  C   C73       1.0  0.22005  0.58496  0.33435  1.0000
  N   N19       1.0  0.20354  0.57715  0.18956  1.0000
  C   C74       1.0  0.19571  0.58141  0.11684  1.0000
  C   C75       1.0  0.19595  0.60003  0.11321  1.0000
  N   N20       1.0  0.20377  0.61270  0.18462  1.0000
  H   H56       1.0  0.18989  0.57119  0.06559  1.0000
  N   N21       1.0  0.18788  0.60508  0.03880  1.0000
  H   H57       1.0  0.18488  0.61641  0.05607  1.0000
  C   C76       1.0  0.36679  0.58448  0.32990  1.0000
  C   C77       1.0  0.38085  0.59011  0.25851  1.0000
  C   C78       1.0  0.39956  0.60881  0.26085  1.0000
  C   C79       1.0  0.40444  0.62226  0.33431  1.0000
  N   N22       1.0  0.41227  0.61355  0.18952  1.0000
  C   C80       1.0  0.40801  0.60146  0.11682  1.0000
  C   C81       1.0  0.38940  0.58307  0.11322  1.0000
  N   N23       1.0  0.37673  0.57821  0.18464  1.0000
  H   H58       1.0  0.41823  0.60586  0.06556  1.0000
  N   N24       1.0  0.38436  0.56994  0.03886  1.0000
  H   H59       1.0  0.37303  0.55562  0.05615  1.0000
  C   C82       1.0  0.40497  0.76947  0.32988  1.0000
  C   C83       1.0  0.39935  0.77791  0.25849  1.0000
  C   C84       1.0  0.38066  0.77793  0.26088  1.0000
  C   C85       1.0  0.36721  0.76938  0.33434  1.0000
  N   N25       1.0  0.37591  0.78590  0.18956  1.0000
  C   C86       1.0  0.38800  0.79373  0.11684  1.0000
  C   C87       1.0  0.40639  0.79349  0.11321  1.0000
  N   N26       1.0  0.41124  0.78567  0.18462  1.0000
  H   H60       1.0  0.38361  0.79955  0.06559  1.0000
  N   N27       1.0  0.41951  0.80157  0.03881  1.0000
  H   H61       1.0  0.43383  0.80455  0.05608  1.0000
  C   C88       1.0  0.77450  0.36174  0.33001  1.0000
  C   C89       1.0  0.78294  0.37579  0.25860  1.0000
  C   C90       1.0  0.78298  0.39451  0.26091  1.0000
  C   C91       1.0  0.77443  0.39941  0.33433  1.0000
  N   N28       1.0  0.79095  0.40721  0.18955  1.0000
  C   C92       1.0  0.79878  0.40294  0.11686  1.0000
  C   C93       1.0  0.79853  0.38431  0.11331  1.0000
  N   N29       1.0  0.79071  0.37165  0.18474  1.0000
  H   H62       1.0  0.80460  0.41315  0.06559  1.0000
  N   N30       1.0  0.80660  0.37924  0.03893  1.0000
  H   H63       1.0  0.80958  0.36791  0.05624  1.0000
  C   C94       1.0  0.62772  0.39988  0.32994  1.0000
  C   C95       1.0  0.61366  0.39428  0.25855  1.0000
  C   C96       1.0  0.59493  0.37560  0.26090  1.0000
  C   C97       1.0  0.59004  0.36214  0.33433  1.0000
  N   N31       1.0  0.58223  0.37087  0.18957  1.0000
  C   C98       1.0  0.58650  0.38297  0.11688  1.0000
  C   C99       1.0  0.60513  0.40135  0.11328  1.0000
  N   N32       1.0  0.61780  0.40618  0.18469  1.0000
  H   H64       1.0  0.57628  0.37859  0.06564  1.0000
  N   N33       1.0  0.61019  0.41448  0.03892  1.0000
  H   H65       1.0  0.62152  0.42879  0.05622  1.0000
  C   C100      1.0  0.58951  0.21490  0.32984  1.0000
  C   C101      1.0  0.59514  0.20647  0.25843  1.0000
  C   C102      1.0  0.61383  0.20644  0.26077  1.0000
  C   C103      1.0  0.62728  0.21500  0.33422  1.0000
  N   N34       1.0  0.61856  0.19847  0.18943  1.0000
  C   C104      1.0  0.60647  0.19064  0.11674  1.0000
  C   C105      1.0  0.58809  0.19088  0.11313  1.0000
  N   N35       1.0  0.58324  0.19870  0.18456  1.0000
  H   H66       1.0  0.61086  0.18482  0.06547  1.0000
  N   N36       1.0  0.57495  0.18281  0.03875  1.0000
  H   H67       1.0  0.56064  0.17982  0.05604  1.0000
  C   C106      1.0  0.13986  0.24453  0.33609  1.0000
  C   C107      1.0  0.14993  0.26588  0.32447  1.0000
  C   C108      1.0  0.13976  0.27723  0.32787  1.0000
  C   C109      1.0  0.11830  0.26601  0.33582  1.0000
  C   C110      1.0  0.10711  0.24455  0.34390  1.0000
  C   C111      1.0  0.11850  0.23442  0.34755  1.0000
  C   C112      1.0  0.15087  0.29920  0.32583  1.0000
  C   C113      1.0  0.17059  0.31044  0.36354  1.0000
  C   C114      1.0  0.18126  0.33182  0.36534  1.0000
  C   C115      1.0  0.17247  0.34318  0.33315  1.0000
  C   C116      1.0  0.15290  0.33209  0.29434  1.0000
  C   C117      1.0  0.14250  0.31071  0.28991  1.0000
  C   C118      1.0  0.15086  0.23359  0.33564  1.0000
  C   C119      1.0  0.17097  0.24233  0.36921  1.0000
  C   C120      1.0  0.18187  0.23184  0.36672  1.0000
  C   C121      1.0  0.17310  0.21187  0.33205  1.0000
  C   C122      1.0  0.15282  0.20285  0.30115  1.0000
  C   C123      1.0  0.14212  0.21355  0.30146  1.0000
  H   H68       1.0  0.19649  0.23912  0.38991  1.0000
  H   H69       1.0  0.17798  0.25652  0.39697  1.0000
  H   H70       1.0  0.14546  0.18822  0.27814  1.0000
  H   H71       1.0  0.12781  0.20644  0.27497  1.0000
  H   H72       1.0  0.12858  0.30366  0.25971  1.0000
  H   H73       1.0  0.14579  0.33949  0.26997  1.0000
  H   H74       1.0  0.19564  0.33899  0.39123  1.0000
  H   H75       1.0  0.17743  0.30321  0.39244  1.0000
  H   H76       1.0  0.16517  0.27340  0.31150  1.0000
  H   H77       1.0  0.11100  0.21918  0.36044  1.0000
  H   H78       1.0  0.11054  0.27374  0.33571  1.0000
  C   C124      1.0  0.74491  0.88248  0.33609  1.0000
  C   C125      1.0  0.72356  0.87119  0.32445  1.0000
  C   C126      1.0  0.71220  0.84967  0.32785  1.0000
  C   C127      1.0  0.72343  0.83942  0.33582  1.0000
  C   C128      1.0  0.74489  0.84970  0.34392  1.0000
  C   C129      1.0  0.75501  0.87122  0.34757  1.0000
  C   C130      1.0  0.69024  0.83881  0.32578  1.0000
  C   C131      1.0  0.67900  0.84729  0.36351  1.0000
  C   C132      1.0  0.65762  0.83659  0.36530  1.0000
  C   C133      1.0  0.64626  0.81643  0.33312  1.0000
  C   C134      1.0  0.65735  0.80795  0.29432  1.0000
  C   C135      1.0  0.67873  0.81894  0.28989  1.0000
  C   C136      1.0  0.75585  0.90442  0.33563  1.0000
  C   C137      1.0  0.74711  0.91578  0.36919  1.0000
  C   C138      1.0  0.75760  0.93717  0.36670  1.0000
  C   C139      1.0  0.77757  0.94837  0.33204  1.0000
  C   C140      1.0  0.78659  0.93710  0.30115  1.0000
  C   C141      1.0  0.77589  0.91571  0.30147  1.0000
  C   C142      1.0  0.75603  0.83887  0.34567  1.0000
  C   C143      1.0  0.77576  0.84739  0.30794  1.0000
  C   C144      1.0  0.78646  0.83672  0.30593  1.0000
  C   C145      1.0  0.77771  0.81655  0.33806  1.0000
  C   C146      1.0  0.75814  0.80804  0.37681  1.0000
  C   C147      1.0  0.74769  0.81898  0.38134  1.0000
  H   H79       1.0  0.75032  0.94452  0.38987  1.0000
  H   H80       1.0  0.73291  0.90860  0.39693  1.0000
  H   H81       1.0  0.80122  0.94438  0.27816  1.0000
  H   H82       1.0  0.78299  0.90850  0.27499  1.0000
  H   H83       1.0  0.78257  0.86147  0.27915  1.0000
  H   H84       1.0  0.80084  0.84395  0.28008  1.0000
  H   H85       1.0  0.73377  0.81207  0.41152  1.0000
  H   H86       1.0  0.75103  0.79351  0.40105  1.0000
  H   H87       1.0  0.68578  0.81206  0.25970  1.0000
  H   H88       1.0  0.64994  0.79343  0.26997  1.0000
  H   H89       1.0  0.65045  0.84379  0.39121  1.0000
  H   H90       1.0  0.68623  0.86136  0.39241  1.0000
  H   H91       1.0  0.71604  0.87891  0.31146  1.0000
  H   H92       1.0  0.77025  0.87896  0.36048  1.0000
  H   H93       1.0  0.71570  0.82394  0.33570  1.0000
  C   C148      1.0  0.10697  0.84957  0.33609  1.0000
  C   C149      1.0  0.11826  0.83951  0.32447  1.0000
  C   C150      1.0  0.13977  0.84967  0.32785  1.0000
  C   C151      1.0  0.15002  0.87114  0.33582  1.0000
  C   C152      1.0  0.13974  0.88233  0.34391  1.0000
  C   C153      1.0  0.11823  0.87093  0.34756  1.0000
  C   C154      1.0  0.15063  0.83856  0.32576  1.0000
  C   C155      1.0  0.14215  0.81884  0.36346  1.0000
  C   C156      1.0  0.15285  0.80817  0.36529  1.0000
  C   C157      1.0  0.17302  0.81697  0.33311  1.0000
  C   C158      1.0  0.18149  0.83653  0.29429  1.0000
  C   C159      1.0  0.17051  0.84693  0.28989  1.0000
  C   C160      1.0  0.15058  0.90430  0.34565  1.0000
  C   C161      1.0  0.14206  0.91550  0.30793  1.0000
  C   C162      1.0  0.15273  0.93688  0.30593  1.0000
  C   C163      1.0  0.17289  0.94830  0.33806  1.0000
  C   C164      1.0  0.18141  0.93724  0.37678  1.0000
  C   C165      1.0  0.17047  0.91585  0.38132  1.0000
  H   H94       1.0  0.12797  0.90823  0.27913  1.0000
  H   H95       1.0  0.14549  0.94403  0.28007  1.0000
  H   H96       1.0  0.17738  0.90884  0.41151  1.0000
  H   H97       1.0  0.19594  0.94467  0.40104  1.0000
  H   H98       1.0  0.17739  0.86086  0.25971  1.0000
  H   H99       1.0  0.19602  0.84365  0.26997  1.0000
  H   H100      1.0  0.14566  0.79379  0.39121  1.0000
  H   H101      1.0  0.12809  0.81201  0.39241  1.0000
  H   H102      1.0  0.11053  0.82427  0.31147  1.0000
  H   H103      1.0  0.11049  0.87843  0.36047  1.0000
  H   H104      1.0  0.16551  0.87889  0.33569  1.0000
  C   C166      1.0  0.85463  0.73986  0.33611  1.0000
  C   C167      1.0  0.84457  0.71851  0.32448  1.0000
  C   C168      1.0  0.85473  0.70716  0.32785  1.0000
  C   C169      1.0  0.87620  0.71838  0.33582  1.0000
  C   C170      1.0  0.88739  0.73984  0.34391  1.0000
  C   C171      1.0  0.87599  0.74997  0.34757  1.0000
  C   C172      1.0  0.84362  0.68519  0.32577  1.0000
  C   C173      1.0  0.82390  0.67395  0.36348  1.0000
  C   C174      1.0  0.81323  0.65257  0.36529  1.0000
  C   C175      1.0  0.82203  0.64121  0.33311  1.0000
  C   C176      1.0  0.84159  0.65230  0.29429  1.0000
  C   C177      1.0  0.85199  0.67368  0.28987  1.0000
  C   C178      1.0  0.84363  0.75080  0.33566  1.0000
  C   C179      1.0  0.82353  0.74206  0.36924  1.0000
  C   C180      1.0  0.81263  0.75255  0.36672  1.0000
  C   C181      1.0  0.82139  0.77251  0.33206  1.0000
  C   C182      1.0  0.84168  0.78154  0.30116  1.0000
  C   C183      1.0  0.85237  0.77084  0.30150  1.0000
  C   C184      1.0  0.90936  0.75098  0.34565  1.0000
  C   C185      1.0  0.92056  0.77070  0.30787  1.0000
  C   C186      1.0  0.94194  0.78141  0.30590  1.0000
  C   C187      1.0  0.95336  0.77266  0.33802  1.0000
  C   C188      1.0  0.94229  0.75308  0.37675  1.0000
  C   C189      1.0  0.92091  0.74264  0.38132  1.0000
  H   H105      1.0  0.79800  0.74527  0.38992  1.0000
  H   H106      1.0  0.81651  0.72787  0.39697  1.0000
  H   H107      1.0  0.84903  0.79617  0.27817  1.0000
  H   H108      1.0  0.86669  0.77794  0.27499  1.0000
  H   H109      1.0  0.91329  0.77752  0.27915  1.0000
  H   H110      1.0  0.94909  0.79579  0.28006  1.0000
  H   H111      1.0  0.91390  0.72872  0.41152  1.0000
  H   H112      1.0  0.94973  0.74598  0.40105  1.0000
  H   H113      1.0  0.86591  0.68073  0.25969  1.0000
  H   H114      1.0  0.84871  0.64489  0.26994  1.0000
  H   H115      1.0  0.79885  0.64540  0.39122  1.0000
  H   H116      1.0  0.81707  0.68118  0.39243  1.0000
  H   H117      1.0  0.82933  0.71099  0.31149  1.0000
  H   H118      1.0  0.88349  0.76520  0.36048  1.0000
  H   H119      1.0  0.88395  0.71065  0.33568  1.0000
  C   C190      1.0  0.24958  0.10191  0.33611  1.0000
  C   C191      1.0  0.27094  0.11320  0.32451  1.0000
  C   C192      1.0  0.28229  0.13471  0.32786  1.0000
  C   C193      1.0  0.27107  0.14496  0.33582  1.0000
  C   C194      1.0  0.24960  0.13468  0.34388  1.0000
  C   C195      1.0  0.23948  0.11317  0.34754  1.0000
  C   C196      1.0  0.30426  0.14558  0.32582  1.0000
  C   C197      1.0  0.31550  0.13709  0.36350  1.0000
  C   C198      1.0  0.33687  0.14779  0.36533  1.0000
  C   C199      1.0  0.34824  0.16795  0.33314  1.0000
  C   C200      1.0  0.33715  0.17642  0.29432  1.0000
  C   C201      1.0  0.31577  0.16545  0.28991  1.0000
  C   C202      1.0  0.23864  0.07997  0.33566  1.0000
  C   C203      1.0  0.24738  0.06861  0.36924  1.0000
  C   C204      1.0  0.23689  0.04722  0.36672  1.0000
  C   C205      1.0  0.21693  0.03601  0.33206  1.0000
  C   C206      1.0  0.20791  0.04728  0.30117  1.0000
  C   C207      1.0  0.21860  0.06867  0.30149  1.0000
  C   C208      1.0  0.23846  0.14552  0.34563  1.0000
  C   C209      1.0  0.21874  0.13700  0.30786  1.0000
  C   C210      1.0  0.20804  0.14767  0.30589  1.0000
  C   C211      1.0  0.21678  0.16784  0.33804  1.0000
  C   C212      1.0  0.23636  0.17635  0.37679  1.0000
  C   C213      1.0  0.24680  0.16541  0.38132  1.0000
  H   H120      1.0  0.24417  0.03987  0.38993  1.0000
  H   H121      1.0  0.26158  0.07579  0.39697  1.0000
  H   H122      1.0  0.19327  0.04000  0.27815  1.0000
  H   H123      1.0  0.21150  0.07588  0.27497  1.0000
  H   H124      1.0  0.21193  0.12292  0.27911  1.0000
  H   H125      1.0  0.19365  0.14044  0.28004  1.0000
  H   H126      1.0  0.26073  0.17232  0.41151  1.0000
  H   H127      1.0  0.24346  0.19088  0.40104  1.0000
  H   H128      1.0  0.30872  0.17233  0.25972  1.0000
  H   H129      1.0  0.34456  0.19095  0.26997  1.0000
  H   H130      1.0  0.34405  0.14059  0.39122  1.0000
  H   H131      1.0  0.30826  0.12302  0.39245  1.0000
  H   H132      1.0  0.27845  0.10547  0.31150  1.0000
  H   H133      1.0  0.22424  0.10543  0.36045  1.0000
  H   H134      1.0  0.27880  0.16045  0.33569  1.0000
  C   C214      1.0  0.88752  0.13481  0.33611  1.0000
  C   C215      1.0  0.87624  0.14488  0.32450  1.0000
  C   C216      1.0  0.85472  0.13472  0.32785  1.0000
  C   C217      1.0  0.84447  0.11325  0.33582  1.0000
  C   C218      1.0  0.85475  0.10206  0.34390  1.0000
  C   C219      1.0  0.87627  0.11345  0.34755  1.0000
  C   C220      1.0  0.84386  0.14583  0.32582  1.0000
  C   C221      1.0  0.85234  0.16554  0.36353  1.0000
  C   C222      1.0  0.84164  0.17622  0.36531  1.0000
  C   C223      1.0  0.82149  0.16743  0.33312  1.0000
  C   C224      1.0  0.81301  0.14786  0.29429  1.0000
  C   C225      1.0  0.82399  0.13746  0.28990  1.0000
  C   C226      1.0  0.90947  0.14581  0.33565  1.0000
  C   C227      1.0  0.92083  0.16591  0.36923  1.0000
  C   C228      1.0  0.94222  0.17682  0.36672  1.0000
  C   C229      1.0  0.95342  0.16805  0.33206  1.0000
  C   C230      1.0  0.94215  0.14776  0.30116  1.0000
  C   C231      1.0  0.92076  0.13707  0.30146  1.0000
  C   C232      1.0  0.84392  0.08008  0.34566  1.0000
  C   C233      1.0  0.85243  0.06888  0.30787  1.0000
  C   C234      1.0  0.84177  0.04751  0.30590  1.0000
  C   C235      1.0  0.82160  0.03609  0.33802  1.0000
  C   C236      1.0  0.81308  0.04715  0.37673  1.0000
  C   C237      1.0  0.82403  0.06853  0.38130  1.0000
  H   H135      1.0  0.94957  0.19144  0.38992  1.0000
  H   H136      1.0  0.91365  0.17293  0.39697  1.0000
  H   H137      1.0  0.94943  0.14041  0.27816  1.0000
  H   H138      1.0  0.91355  0.12275  0.27498  1.0000
  H   H139      1.0  0.86652  0.07615  0.27913  1.0000
  H   H140      1.0  0.84900  0.04036  0.28004  1.0000
  H   H141      1.0  0.81712  0.07555  0.41150  1.0000
  H   H142      1.0  0.79855  0.03972  0.40102  1.0000
  H   H143      1.0  0.81711  0.12353  0.25972  1.0000
  H   H144      1.0  0.79848  0.14074  0.26998  1.0000
  H   H145      1.0  0.84885  0.19060  0.39120  1.0000
  H   H146      1.0  0.86641  0.17238  0.39241  1.0000
  H   H147      1.0  0.88396  0.16012  0.31148  1.0000
  H   H148      1.0  0.88401  0.10595  0.36047  1.0000
  H   H149      1.0  0.82899  0.10549  0.33570  1.0000
  C   C238      1.0  0.24992  0.52975  0.33200  1.0000
  C   C239      1.0  0.23929  0.50835  0.33937  1.0000
  C   C240      1.0  0.24937  0.49684  0.33566  1.0000
  C   C241      1.0  0.27091  0.50786  0.32794  1.0000
  C   C242      1.0  0.28203  0.52929  0.32325  1.0000
  C   C243      1.0  0.27128  0.53994  0.32533  1.0000
  C   C244      1.0  0.23821  0.47489  0.33754  1.0000
  C   C245      1.0  0.21831  0.46350  0.30176  1.0000
  C   C246      1.0  0.20740  0.44211  0.30411  1.0000
  C   C247      1.0  0.21599  0.43089  0.34030  1.0000
  C   C248      1.0  0.23610  0.44217  0.37324  1.0000
  C   C249      1.0  0.24673  0.46355  0.37365  1.0000
  C   C250      1.0  0.23986  0.54130  0.32824  1.0000
  C   C251      1.0  0.22722  0.54094  0.39840  1.0000
  C   C252      1.0  0.21997  0.55478  0.39952  1.0000
  C   C253      1.0  0.22479  0.56903  0.32964  1.0000
  C   C254      1.0  0.23690  0.56887  0.25823  1.0000
  C   C255      1.0  0.24424  0.55520  0.25736  1.0000
  C   C256      1.0  0.30361  0.54043  0.31718  1.0000
  C   C257      1.0  0.31317  0.55499  0.24868  1.0000
  C   C258      1.0  0.33417  0.56871  0.25092  1.0000
  C   C259      1.0  0.34631  0.56833  0.32173  1.0000
  C   C260      1.0  0.33684  0.55338  0.38891  1.0000
  C   C261      1.0  0.31579  0.53948  0.38627  1.0000
  H   H150      1.0  0.21162  0.55479  0.45315  1.0000
  H   H151      1.0  0.22425  0.53147  0.45190  1.0000
  H   H152      1.0  0.24144  0.57945  0.20821  1.0000
  H   H153      1.0  0.25354  0.55607  0.20597  1.0000
  H   H154      1.0  0.30473  0.55644  0.19889  1.0000
  H   H155      1.0  0.34027  0.57985  0.20321  1.0000
  H   H156      1.0  0.30924  0.52961  0.43848  1.0000
  H   H157      1.0  0.34509  0.55301  0.44219  1.0000
  H   H158      1.0  0.26088  0.47071  0.40178  1.0000
  H   H159      1.0  0.24341  0.43492  0.39715  1.0000
  H   H160      1.0  0.19291  0.43478  0.27928  1.0000
  H   H161      1.0  0.21145  0.47062  0.27207  1.0000
  H   H162      1.0  0.22384  0.50113  0.34610  1.0000
  H   H163      1.0  0.27921  0.55551  0.32307  1.0000
  H   H164      1.0  0.27880  0.50028  0.32196  1.0000
  C   C262      1.0  0.45969  0.70732  0.33206  1.0000
  C   C263      1.0  0.48109  0.71809  0.33939  1.0000
  C   C264      1.0  0.49260  0.73968  0.33568  1.0000
  C   C265      1.0  0.48157  0.75020  0.32796  1.0000
  C   C266      1.0  0.46015  0.73990  0.32328  1.0000
  C   C267      1.0  0.44950  0.71849  0.32539  1.0000
  C   C268      1.0  0.51455  0.75047  0.33755  1.0000
  C   C269      1.0  0.52594  0.74196  0.30176  1.0000
  C   C270      1.0  0.54733  0.75243  0.30411  1.0000
  C   C271      1.0  0.55855  0.77225  0.34031  1.0000
  C   C272      1.0  0.54727  0.78108  0.37324  1.0000
  C   C273      1.0  0.52589  0.77033  0.37365  1.0000
  C   C274      1.0  0.44814  0.68571  0.32823  1.0000
  C   C275      1.0  0.44849  0.67343  0.39838  1.0000
  C   C276      1.0  0.43465  0.65234  0.39946  1.0000
  C   C277      1.0  0.42040  0.64292  0.32958  1.0000
  C   C278      1.0  0.42057  0.65519  0.25817  1.0000
  C   C279      1.0  0.43424  0.67619  0.25732  1.0000
  C   C280      1.0  0.44900  0.75032  0.31719  1.0000
  C   C281      1.0  0.43444  0.74531  0.24873  1.0000
  C   C282      1.0  0.42073  0.75262  0.25089  1.0000
  C   C283      1.0  0.42110  0.76512  0.32174  1.0000
  C   C284      1.0  0.43607  0.77062  0.38887  1.0000
  C   C285      1.0  0.44998  0.76349  0.38621  1.0000
  H   H165      1.0  0.43462  0.64398  0.45315  1.0000
  H   H166      1.0  0.45795  0.67992  0.45192  1.0000
  H   H167      1.0  0.40999  0.64916  0.20815  1.0000
  H   H168      1.0  0.43338  0.68463  0.20594  1.0000
  H   H169      1.0  0.43300  0.73544  0.19892  1.0000
  H   H170      1.0  0.40958  0.74756  0.20323  1.0000
  H   H171      1.0  0.45984  0.76679  0.43845  1.0000
  H   H172      1.0  0.43643  0.77923  0.44216  1.0000
  H   H173      1.0  0.51874  0.77732  0.40178  1.0000
  H   H174      1.0  0.55452  0.79563  0.39715  1.0000
  H   H175      1.0  0.55465  0.74528  0.27928  1.0000
  H   H176      1.0  0.51882  0.72798  0.27207  1.0000
  H   H177      1.0  0.48831  0.70986  0.34610  1.0000
  H   H178      1.0  0.43393  0.71085  0.32310  1.0000
  H   H179      1.0  0.48916  0.76567  0.32196  1.0000
  C   C286      1.0  0.28214  0.73952  0.33207  1.0000
  C   C287      1.0  0.27136  0.75014  0.33940  1.0000
  C   C288      1.0  0.24977  0.74006  0.33566  1.0000
  C   C289      1.0  0.23925  0.71852  0.32787  1.0000
  C   C290      1.0  0.24956  0.70740  0.32326  1.0000
  C   C291      1.0  0.27096  0.71816  0.32539  1.0000
  C   C292      1.0  0.23898  0.75122  0.33754  1.0000
  C   C293      1.0  0.24749  0.77112  0.30177  1.0000
  C   C294      1.0  0.23701  0.78203  0.30411  1.0000
  C   C295      1.0  0.21720  0.77344  0.34029  1.0000
  C   C296      1.0  0.20837  0.75332  0.37322  1.0000
  C   C297      1.0  0.21912  0.74270  0.37364  1.0000
  C   C298      1.0  0.30374  0.74957  0.32824  1.0000
  C   C299      1.0  0.31602  0.76223  0.39835  1.0000
  C   C300      1.0  0.33711  0.76946  0.39948  1.0000
  C   C301      1.0  0.34654  0.76464  0.32961  1.0000
  C   C302      1.0  0.33426  0.75254  0.25818  1.0000
  C   C303      1.0  0.31327  0.74521  0.25734  1.0000
  C   C304      1.0  0.23913  0.68583  0.31718  1.0000
  C   C305      1.0  0.24415  0.67627  0.24874  1.0000
  C   C306      1.0  0.23685  0.65526  0.25090  1.0000
  C   C307      1.0  0.22433  0.64312  0.32171  1.0000
  C   C308      1.0  0.21884  0.65259  0.38886  1.0000
  C   C309      1.0  0.22595  0.67363  0.38615  1.0000
  H   H180      1.0  0.34546  0.77779  0.45317  1.0000
  H   H181      1.0  0.30953  0.76517  0.45196  1.0000
  H   H182      1.0  0.34031  0.74800  0.20816  1.0000
  H   H183      1.0  0.30483  0.73590  0.20596  1.0000
  H   H184      1.0  0.25401  0.68470  0.19887  1.0000
  H   H185      1.0  0.24187  0.64916  0.20315  1.0000
  H   H186      1.0  0.22268  0.68018  0.43851  1.0000
  H   H187      1.0  0.21024  0.64434  0.44217  1.0000
  H   H188      1.0  0.21213  0.72855  0.40177  1.0000
  H   H189      1.0  0.19381  0.74602  0.39713  1.0000
  H   H190      1.0  0.24417  0.79652  0.27928  1.0000
  H   H191      1.0  0.26147  0.77798  0.27207  1.0000
  H   H192      1.0  0.27959  0.76559  0.34613  1.0000
  H   H193      1.0  0.27860  0.71022  0.32312  1.0000
  H   H194      1.0  0.22378  0.71062  0.32197  1.0000
  C   C310      1.0  0.74459  0.45464  0.33202  1.0000
  C   C311      1.0  0.75522  0.47605  0.33937  1.0000
  C   C312      1.0  0.74513  0.48755  0.33563  1.0000
  C   C313      1.0  0.72359  0.47652  0.32784  1.0000
  C   C314      1.0  0.71247  0.45510  0.32322  1.0000
  C   C315      1.0  0.72323  0.44446  0.32534  1.0000
  C   C316      1.0  0.75629  0.50950  0.33752  1.0000
  C   C317      1.0  0.77619  0.52089  0.30173  1.0000
  C   C318      1.0  0.78710  0.54228  0.30407  1.0000
  C   C319      1.0  0.77850  0.55350  0.34026  1.0000
  C   C320      1.0  0.75839  0.54222  0.37319  1.0000
  C   C321      1.0  0.74777  0.52084  0.37360  1.0000
  C   C322      1.0  0.75465  0.44310  0.32819  1.0000
  C   C323      1.0  0.76730  0.44347  0.39831  1.0000
  C   C324      1.0  0.77454  0.42962  0.39943  1.0000
  C   C325      1.0  0.76970  0.41536  0.32957  1.0000
  C   C326      1.0  0.75762  0.41555  0.25811  1.0000
  C   C327      1.0  0.75029  0.42921  0.25728  1.0000
  C   C328      1.0  0.69090  0.44395  0.31710  1.0000
  C   C329      1.0  0.68134  0.42939  0.24859  1.0000
  C   C330      1.0  0.66034  0.41564  0.25092  1.0000
  C   C331      1.0  0.64821  0.41602  0.32174  1.0000
  C   C332      1.0  0.65766  0.43099  0.38885  1.0000
  C   C333      1.0  0.67871  0.44490  0.38617  1.0000
  H   H195      1.0  0.78285  0.42957  0.45316  1.0000
  H   H196      1.0  0.77024  0.45290  0.45194  1.0000
  H   H197      1.0  0.75307  0.40495  0.20812  1.0000
  H   H198      1.0  0.74098  0.42834  0.20589  1.0000
  H   H199      1.0  0.68978  0.42795  0.19878  1.0000
  H   H200      1.0  0.65424  0.40453  0.20314  1.0000
  H   H201      1.0  0.68526  0.45474  0.43849  1.0000
  H   H202      1.0  0.64943  0.43133  0.44222  1.0000
  H   H203      1.0  0.73362  0.51368  0.40174  1.0000
  H   H204      1.0  0.75108  0.54947  0.39711  1.0000
  H   H205      1.0  0.80158  0.54961  0.27925  1.0000
  H   H206      1.0  0.78305  0.51377  0.27204  1.0000
  H   H207      1.0  0.77067  0.48327  0.34611  1.0000
  H   H208      1.0  0.71530  0.42888  0.32304  1.0000
  H   H209      1.0  0.71569  0.48410  0.32194  1.0000
  C   C334      1.0  0.53481  0.27709  0.33209  1.0000
  C   C335      1.0  0.51340  0.26631  0.33947  1.0000
  C   C336      1.0  0.50190  0.24472  0.33570  1.0000
  C   C337      1.0  0.51293  0.23420  0.32790  1.0000
  C   C338      1.0  0.53435  0.24451  0.32328  1.0000
  C   C339      1.0  0.54499  0.26591  0.32538  1.0000
  C   C340      1.0  0.47995  0.23392  0.33760  1.0000
  C   C341      1.0  0.46856  0.24243  0.30183  1.0000
  C   C342      1.0  0.44717  0.23195  0.30415  1.0000
  C   C343      1.0  0.43595  0.21213  0.34033  1.0000
  C   C344      1.0  0.44723  0.20330  0.37326  1.0000
  C   C345      1.0  0.46861  0.21406  0.37369  1.0000
  C   C346      1.0  0.54635  0.29869  0.32826  1.0000
  C   C347      1.0  0.54598  0.31097  0.39839  1.0000
  C   C348      1.0  0.55985  0.33205  0.39951  1.0000
  C   C349      1.0  0.57407  0.34149  0.32956  1.0000
  C   C350      1.0  0.57388  0.32921  0.25812  1.0000
  C   C351      1.0  0.56021  0.30821  0.25726  1.0000
  C   C352      1.0  0.54551  0.23409  0.31715  1.0000
  C   C353      1.0  0.56008  0.23911  0.24873  1.0000
  C   C354      1.0  0.57377  0.23178  0.25086  1.0000
  C   C355      1.0  0.57340  0.21927  0.32170  1.0000
  C   C356      1.0  0.55844  0.21378  0.38884  1.0000
  C   C357      1.0  0.54454  0.22094  0.38621  1.0000
  H   H210      1.0  0.55988  0.34041  0.45321  1.0000
  H   H211      1.0  0.53656  0.30447  0.45205  1.0000
  H   H212      1.0  0.58447  0.33525  0.20812  1.0000
  H   H213      1.0  0.56110  0.29978  0.20593  1.0000
  H   H214      1.0  0.56151  0.24896  0.19886  1.0000
  H   H215      1.0  0.58491  0.23682  0.20318  1.0000
  H   H216      1.0  0.53467  0.21761  0.43843  1.0000
  H   H217      1.0  0.55807  0.20517  0.44214  1.0000
  H   H218      1.0  0.47577  0.20707  0.40178  1.0000
  H   H219      1.0  0.43999  0.18875  0.39715  1.0000
  H   H220      1.0  0.43984  0.23910  0.27932  1.0000
  H   H221      1.0  0.47567  0.25641  0.27211  1.0000
  H   H222      1.0  0.50618  0.27453  0.34619  1.0000
  H   H223      1.0  0.56057  0.27356  0.32308  1.0000
  H   H224      1.0  0.50535  0.21873  0.32199  1.0000
  C   C358      1.0  0.71234  0.24485  0.33205  1.0000
  C   C359      1.0  0.72312  0.23422  0.33943  1.0000
  C   C360      1.0  0.74471  0.24431  0.33568  1.0000
  C   C361      1.0  0.75522  0.26586  0.32790  1.0000
  C   C362      1.0  0.74491  0.27697  0.32328  1.0000
  C   C363      1.0  0.72351  0.26621  0.32538  1.0000
  C   C364      1.0  0.75551  0.23316  0.33757  1.0000
  C   C365      1.0  0.74700  0.21326  0.30179  1.0000
  C   C366      1.0  0.75749  0.20236  0.30410  1.0000
  C   C367      1.0  0.77730  0.21095  0.34029  1.0000
  C   C368      1.0  0.78613  0.23107  0.37323  1.0000
  C   C369      1.0  0.77537  0.24169  0.37367  1.0000
  C   C370      1.0  0.69074  0.23478  0.32823  1.0000
  C   C371      1.0  0.67846  0.22216  0.39842  1.0000
  C   C372      1.0  0.65737  0.21491  0.39947  1.0000
  C   C373      1.0  0.64794  0.21970  0.32952  1.0000
  C   C374      1.0  0.66021  0.23179  0.25805  1.0000
  C   C375      1.0  0.68122  0.23913  0.25726  1.0000
  C   C376      1.0  0.75533  0.29854  0.31719  1.0000
  C   C377      1.0  0.75031  0.30811  0.24880  1.0000
  C   C378      1.0  0.75760  0.32911  0.25104  1.0000
  C   C379      1.0  0.77012  0.34124  0.32185  1.0000
  C   C380      1.0  0.77562  0.33178  0.38896  1.0000
  C   C381      1.0  0.76849  0.31073  0.38623  1.0000
  H   H225      1.0  0.64901  0.20657  0.45314  1.0000
  H   H226      1.0  0.68494  0.21919  0.45196  1.0000
  H   H227      1.0  0.65419  0.23636  0.20812  1.0000
  H   H228      1.0  0.68965  0.24846  0.20593  1.0000
  H   H229      1.0  0.74046  0.29968  0.19890  1.0000
  H   H230      1.0  0.75260  0.33523  0.20325  1.0000
  H   H231      1.0  0.77180  0.30418  0.43848  1.0000
  H   H232      1.0  0.78425  0.34002  0.44222  1.0000
  H   H233      1.0  0.78236  0.25583  0.40177  1.0000
  H   H234      1.0  0.80068  0.23837  0.39714  1.0000
  H   H235      1.0  0.75033  0.18787  0.27928  1.0000
  H   H236      1.0  0.73303  0.20640  0.27207  1.0000
  H   H237      1.0  0.71490  0.21878  0.34614  1.0000
  H   H238      1.0  0.71586  0.27413  0.32310  1.0000
  H   H239      1.0  0.77070  0.27376  0.32201  1.0000
  C   C382      1.0  0.20487  0.40902  0.34228  1.0000
  C   C383      1.0  0.20482  0.39755  0.41733  1.0000
  C   C384      1.0  0.19392  0.37589  0.41604  1.0000
  C   C385      1.0  0.18301  0.36501  0.33880  1.0000
  N   N37       1.0  0.19428  0.36611  0.49170  1.0000
  C   C386      1.0  0.20466  0.37564  0.56667  1.0000
  C   C387      1.0  0.21565  0.39699  0.56811  1.0000
  N   N38       1.0  0.21505  0.40682  0.49347  1.0000
  H   H240      1.0  0.20461  0.36730  0.62026  1.0000
  N   N39       1.0  0.22784  0.40779  0.64210  1.0000
  H   H241      1.0  0.23816  0.42240  0.62346  1.0000
  C   C388      1.0  0.58042  0.78299  0.34227  1.0000
  C   C389      1.0  0.59189  0.79441  0.41732  1.0000
  C   C390      1.0  0.61355  0.80517  0.41603  1.0000
  C   C391      1.0  0.62443  0.80514  0.33878  1.0000
  N   N40       1.0  0.62333  0.81531  0.49168  1.0000
  C   C392      1.0  0.61381  0.81616  0.56666  1.0000
  C   C393      1.0  0.59246  0.80581  0.56810  1.0000
  N   N41       1.0  0.58262  0.79538  0.49347  1.0000
  H   H242      1.0  0.62215  0.82447  0.62024  1.0000
  N   N42       1.0  0.58166  0.80720  0.64210  1.0000
  H   H243      1.0  0.56705  0.80292  0.62346  1.0000
  C   C394      1.0  0.20645  0.78456  0.34226  1.0000
  C   C395      1.0  0.19503  0.78461  0.41731  1.0000
  C   C396      1.0  0.18428  0.79551  0.41602  1.0000
  C   C397      1.0  0.18431  0.80643  0.33876  1.0000
  N   N43       1.0  0.17413  0.79515  0.49167  1.0000
  C   C398      1.0  0.17328  0.78478  0.56665  1.0000
  C   C399      1.0  0.18364  0.77378  0.56809  1.0000
  N   N44       1.0  0.19407  0.77438  0.49345  1.0000
  H   H244      1.0  0.16498  0.78482  0.62024  1.0000
  N   N45       1.0  0.18225  0.76159  0.64208  1.0000
  H   H245      1.0  0.18653  0.75126  0.62344  1.0000
  C   C400      1.0  0.78962  0.57537  0.34223  1.0000
  C   C401      1.0  0.78967  0.58684  0.41729  1.0000
  C   C402      1.0  0.80058  0.60850  0.41601  1.0000
  C   C403      1.0  0.81149  0.61938  0.33876  1.0000
  N   N46       1.0  0.80021  0.61828  0.49166  1.0000
  C   C404      1.0  0.78985  0.60875  0.56665  1.0000
  C   C405      1.0  0.77884  0.58740  0.56807  1.0000
  N   N47       1.0  0.77944  0.57757  0.49343  1.0000
  H   H246      1.0  0.78988  0.61709  0.62022  1.0000
  N   N48       1.0  0.76665  0.57660  0.64205  1.0000
  H   H247      1.0  0.75632  0.56199  0.62340  1.0000
  C   C406      1.0  0.41408  0.20138  0.34229  1.0000
  C   C407      1.0  0.40261  0.18996  0.41733  1.0000
  C   C408      1.0  0.38095  0.17921  0.41604  1.0000
  C   C409      1.0  0.37007  0.17924  0.33879  1.0000
  N   N49       1.0  0.37117  0.16906  0.49169  1.0000
  C   C410      1.0  0.38069  0.16821  0.56667  1.0000
  C   C411      1.0  0.40204  0.17856  0.56809  1.0000
  N   N50       1.0  0.41188  0.18900  0.49347  1.0000
  H   H248      1.0  0.37235  0.15991  0.62026  1.0000
  N   N51       1.0  0.41284  0.17718  0.64211  1.0000
  H   H249      1.0  0.42745  0.18146  0.62347  1.0000
  C   C412      1.0  0.78805  0.19984  0.34225  1.0000
  C   C413      1.0  0.79947  0.19978  0.41730  1.0000
  C   C414      1.0  0.81022  0.18888  0.41602  1.0000
  C   C415      1.0  0.81020  0.17797  0.33876  1.0000
  N   N52       1.0  0.82037  0.18925  0.49166  1.0000
  C   C416      1.0  0.82122  0.19962  0.56664  1.0000
  C   C417      1.0  0.81086  0.21061  0.56808  1.0000
  N   N53       1.0  0.80043  0.21001  0.49345  1.0000
  H   H250      1.0  0.82952  0.19957  0.62024  1.0000
  N   N54       1.0  0.81225  0.22280  0.64208  1.0000
  H   H251      1.0  0.80797  0.23313  0.62344  1.0000
  C   C418      1.0  0.20635  0.19081  0.40641  1.0000
  C   C419      1.0  0.19590  0.20172  0.40450  1.0000
  H   H252      1.0  0.19644  0.20973  0.46033  1.0000
  H   H253      1.0  0.21378  0.19121  0.46405  1.0000
  C   C420      1.0  0.17301  0.18943  0.61948  1.0000
  H   H254      1.0  0.18330  0.18437  0.59524  1.0000
  H   H255      1.0  0.18182  0.20552  0.63714  1.0000
  H   H256      1.0  0.16265  0.18766  0.56519  1.0000
  C   C421      1.0  0.79862  0.00267  0.40639  1.0000
  C   C422      1.0  0.78772  0.98131  0.40449  1.0000
  H   H257      1.0  0.77970  0.97385  0.46031  1.0000
  H   H258      1.0  0.79823  0.00972  0.46403  1.0000
  C   C423      1.0  0.79999  0.97072  0.61952  1.0000
  H   H259      1.0  0.80505  0.98606  0.59529  1.0000
  H   H260      1.0  0.78390  0.96344  0.63724  1.0000
  H   H261      1.0  0.80175  0.96213  0.56520  1.0000
  C   C424      1.0  0.98677  0.78309  0.40641  1.0000
  H   H262      1.0  0.97973  0.77566  0.46404  1.0000
  C   C425      1.0  0.78815  0.79357  0.40643  1.0000
  C   C426      1.0  0.79860  0.78267  0.40452  1.0000
  H   H263      1.0  0.79805  0.77466  0.46034  1.0000
  H   H264      1.0  0.78071  0.79318  0.46407  1.0000
  C   C427      1.0  0.82148  0.79496  0.61950  1.0000
  H   H265      1.0  0.81119  0.80002  0.59527  1.0000
  H   H266      1.0  0.81267  0.77887  0.63717  1.0000
  H   H267      1.0  0.83184  0.79673  0.56520  1.0000
  C   C428      1.0  0.19586  0.98171  0.40644  1.0000
  C   C429      1.0  0.20678  0.00307  0.40452  1.0000
  H   H268      1.0  0.21479  0.01053  0.46034  1.0000
  H   H269      1.0  0.19627  0.97467  0.46405  1.0000
  C   C430      1.0  0.19448  0.01366  0.61950  1.0000
  H   H270      1.0  0.18942  0.99832  0.59526  1.0000
  H   H271      1.0  0.21058  0.02094  0.63716  1.0000
  H   H272      1.0  0.19272  0.02225  0.56520  1.0000
  C   C431      1.0  0.98636  0.19084  0.40451  1.0000
  H   H273      1.0  0.97890  0.19138  0.46034  1.0000
  C   C432      1.0  0.97577  0.16794  0.61948  1.0000
  H   H274      1.0  0.99111  0.17823  0.59523  1.0000
  H   H275      1.0  0.96849  0.17677  0.63712  1.0000
  H   H276      1.0  0.96718  0.15759  0.56520  1.0000
  C   C433      1.0  0.22739  0.59859  0.40737  1.0000
  C   C434      1.0  0.22733  0.61706  0.40520  1.0000
  H   H277      1.0  0.23436  0.62717  0.45623  1.0000
  H   H278      1.0  0.23447  0.59603  0.45984  1.0000
  C   C435      1.0  0.20166  0.61212  0.62723  1.0000
  H   H279      1.0  0.20471  0.60027  0.60422  1.0000
  H   H280      1.0  0.21606  0.62577  0.64303  1.0000
  H   H281      1.0  0.19442  0.61564  0.57253  1.0000
  C   C436      1.0  0.39085  0.61594  0.40744  1.0000
  C   C437      1.0  0.37236  0.59743  0.40517  1.0000
  H   H282      1.0  0.36227  0.59430  0.45631  1.0000
  H   H283      1.0  0.39341  0.62559  0.45990  1.0000
  C   C438      1.0  0.37733  0.57666  0.62722  1.0000
  H   H284      1.0  0.38918  0.59156  0.60418  1.0000
  H   H285      1.0  0.36366  0.57741  0.64296  1.0000
  H   H286      1.0  0.37382  0.56590  0.57256  1.0000
  C   C439      1.0  0.37350  0.76205  0.40737  1.0000
  C   C440      1.0  0.39204  0.76212  0.40524  1.0000
  H   H287      1.0  0.39513  0.75508  0.45621  1.0000
  H   H288      1.0  0.36386  0.75496  0.45982  1.0000
  C   C441      1.0  0.41277  0.78780  0.62721  1.0000
  H   H289      1.0  0.39787  0.78475  0.60420  1.0000
  H   H290      1.0  0.41202  0.77339  0.64297  1.0000
  H   H291      1.0  0.42353  0.79504  0.57252  1.0000
  C   C442      1.0  0.76710  0.38581  0.40744  1.0000
  C   C443      1.0  0.76715  0.36733  0.40530  1.0000
  H   H292      1.0  0.76013  0.35723  0.45636  1.0000
  H   H293      1.0  0.76002  0.38838  0.45989  1.0000
  C   C444      1.0  0.79283  0.37221  0.62735  1.0000
  H   H294      1.0  0.78979  0.38407  0.60429  1.0000
  H   H295      1.0  0.77842  0.35856  0.64314  1.0000
  H   H296      1.0  0.80006  0.36868  0.57268  1.0000
  C   C445      1.0  0.60365  0.36843  0.40742  1.0000
  C   C446      1.0  0.62212  0.38696  0.40531  1.0000
  H   H297      1.0  0.63224  0.39005  0.45631  1.0000
  H   H298      1.0  0.60108  0.35879  0.45990  1.0000
  C   C447      1.0  0.61721  0.40774  0.62729  1.0000
  H   H299      1.0  0.60535  0.39285  0.60425  1.0000
  H   H300      1.0  0.63086  0.40698  0.64305  1.0000
  H   H301      1.0  0.62074  0.41851  0.57263  1.0000
  C   C448      1.0  0.62099  0.22232  0.40729  1.0000
  C   C449      1.0  0.60246  0.22227  0.40513  1.0000
  H   H302      1.0  0.59937  0.22929  0.45617  1.0000
  H   H303      1.0  0.63063  0.22941  0.45975  1.0000
  C   C450      1.0  0.58169  0.19658  0.62716  1.0000
  H   H304      1.0  0.59659  0.19962  0.60413  1.0000
  H   H305      1.0  0.58244  0.21098  0.64294  1.0000
  H   H306      1.0  0.57093  0.18934  0.57248  1.0000
