data_image0
_chemical_formula_structural       N8C4HCH3C4HCH3C4HCH3C4HCH3C4HCH3C4HCH3C4HCH3C4HCH3N8C4HCH3C4HCH3C4HCH3C4HCH3N8C4HCH3C4HCH3N8C4HCH3C4HCH3C4HCH3C4HCH3C4HCH3C4HCH3C4HCH3C4HCH3N8CNCNCNCNCNCNCNCNCNCNCNCNCNCNCNCNCNCNCNCNCNCNCNCNCNCNCNCNCNCNCNCNCNCNCNCNCNCNCNCNCNCNCNCNCNCNCNCNCNCNCNCNCNCNCNCNCNCNCNCNCNCNCNCNCNCNCNCNCNCNCNCNCNCNCNCNCNCNCNCNCNCNCNCNC4HCH3C4HCH3C4HCH3C4HCH3N16C4HCH3C4HCH3C4HCH3C4HCH3N8C4HCH3C4HCH3C4HCH3C4HCH3N4C4HCH3C4HCH3C4HCH3C4HCH3N16C4HCH3C4HCH3C4HCH3C4HCH3
_chemical_formula_sum              "N168 C294 H168"
_cell_length_a       50.9852
_cell_length_b       50.9852
_cell_length_c       14.7858
_cell_angle_alpha    90
_cell_angle_beta     90
_cell_angle_gamma    90

_space_group_name_H-M_alt    "P 1"
_space_group_IT_number       1

loop_
  _space_group_symop_operation_xyz
  'x, y, z'

loop_
  _atom_site_type_symbol
  _atom_site_label
  _atom_site_symmetry_multiplicity
  _atom_site_fract_x
  _atom_site_fract_y
  _atom_site_fract_z
  _atom_site_occupancy
  N   N1        1.0  0.12054  0.14666  0.35849  1.0000
  N   N2        1.0  0.13825  0.16509  0.36090  1.0000
  N   N3        1.0  0.89380  0.86852  0.35936  1.0000
  N   N4        1.0  0.87634  0.84985  0.36257  1.0000
  N   N5        1.0  0.86776  0.12108  0.35908  1.0000
  N   N6        1.0  0.84916  0.13863  0.36200  1.0000
  N   N7        1.0  0.14587  0.89436  0.35888  1.0000
  N   N8        1.0  0.16437  0.87673  0.36143  1.0000
  C   C1        1.0  0.10017  0.97983  0.30543  1.0000
  C   C2        1.0  0.09160  0.99287  0.22667  1.0000
  C   C3        1.0  0.09071  0.02050  0.22380  1.0000
  C   C4        1.0  0.09878  0.03433  0.30250  1.0000
  H   H1        1.0  0.08452  0.98217  0.17336  1.0000
  C   C5        1.0  0.08114  0.03387  0.14064  1.0000
  H   H2        1.0  0.07919  0.02039  0.08361  1.0000
  H   H3        1.0  0.09489  0.04923  0.12085  1.0000
  H   H4        1.0  0.06195  0.04259  0.15284  1.0000
  C   C6        1.0  0.91368  0.03567  0.30583  1.0000
  C   C7        1.0  0.92217  0.02263  0.22696  1.0000
  C   C8        1.0  0.92295  0.99500  0.22392  1.0000
  C   C9        1.0  0.91488  0.98114  0.30258  1.0000
  H   H5        1.0  0.92916  0.03334  0.17352  1.0000
  C   C10       1.0  0.93239  0.98163  0.14059  1.0000
  H   H6        1.0  0.93435  0.99513  0.08362  1.0000
  H   H7        1.0  0.91855  0.96634  0.12085  1.0000
  H   H8        1.0  0.95155  0.97282  0.15253  1.0000
  C   C11       1.0  0.03485  0.10111  0.30556  1.0000
  C   C12       1.0  0.02179  0.09261  0.22675  1.0000
  C   C13       1.0  0.99416  0.09172  0.22391  1.0000
  C   C14       1.0  0.98031  0.09977  0.30260  1.0000
  H   H9        1.0  0.03248  0.08555  0.17336  1.0000
  C   C15       1.0  0.98078  0.08218  0.14072  1.0000
  H   H10       1.0  0.99426  0.08023  0.08369  1.0000
  H   H11       1.0  0.96544  0.09597  0.12096  1.0000
  H   H12       1.0  0.97203  0.06301  0.15287  1.0000
  C   C16       1.0  0.97902  0.91455  0.30560  1.0000
  C   C17       1.0  0.99204  0.92306  0.22673  1.0000
  C   C18       1.0  0.01967  0.92386  0.22378  1.0000
  C   C19       1.0  0.03350  0.91578  0.30247  1.0000
  H   H13       1.0  0.98133  0.93009  0.17336  1.0000
  C   C20       1.0  0.03305  0.93334  0.14052  1.0000
  H   H14       1.0  0.01957  0.93527  0.08349  1.0000
  H   H15       1.0  0.04838  0.91953  0.12083  1.0000
  H   H16       1.0  0.04182  0.95252  0.15252  1.0000
  C   C21       1.0  0.16679  0.30319  0.31411  1.0000
  C   C22       1.0  0.19005  0.29527  0.26965  1.0000
  C   C23       1.0  0.19952  0.26930  0.27678  1.0000
  C   C24       1.0  0.18485  0.25132  0.33031  1.0000
  H   H17       1.0  0.20066  0.30883  0.23397  1.0000
  C   C25       1.0  0.22385  0.26193  0.22729  1.0000
  H   H18       1.0  0.23050  0.27731  0.18126  1.0000
  H   H19       1.0  0.22037  0.24433  0.18699  1.0000
  H   H20       1.0  0.23967  0.25818  0.27511  1.0000
  C   C26       1.0  0.84797  0.71100  0.31934  1.0000
  C   C27       1.0  0.82517  0.71920  0.27268  1.0000
  C   C28       1.0  0.81585  0.74524  0.27934  1.0000
  C   C29       1.0  0.83021  0.76303  0.33459  1.0000
  H   H21       1.0  0.81471  0.70578  0.23583  1.0000
  C   C30       1.0  0.79201  0.75289  0.22756  1.0000
  H   H22       1.0  0.78564  0.73764  0.18053  1.0000
  H   H23       1.0  0.79596  0.77053  0.18803  1.0000
  H   H24       1.0  0.77580  0.75667  0.27383  1.0000
  C   C31       1.0  0.71041  0.16697  0.31944  1.0000
  C   C32       1.0  0.71850  0.18986  0.27312  1.0000
  C   C33       1.0  0.74453  0.19924  0.27960  1.0000
  C   C34       1.0  0.76242  0.18485  0.33432  1.0000
  H   H25       1.0  0.70502  0.20033  0.23657  1.0000
  C   C35       1.0  0.75204  0.22319  0.22819  1.0000
  H   H26       1.0  0.73672  0.22960  0.18154  1.0000
  H   H27       1.0  0.76964  0.21934  0.18827  1.0000
  H   H28       1.0  0.75585  0.23932  0.27473  1.0000
  C   C36       1.0  0.30259  0.84816  0.31424  1.0000
  C   C37       1.0  0.29458  0.82502  0.26927  1.0000
  C   C38       1.0  0.26858  0.81563  0.27640  1.0000
  C   C39       1.0  0.25069  0.83024  0.33043  1.0000
  H   H29       1.0  0.30808  0.81442  0.23329  1.0000
  C   C40       1.0  0.26108  0.79142  0.22639  1.0000
  H   H30       1.0  0.27639  0.78483  0.17999  1.0000
  H   H31       1.0  0.24345  0.79504  0.18642  1.0000
  H   H32       1.0  0.25735  0.77550  0.27386  1.0000
  N   N9        1.0  0.85028  0.26155  0.36044  1.0000
  N   N10       1.0  0.85832  0.28602  0.36025  1.0000
  N   N11       1.0  0.16293  0.75388  0.36124  1.0000
  N   N12       1.0  0.15487  0.72944  0.36134  1.0000
  N   N13       1.0  0.26137  0.16361  0.35950  1.0000
  N   N14       1.0  0.28586  0.15565  0.35967  1.0000
  N   N15       1.0  0.75369  0.85096  0.36206  1.0000
  N   N16       1.0  0.72927  0.85909  0.36160  1.0000
  C   C41       1.0  0.37967  0.10940  0.33838  1.0000
  C   C42       1.0  0.40340  0.10518  0.29150  1.0000
  C   C43       1.0  0.41467  0.07983  0.28383  1.0000
  C   C44       1.0  0.40195  0.05812  0.32714  1.0000
  H   H33       1.0  0.41253  0.12085  0.26171  1.0000
  C   C45       1.0  0.43890  0.07729  0.22801  1.0000
  H   H34       1.0  0.44324  0.09494  0.18887  1.0000
  H   H35       1.0  0.43672  0.06122  0.17982  1.0000
  H   H36       1.0  0.45577  0.07357  0.27151  1.0000
  C   C46       1.0  0.63699  0.90656  0.33342  1.0000
  C   C47       1.0  0.61600  0.91172  0.27391  1.0000
  C   C48       1.0  0.60616  0.93751  0.26186  1.0000
  C   C49       1.0  0.61657  0.95831  0.31609  1.0000
  H   H37       1.0  0.60841  0.89667  0.23617  1.0000
  C   C50       1.0  0.58608  0.94107  0.18970  1.0000
  H   H38       1.0  0.59210  0.93087  0.12812  1.0000
  H   H39       1.0  0.58326  0.96155  0.17106  1.0000
  H   H40       1.0  0.56739  0.93293  0.21221  1.0000
  C   C51       1.0  0.90497  0.37975  0.33850  1.0000
  C   C52       1.0  0.90925  0.40344  0.29142  1.0000
  C   C53       1.0  0.93462  0.41469  0.28381  1.0000
  C   C54       1.0  0.95629  0.40199  0.32742  1.0000
  H   H41       1.0  0.89361  0.41255  0.26142  1.0000
  C   C55       1.0  0.93720  0.43887  0.22775  1.0000
  H   H42       1.0  0.91959  0.44316  0.18836  1.0000
  H   H43       1.0  0.95331  0.43664  0.17976  1.0000
  H   H44       1.0  0.94087  0.45578  0.27109  1.0000
  C   C56       1.0  0.10783  0.63708  0.33344  1.0000
  C   C57       1.0  0.10273  0.61606  0.27399  1.0000
  C   C58       1.0  0.07697  0.60617  0.26183  1.0000
  C   C59       1.0  0.05611  0.61661  0.31570  1.0000
  H   H45       1.0  0.11784  0.60843  0.23658  1.0000
  C   C60       1.0  0.07349  0.58601  0.18988  1.0000
  H   H46       1.0  0.08375  0.59198  0.12835  1.0000
  H   H47       1.0  0.05303  0.58317  0.17102  1.0000
  H   H48       1.0  0.08161  0.56735  0.21271  1.0000
  N   N17       1.0  0.63648  0.06211  0.32897  1.0000
  N   N18       1.0  0.64693  0.08576  0.32808  1.0000
  N   N19       1.0  0.37630  0.95314  0.32067  1.0000
  N   N20       1.0  0.36627  0.92932  0.31819  1.0000
  N   N21       1.0  0.06139  0.37646  0.32081  1.0000
  N   N22       1.0  0.08525  0.36650  0.31838  1.0000
  N   N23       1.0  0.95242  0.63669  0.32876  1.0000
  N   N24       1.0  0.92881  0.64721  0.32792  1.0000
  C   C61       1.0  0.53468  0.00409  0.32782  1.0000
  C   C62       1.0  0.52120  0.98201  0.29372  1.0000
  C   C63       1.0  0.49345  0.98141  0.29032  1.0000
  C   C64       1.0  0.47945  0.00356  0.32401  1.0000
  H   H49       1.0  0.53167  0.96634  0.27005  1.0000
  C   C65       1.0  0.48032  0.95848  0.24742  1.0000
  H   H50       1.0  0.49422  0.94508  0.21526  1.0000
  H   H51       1.0  0.46676  0.96519  0.19523  1.0000
  H   H52       1.0  0.46955  0.94731  0.29802  1.0000
  C   C66       1.0  0.01027  0.53477  0.32767  1.0000
  C   C67       1.0  0.03233  0.52127  0.29350  1.0000
  C   C68       1.0  0.03293  0.49352  0.29019  1.0000
  C   C69       1.0  0.01080  0.47954  0.32410  1.0000
  H   H53       1.0  0.04799  0.53173  0.26964  1.0000
  C   C70       1.0  0.05584  0.48038  0.24719  1.0000
  H   H54       1.0  0.06922  0.49427  0.21488  1.0000
  H   H55       1.0  0.04910  0.46680  0.19511  1.0000
  H   H56       1.0  0.06704  0.46964  0.29777  1.0000
  N   N25       1.0  0.24924  0.38422  0.34176  1.0000
  N   N26       1.0  0.22588  0.37380  0.33761  1.0000
  N   N27       1.0  0.76397  0.63118  0.34696  1.0000
  N   N28       1.0  0.78743  0.64141  0.34330  1.0000
  N   N29       1.0  0.63013  0.25051  0.34604  1.0000
  N   N30       1.0  0.64046  0.22710  0.34230  1.0000
  N   N31       1.0  0.38316  0.76523  0.34299  1.0000
  N   N32       1.0  0.37282  0.78863  0.33898  1.0000
  C   C71       1.0  0.80831  0.38950  0.34562  1.0000
  C   C72       1.0  0.80582  0.41615  0.32153  1.0000
  C   C73       1.0  0.78068  0.42826  0.31618  1.0000
  C   C74       1.0  0.75786  0.41291  0.33602  1.0000
  H   H57       1.0  0.82244  0.42665  0.30747  1.0000
  C   C75       1.0  0.77921  0.45629  0.28887  1.0000
  H   H58       1.0  0.79842  0.46467  0.27363  1.0000
  H   H59       1.0  0.77065  0.46788  0.34343  1.0000
  H   H60       1.0  0.76716  0.45823  0.22825  1.0000
  C   C76       1.0  0.20457  0.62611  0.34309  1.0000
  C   C77       1.0  0.20715  0.59954  0.31820  1.0000
  C   C78       1.0  0.23235  0.58751  0.31279  1.0000
  C   C79       1.0  0.25513  0.60286  0.33326  1.0000
  H   H61       1.0  0.19058  0.58903  0.30373  1.0000
  C   C80       1.0  0.23391  0.55955  0.28467  1.0000
  H   H62       1.0  0.21473  0.55118  0.26886  1.0000
  H   H63       1.0  0.24242  0.54785  0.33904  1.0000
  H   H64       1.0  0.24604  0.55779  0.22420  1.0000
  C   C81       1.0  0.38890  0.20617  0.34520  1.0000
  C   C82       1.0  0.41552  0.20881  0.32093  1.0000
  C   C83       1.0  0.42746  0.23402  0.31537  1.0000
  C   C84       1.0  0.41197  0.25676  0.33514  1.0000
  H   H65       1.0  0.42612  0.19225  0.30693  1.0000
  C   C85       1.0  0.45547  0.23563  0.28786  1.0000
  H   H66       1.0  0.46394  0.21647  0.27261  1.0000
  H   H67       1.0  0.46704  0.24428  0.34231  1.0000
  H   H68       1.0  0.45731  0.24768  0.22718  1.0000
  C   C86       1.0  0.62550  0.80991  0.34322  1.0000
  C   C87       1.0  0.59888  0.80747  0.31868  1.0000
  C   C88       1.0  0.58668  0.78235  0.31357  1.0000
  C   C89       1.0  0.60191  0.75949  0.33404  1.0000
  H   H69       1.0  0.58845  0.82410  0.30421  1.0000
  C   C90       1.0  0.55868  0.78093  0.28585  1.0000
  H   H70       1.0  0.55039  0.80014  0.27011  1.0000
  H   H71       1.0  0.54700  0.77249  0.34039  1.0000
  H   H72       1.0  0.55679  0.76879  0.22543  1.0000
  C   C91       1.0  0.31879  0.53353  0.31445  1.0000
  C   C92       1.0  0.30417  0.51931  0.24976  1.0000
  C   C93       1.0  0.30309  0.49158  0.25173  1.0000
  C   C94       1.0  0.31713  0.47816  0.32106  1.0000
  H   H73       1.0  0.29338  0.52935  0.20270  1.0000
  C   C95       1.0  0.28737  0.47764  0.18171  1.0000
  H   H74       1.0  0.28120  0.49060  0.12689  1.0000
  H   H75       1.0  0.26972  0.46931  0.21179  1.0000
  H   H76       1.0  0.29901  0.46190  0.15178  1.0000
  C   C96       1.0  0.69405  0.48222  0.31658  1.0000
  C   C97       1.0  0.70841  0.49640  0.25113  1.0000
  C   C98       1.0  0.70932  0.52414  0.25253  1.0000
  C   C99       1.0  0.69542  0.53758  0.32216  1.0000
  H   H77       1.0  0.71910  0.48634  0.20383  1.0000
  C   C100      1.0  0.72469  0.53809  0.18163  1.0000
  H   H78       1.0  0.73084  0.52507  0.12694  1.0000
  H   H79       1.0  0.74233  0.54667  0.21084  1.0000
  H   H80       1.0  0.71280  0.55364  0.15171  1.0000
  C   C101      1.0  0.48107  0.32062  0.31562  1.0000
  C   C102      1.0  0.49526  0.30613  0.25052  1.0000
  C   C103      1.0  0.52298  0.30499  0.25253  1.0000
  C   C104      1.0  0.53639  0.31885  0.32232  1.0000
  H   H81       1.0  0.48521  0.29542  0.20324  1.0000
  C   C105      1.0  0.53693  0.28941  0.18216  1.0000
  H   H82       1.0  0.52396  0.28331  0.12726  1.0000
  H   H83       1.0  0.54529  0.27172  0.21184  1.0000
  H   H84       1.0  0.55265  0.30112  0.15244  1.0000
  C   C106      1.0  0.53239  0.69586  0.31543  1.0000
  C   C107      1.0  0.51817  0.71036  0.25044  1.0000
  C   C108      1.0  0.49043  0.71123  0.25185  1.0000
  C   C109      1.0  0.47700  0.69715  0.32111  1.0000
  H   H85       1.0  0.52821  0.72116  0.20339  1.0000
  C   C110      1.0  0.47647  0.72676  0.18134  1.0000
  H   H86       1.0  0.48948  0.73296  0.12668  1.0000
  H   H87       1.0  0.46797  0.74438  0.21099  1.0000
  H   H88       1.0  0.46087  0.71496  0.15130  1.0000
  N   N33       1.0  0.37128  0.39128  0.33534  1.0000
  N   N34       1.0  0.39060  0.37411  0.33146  1.0000
  N   N35       1.0  0.64180  0.62476  0.33655  1.0000
  N   N36       1.0  0.62257  0.64202  0.33252  1.0000
  N   N37       1.0  0.62333  0.37261  0.33725  1.0000
  N   N38       1.0  0.64053  0.39191  0.33338  1.0000
  N   N39       1.0  0.38987  0.64311  0.33465  1.0000
  N   N40       1.0  0.37262  0.62385  0.33065  1.0000
  C   C111      1.0  0.06128  0.09466  0.31991  1.0000
  N   N41       1.0  0.07949  0.11155  0.35292  1.0000
  C   C112      1.0  0.10461  0.10349  0.36899  1.0000
  N   N42       1.0  0.11105  0.07812  0.35064  1.0000
  C   C113      1.0  0.09324  0.06099  0.31713  1.0000
  N   N43       1.0  0.06849  0.06957  0.30332  1.0000
  C   C114      1.0  0.95259  0.92094  0.31997  1.0000
  N   N44       1.0  0.93444  0.90396  0.35280  1.0000
  C   C115      1.0  0.90929  0.91191  0.36881  1.0000
  N   N45       1.0  0.90274  0.93727  0.35064  1.0000
  C   C116      1.0  0.92049  0.95450  0.31733  1.0000
  N   N46       1.0  0.94528  0.94601  0.30349  1.0000
  C   C117      1.0  0.92009  0.06210  0.32026  1.0000
  N   N47       1.0  0.90312  0.08030  0.35291  1.0000
  C   C118      1.0  0.91110  0.10545  0.36877  1.0000
  N   N48       1.0  0.93647  0.11195  0.35058  1.0000
  C   C119      1.0  0.95368  0.09415  0.31743  1.0000
  N   N49       1.0  0.94516  0.06937  0.30373  1.0000
  C   C120      1.0  0.09375  0.95341  0.31992  1.0000
  N   N50       1.0  0.11067  0.93526  0.35309  1.0000
  C   C121      1.0  0.10265  0.91014  0.36930  1.0000
  N   N51       1.0  0.07730  0.90362  0.35093  1.0000
  C   C122      1.0  0.06013  0.92138  0.31730  1.0000
  N   N52       1.0  0.06867  0.94614  0.30329  1.0000
  C   C123      1.0  0.22636  0.19396  0.38363  1.0000
  N   N53       1.0  0.21844  0.21864  0.36173  1.0000
  C   C124      1.0  0.19274  0.22524  0.35094  1.0000
  N   N54       1.0  0.17458  0.20612  0.36441  1.0000
  C   C125      1.0  0.18162  0.18117  0.38639  1.0000
  N   N55       1.0  0.20756  0.17546  0.39451  1.0000
  C   C126      1.0  0.78846  0.82034  0.38595  1.0000
  N   N56       1.0  0.79653  0.79564  0.36490  1.0000
  C   C127      1.0  0.82228  0.78912  0.35475  1.0000
  N   N57       1.0  0.84035  0.80836  0.36778  1.0000
  C   C128      1.0  0.83316  0.83334  0.38889  1.0000
  N   N58       1.0  0.80718  0.83893  0.39642  1.0000
  C   C129      1.0  0.81983  0.22660  0.38486  1.0000
  N   N59       1.0  0.79510  0.21853  0.36414  1.0000
  C   C130      1.0  0.78855  0.19279  0.35415  1.0000
  N   N60       1.0  0.80778  0.17471  0.36708  1.0000
  C   C131      1.0  0.83279  0.18189  0.38788  1.0000
  N   N61       1.0  0.83842  0.20787  0.39529  1.0000
  C   C132      1.0  0.19345  0.78872  0.38456  1.0000
  N   N62       1.0  0.21810  0.79666  0.36232  1.0000
  C   C133      1.0  0.22464  0.82236  0.35135  1.0000
  N   N63       1.0  0.20552  0.84051  0.36493  1.0000
  C   C134      1.0  0.18060  0.83344  0.38723  1.0000
  N   N64       1.0  0.17494  0.80750  0.39552  1.0000
  C   C135      1.0  0.41008  0.98498  0.35613  1.0000
  N   N65       1.0  0.39828  0.00920  0.34833  1.0000
  C   C136      1.0  0.41251  0.03182  0.33316  1.0000
  N   N66       1.0  0.43903  0.02893  0.32707  1.0000
  C   C137      1.0  0.45166  0.00558  0.33062  1.0000
  N   N67       1.0  0.43650  0.98428  0.34533  1.0000
  C   C138      1.0  0.60197  0.03020  0.35411  1.0000
  N   N68       1.0  0.61611  0.00737  0.34218  1.0000
  C   C139      1.0  0.60417  0.98357  0.32600  1.0000
  N   N69       1.0  0.57751  0.98357  0.32378  1.0000
  C   C140      1.0  0.56250  0.00530  0.33328  1.0000
  N   N70       1.0  0.57539  0.02813  0.34782  1.0000
  C   C141      1.0  0.02945  0.41018  0.35620  1.0000
  N   N71       1.0  0.00523  0.39836  0.34857  1.0000
  C   C142      1.0  0.98259  0.41257  0.33351  1.0000
  N   N72       1.0  0.98545  0.43909  0.32736  1.0000
  C   C143      1.0  0.00879  0.45175  0.33083  1.0000
  N   N73       1.0  0.03011  0.43660  0.34542  1.0000
  C   C144      1.0  0.98422  0.60208  0.35370  1.0000
  N   N74       1.0  0.00706  0.61619  0.34180  1.0000
  C   C145      1.0  0.03085  0.60423  0.32558  1.0000
  N   N75       1.0  0.03082  0.57757  0.32344  1.0000
  C   C146      1.0  0.00907  0.56259  0.33302  1.0000
  N   N76       1.0  0.98626  0.57550  0.34755  1.0000
  C   C147      1.0  0.32693  0.40649  0.36361  1.0000
  N   N77       1.0  0.33249  0.43249  0.34834  1.0000
  C   C148      1.0  0.31313  0.45103  0.34080  1.0000
  N   N78       1.0  0.28784  0.44293  0.34963  1.0000
  C   C149      1.0  0.28084  0.41766  0.36445  1.0000
  N   N79       1.0  0.30095  0.40012  0.36915  1.0000
  C   C150      1.0  0.68608  0.60932  0.36471  1.0000
  N   N80       1.0  0.68032  0.58338  0.34928  1.0000
  C   C151      1.0  0.69954  0.56469  0.34178  1.0000
  N   N81       1.0  0.72488  0.57260  0.35081  1.0000
  C   C152      1.0  0.73208  0.59779  0.36579  1.0000
  N   N82       1.0  0.71211  0.61548  0.37056  1.0000
  C   C153      1.0  0.60806  0.32830  0.36530  1.0000
  N   N83       1.0  0.58211  0.33399  0.34980  1.0000
  C   C154      1.0  0.56349  0.31472  0.34202  1.0000
  N   N84       1.0  0.57147  0.28940  0.35096  1.0000
  C   C155      1.0  0.59668  0.28227  0.36606  1.0000
  N   N85       1.0  0.61431  0.30229  0.37101  1.0000
  C   C156      1.0  0.40524  0.68744  0.36297  1.0000
  N   N86       1.0  0.43124  0.68181  0.34787  1.0000
  C   C157      1.0  0.44985  0.70112  0.34057  1.0000
  N   N87       1.0  0.44179  0.72642  0.34953  1.0000
  C   C158      1.0  0.41656  0.73350  0.36420  1.0000
  N   N88       1.0  0.39896  0.71344  0.36869  1.0000
  C   C159      1.0  0.68497  0.41019  0.35099  1.0000
  N   N89       1.0  0.67893  0.43623  0.34019  1.0000
  C   C160      1.0  0.69808  0.45470  0.32703  1.0000
  N   N90       1.0  0.72345  0.44640  0.32550  1.0000
  C   C161      1.0  0.73087  0.42107  0.33605  1.0000
  N   N91       1.0  0.71096  0.40360  0.34879  1.0000
  C   C162      1.0  0.32809  0.60562  0.34819  1.0000
  N   N92       1.0  0.33407  0.57955  0.33763  1.0000
  C   C163      1.0  0.31489  0.56109  0.32467  1.0000
  N   N93       1.0  0.28955  0.56944  0.32308  1.0000
  C   C164      1.0  0.28215  0.59478  0.33335  1.0000
  N   N94       1.0  0.30209  0.61224  0.34595  1.0000
  C   C165      1.0  0.40898  0.32969  0.34940  1.0000
  N   N95       1.0  0.43502  0.33577  0.33873  1.0000
  C   C166      1.0  0.45354  0.31664  0.32590  1.0000
  N   N96       1.0  0.44528  0.29126  0.32459  1.0000
  C   C167      1.0  0.41998  0.28379  0.33501  1.0000
  N   N97       1.0  0.40244  0.30367  0.34743  1.0000
  C   C168      1.0  0.60443  0.68657  0.34968  1.0000
  N   N98       1.0  0.57836  0.68062  0.33905  1.0000
  C   C169      1.0  0.55993  0.69981  0.32579  1.0000
  N   N99       1.0  0.56832  0.72516  0.32398  1.0000
  C   C170      1.0  0.59368  0.73251  0.33437  1.0000
  N   N100      1.0  0.61109  0.71255  0.34723  1.0000
  C   C171      1.0  0.17896  0.37261  0.35071  1.0000
  N   N101      1.0  0.15405  0.38211  0.36169  1.0000
  C   C172      1.0  0.13217  0.36644  0.35395  1.0000
  N   N102      1.0  0.13593  0.34034  0.33639  1.0000
  C   C173      1.0  0.16041  0.33013  0.32443  1.0000
  N   N103      1.0  0.18098  0.34671  0.33260  1.0000
  C   C174      1.0  0.83442  0.64177  0.35396  1.0000
  N   N104      1.0  0.85913  0.63167  0.36324  1.0000
  C   C175      1.0  0.88138  0.64682  0.35621  1.0000
  N   N105      1.0  0.87816  0.67311  0.34041  1.0000
  C   C176      1.0  0.85386  0.68394  0.32974  1.0000
  N   N106      1.0  0.83292  0.66780  0.33751  1.0000
  C   C177      1.0  0.64110  0.18013  0.35398  1.0000
  N   N107      1.0  0.63112  0.15538  0.36334  1.0000
  C   C178      1.0  0.64638  0.13320  0.35638  1.0000
  N   N108      1.0  0.67266  0.13656  0.34059  1.0000
  C   C179      1.0  0.68338  0.16091  0.32993  1.0000
  N   N109      1.0  0.66712  0.18176  0.33755  1.0000
  C   C180      1.0  0.37194  0.83558  0.35093  1.0000
  N   N110      1.0  0.38158  0.86045  0.36169  1.0000
  C   C181      1.0  0.36602  0.88240  0.35386  1.0000
  N   N111      1.0  0.33990  0.87879  0.33640  1.0000
  C   C182      1.0  0.32955  0.85435  0.32474  1.0000
  N   N112      1.0  0.34602  0.83369  0.33292  1.0000
  C   C183      1.0  0.83236  0.37522  0.35252  1.0000
  N   N113      1.0  0.85727  0.38453  0.34145  1.0000
  C   C184      1.0  0.87913  0.36888  0.34936  1.0000
  N   N114      1.0  0.87524  0.34281  0.36832  1.0000
  C   C185      1.0  0.85065  0.33270  0.38067  1.0000
  N   N115      1.0  0.83024  0.34943  0.37157  1.0000
  C   C186      1.0  0.18048  0.64036  0.35045  1.0000
  N   N116      1.0  0.15550  0.63131  0.33776  1.0000
  C   C187      1.0  0.13381  0.64719  0.34669  1.0000
  N   N117      1.0  0.13786  0.67307  0.36757  1.0000
  C   C188      1.0  0.16249  0.68286  0.38123  1.0000
  N   N118      1.0  0.18277  0.66602  0.37145  1.0000
  C   C189      1.0  0.37480  0.18202  0.35230  1.0000
  N   N119      1.0  0.38425  0.15715  0.34116  1.0000
  C   C190      1.0  0.36872  0.13521  0.34925  1.0000
  N   N120      1.0  0.34266  0.13894  0.36842  1.0000
  C   C191      1.0  0.33243  0.16347  0.38085  1.0000
  N   N121      1.0  0.34902  0.18399  0.37162  1.0000
  C   C192      1.0  0.63992  0.83390  0.35026  1.0000
  N   N122      1.0  0.63101  0.85894  0.33777  1.0000
  C   C193      1.0  0.64702  0.88053  0.34651  1.0000
  N   N123      1.0  0.67290  0.87632  0.36706  1.0000
  C   C194      1.0  0.68259  0.85162  0.38034  1.0000
  N   N124      1.0  0.66559  0.83146  0.37085  1.0000
  C   C195      1.0  0.16263  0.16121  0.39501  1.0000
  C   C196      1.0  0.16819  0.13630  0.43205  1.0000
  C   C197      1.0  0.14916  0.11615  0.43038  1.0000
  C   C198      1.0  0.12446  0.12189  0.38996  1.0000
  H   H89       1.0  0.18634  0.13267  0.45890  1.0000
  C   C199      1.0  0.15561  0.09031  0.47159  1.0000
  H   H90       1.0  0.17378  0.09084  0.51067  1.0000
  H   H91       1.0  0.15800  0.07555  0.41886  1.0000
  H   H92       1.0  0.13993  0.08430  0.51737  1.0000
  C   C200      1.0  0.85194  0.85353  0.39675  1.0000
  C   C201      1.0  0.84610  0.87847  0.43301  1.0000
  C   C202      1.0  0.86486  0.89888  0.43042  1.0000
  C   C203      1.0  0.88959  0.89334  0.38986  1.0000
  H   H93       1.0  0.82793  0.88197  0.45987  1.0000
  C   C204      1.0  0.85810  0.92475  0.47079  1.0000
  H   H94       1.0  0.83992  0.92412  0.50978  1.0000
  H   H95       1.0  0.85559  0.93934  0.41759  1.0000
  H   H96       1.0  0.87370  0.93104  0.51648  1.0000
  C   C205      1.0  0.85292  0.16304  0.39592  1.0000
  C   C206      1.0  0.87788  0.16883  0.43217  1.0000
  C   C207      1.0  0.89820  0.14997  0.42994  1.0000
  C   C208      1.0  0.89258  0.12521  0.38973  1.0000
  H   H97       1.0  0.88143  0.18701  0.45885  1.0000
  C   C209      1.0  0.92408  0.15668  0.47035  1.0000
  H   H98       1.0  0.92350  0.17489  0.50920  1.0000
  H   H99       1.0  0.93870  0.15911  0.41718  1.0000
  H   H100      1.0  0.93032  0.14109  0.51618  1.0000
  C   C210      1.0  0.16058  0.85237  0.39578  1.0000
  C   C211      1.0  0.13570  0.84674  0.43295  1.0000
  C   C212      1.0  0.11547  0.86569  0.43109  1.0000
  C   C213      1.0  0.12112  0.89037  0.39043  1.0000
  H   H101      1.0  0.13214  0.82860  0.45998  1.0000
  C   C214      1.0  0.08966  0.85917  0.47236  1.0000
  H   H102      1.0  0.09026  0.84102  0.51156  1.0000
  H   H103      1.0  0.07490  0.85671  0.41965  1.0000
  H   H104      1.0  0.08360  0.87486  0.51804  1.0000
  N   N125      1.0  0.10756  0.02033  0.37471  1.0000
  N   N126      1.0  0.10813  0.99468  0.37644  1.0000
  N   N127      1.0  0.90629  0.99515  0.37506  1.0000
  N   N128      1.0  0.90578  0.02081  0.37694  1.0000
  N   N129      1.0  0.99434  0.10843  0.37494  1.0000
  N   N130      1.0  0.02000  0.10899  0.37669  1.0000
  N   N131      1.0  0.01950  0.90712  0.37486  1.0000
  N   N132      1.0  0.99384  0.90660  0.37669  1.0000
  N   N133      1.0  0.16209  0.26025  0.36775  1.0000
  N   N134      1.0  0.15364  0.28447  0.36103  1.0000
  N   N135      1.0  0.85259  0.75386  0.37407  1.0000
  N   N136      1.0  0.86089  0.72956  0.36781  1.0000
  N   N137      1.0  0.75335  0.16237  0.37349  1.0000
  N   N138      1.0  0.72906  0.15402  0.36740  1.0000
  N   N139      1.0  0.25971  0.85291  0.36833  1.0000
  N   N140      1.0  0.28395  0.86129  0.36160  1.0000
  C   C215      1.0  0.84380  0.30593  0.39505  1.0000
  C   C216      1.0  0.81946  0.29895  0.43467  1.0000
  C   C217      1.0  0.81036  0.27277  0.43434  1.0000
  C   C218      1.0  0.82663  0.25349  0.39358  1.0000
  H   H105      1.0  0.80786  0.31322  0.46245  1.0000
  C   C219      1.0  0.78490  0.26645  0.47851  1.0000
  H   H106      1.0  0.77655  0.28320  0.51448  1.0000
  H   H107      1.0  0.78761  0.25069  0.52758  1.0000
  H   H108      1.0  0.77066  0.26029  0.42782  1.0000
  C   C220      1.0  0.16943  0.70954  0.39604  1.0000
  C   C221      1.0  0.19383  0.71647  0.43518  1.0000
  C   C222      1.0  0.20295  0.74263  0.43459  1.0000
  C   C223      1.0  0.18663  0.76190  0.39395  1.0000
  H   H109      1.0  0.20545  0.70216  0.46270  1.0000
  C   C224      1.0  0.22849  0.74896  0.47818  1.0000
  H   H110      1.0  0.23688  0.73223  0.51414  1.0000
  H   H111      1.0  0.22587  0.76476  0.52715  1.0000
  H   H112      1.0  0.24265  0.75507  0.42716  1.0000
  C   C225      1.0  0.30565  0.17015  0.39542  1.0000
  C   C226      1.0  0.29853  0.19436  0.43560  1.0000
  C   C227      1.0  0.27233  0.20338  0.43488  1.0000
  C   C228      1.0  0.25320  0.18715  0.39313  1.0000
  H   H113      1.0  0.31273  0.20594  0.46393  1.0000
  C   C229      1.0  0.26583  0.22873  0.47953  1.0000
  H   H114      1.0  0.28247  0.23705  0.51621  1.0000
  H   H115      1.0  0.24996  0.22586  0.52805  1.0000
  H   H116      1.0  0.25975  0.24307  0.42904  1.0000
  C   C230      1.0  0.70924  0.84452  0.39530  1.0000
  C   C231      1.0  0.71601  0.82002  0.43407  1.0000
  C   C232      1.0  0.74215  0.81083  0.43405  1.0000
  C   C233      1.0  0.76159  0.82717  0.39443  1.0000
  H   H117      1.0  0.70162  0.80839  0.46094  1.0000
  C   C234      1.0  0.74829  0.78519  0.47733  1.0000
  H   H118      1.0  0.73143  0.77679  0.51253  1.0000
  H   H119      1.0  0.76395  0.78769  0.52690  1.0000
  H   H120      1.0  0.75450  0.77111  0.42622  1.0000
  N   N141      1.0  0.37876  0.06382  0.36901  1.0000
  N   N142      1.0  0.36836  0.08747  0.37398  1.0000
  N   N143      1.0  0.63701  0.95171  0.37120  1.0000
  N   N144      1.0  0.64673  0.92781  0.37828  1.0000
  N   N145      1.0  0.95055  0.37883  0.36944  1.0000
  N   N146      1.0  0.92688  0.36845  0.37434  1.0000
  N   N147      1.0  0.06265  0.63708  0.37077  1.0000
  N   N148      1.0  0.08652  0.64682  0.37803  1.0000
  C   C235      1.0  0.63516  0.10743  0.36382  1.0000
  C   C236      1.0  0.61081  0.10293  0.40642  1.0000
  C   C237      1.0  0.59945  0.07752  0.40973  1.0000
  C   C238      1.0  0.61275  0.05618  0.36648  1.0000
  H   H121      1.0  0.60128  0.11838  0.43599  1.0000
  C   C239      1.0  0.57447  0.07440  0.46100  1.0000
  H   H122      1.0  0.56984  0.09147  0.50268  1.0000
  H   H123      1.0  0.57581  0.05755  0.50631  1.0000
  H   H124      1.0  0.55818  0.07158  0.41421  1.0000
  C   C240      1.0  0.37654  0.90835  0.36329  1.0000
  C   C241      1.0  0.39850  0.91375  0.41817  1.0000
  C   C242      1.0  0.40914  0.93941  0.42391  1.0000
  C   C243      1.0  0.39781  0.95987  0.37032  1.0000
  H   H125      1.0  0.40666  0.89886  0.45514  1.0000
  C   C244      1.0  0.43102  0.94410  0.48878  1.0000
  H   H126      1.0  0.43334  0.92805  0.53708  1.0000
  H   H127      1.0  0.42729  0.96190  0.52777  1.0000
  H   H128      1.0  0.44951  0.94619  0.45270  1.0000
  C   C245      1.0  0.10618  0.37684  0.36349  1.0000
  C   C246      1.0  0.10070  0.39879  0.41833  1.0000
  C   C247      1.0  0.07500  0.40935  0.42406  1.0000
  C   C248      1.0  0.05459  0.39796  0.37038  1.0000
  H   H129      1.0  0.11556  0.40700  0.45533  1.0000
  C   C249      1.0  0.07025  0.43122  0.48892  1.0000
  H   H130      1.0  0.08627  0.43355  0.53734  1.0000
  H   H131      1.0  0.05242  0.42747  0.52776  1.0000
  H   H132      1.0  0.06817  0.44971  0.45282  1.0000
  C   C250      1.0  0.90710  0.63549  0.36363  1.0000
  C   C251      1.0  0.91152  0.61111  0.40609  1.0000
  C   C252      1.0  0.93689  0.59967  0.40934  1.0000
  C   C253      1.0  0.95828  0.61293  0.36620  1.0000
  H   H133      1.0  0.89603  0.60162  0.43559  1.0000
  C   C254      1.0  0.93993  0.57465  0.46046  1.0000
  H   H134      1.0  0.92284  0.57004  0.50205  1.0000
  H   H135      1.0  0.95677  0.57593  0.50584  1.0000
  H   H136      1.0  0.94272  0.55838  0.41358  1.0000
  N   N149      1.0  0.49397  0.02425  0.35385  1.0000
  N   N150      1.0  0.51966  0.02460  0.35552  1.0000
  N   N151      1.0  0.99012  0.49406  0.35398  1.0000
  N   N152      1.0  0.98978  0.51976  0.35554  1.0000
  C   C255      1.0  0.20320  0.38669  0.35737  1.0000
  C   C256      1.0  0.20614  0.41303  0.38497  1.0000
  C   C257      1.0  0.23147  0.42478  0.39021  1.0000
  C   C258      1.0  0.25395  0.40943  0.36666  1.0000
  H   H137      1.0  0.18978  0.42352  0.40212  1.0000
  C   C259      1.0  0.23381  0.45215  0.42385  1.0000
  H   H138      1.0  0.21507  0.46013  0.44674  1.0000
  H   H139      1.0  0.24108  0.46486  0.37007  1.0000
  H   H140      1.0  0.24735  0.45283  0.48095  1.0000
  C   C260      1.0  0.81001  0.62804  0.36028  1.0000
  C   C261      1.0  0.80688  0.60144  0.38436  1.0000
  C   C262      1.0  0.78145  0.58989  0.38900  1.0000
  C   C263      1.0  0.75906  0.60574  0.36848  1.0000
  H   H141      1.0  0.82319  0.59056  0.39909  1.0000
  C   C264      1.0  0.77904  0.56213  0.41856  1.0000
  H   H142      1.0  0.79778  0.55373  0.43952  1.0000
  H   H143      1.0  0.77152  0.55016  0.36318  1.0000
  H   H144      1.0  0.76567  0.56081  0.47602  1.0000
  C   C265      1.0  0.62725  0.20448  0.36021  1.0000
  C   C266      1.0  0.60072  0.20753  0.38535  1.0000
  C   C267      1.0  0.58908  0.23291  0.39013  1.0000
  C   C268      1.0  0.60475  0.25533  0.36859  1.0000
  H   H145      1.0  0.58998  0.19119  0.40096  1.0000
  C   C269      1.0  0.56144  0.23528  0.42112  1.0000
  H   H146      1.0  0.55320  0.21654  0.44277  1.0000
  H   H147      1.0  0.54921  0.24270  0.36627  1.0000
  H   H148      1.0  0.56034  0.24871  0.47845  1.0000
  C   C270      1.0  0.38590  0.81128  0.35760  1.0000
  C   C271      1.0  0.41233  0.80826  0.38386  1.0000
  C   C272      1.0  0.42400  0.78289  0.38889  1.0000
  C   C273      1.0  0.40846  0.76044  0.36658  1.0000
  H   H149      1.0  0.42299  0.82461  0.39999  1.0000
  C   C274      1.0  0.45154  0.78053  0.42086  1.0000
  H   H150      1.0  0.45970  0.79927  0.44293  1.0000
  H   H151      1.0  0.46395  0.77315  0.36641  1.0000
  H   H152      1.0  0.45249  0.76706  0.47813  1.0000
  N   N153      1.0  0.76225  0.38743  0.35826  1.0000
  N   N154      1.0  0.78543  0.37666  0.36261  1.0000
  N   N155      1.0  0.25065  0.62828  0.35622  1.0000
  N   N156      1.0  0.22742  0.63894  0.36069  1.0000
  N   N157      1.0  0.38653  0.25222  0.35756  1.0000
  N   N158      1.0  0.37592  0.22896  0.36211  1.0000
  N   N159      1.0  0.62737  0.76383  0.35668  1.0000
  N   N160      1.0  0.63819  0.78699  0.36085  1.0000
  N   N161      1.0  0.33130  0.49323  0.37964  1.0000
  N   N162      1.0  0.33209  0.51906  0.37678  1.0000
  N   N163      1.0  0.68157  0.52253  0.38164  1.0000
  N   N164      1.0  0.68089  0.49670  0.37922  1.0000
  N   N165      1.0  0.52136  0.33291  0.38126  1.0000
  N   N166      1.0  0.49554  0.33375  0.37837  1.0000
  N   N167      1.0  0.49207  0.68313  0.38006  1.0000
  N   N168      1.0  0.51791  0.68249  0.37758  1.0000
  C   C275      1.0  0.38844  0.34882  0.36027  1.0000
  C   C276      1.0  0.36386  0.34207  0.39794  1.0000
  C   C277      1.0  0.34293  0.36034  0.40363  1.0000
  C   C278      1.0  0.34676  0.38622  0.36850  1.0000
  H   H153      1.0  0.36117  0.32345  0.42214  1.0000
  C   C279      1.0  0.31823  0.35151  0.44815  1.0000
  H   H154      1.0  0.31999  0.33220  0.47958  1.0000
  H   H155      1.0  0.30249  0.35028  0.39836  1.0000
  H   H156      1.0  0.31275  0.36529  0.50139  1.0000
  C   C280      1.0  0.62488  0.66735  0.36086  1.0000
  C   C281      1.0  0.64953  0.67403  0.39813  1.0000
  C   C282      1.0  0.67037  0.65565  0.40397  1.0000
  C   C283      1.0  0.66638  0.62973  0.36940  1.0000
  H   H157      1.0  0.65234  0.69267  0.42191  1.0000
  C   C284      1.0  0.69516  0.66443  0.44801  1.0000
  H   H158      1.0  0.69356  0.68382  0.47889  1.0000
  H   H159      1.0  0.71087  0.66544  0.39804  1.0000
  H   H160      1.0  0.70059  0.65074  0.50159  1.0000
  C   C285      1.0  0.66582  0.38968  0.36207  1.0000
  C   C286      1.0  0.67256  0.36508  0.39955  1.0000
  C   C287      1.0  0.65426  0.34417  0.40521  1.0000
  C   C288      1.0  0.62837  0.34807  0.37028  1.0000
  H   H161      1.0  0.69119  0.36234  0.42358  1.0000
  C   C289      1.0  0.66308  0.31942  0.44940  1.0000
  H   H162      1.0  0.68243  0.32110  0.48059  1.0000
  H   H163      1.0  0.66422  0.30371  0.39947  1.0000
  H   H164      1.0  0.64934  0.31394  0.50277  1.0000
  C   C290      1.0  0.34730  0.62611  0.35914  1.0000
  C   C291      1.0  0.34062  0.65072  0.39665  1.0000
  C   C292      1.0  0.35898  0.67159  0.40250  1.0000
  C   C293      1.0  0.38488  0.66766  0.36767  1.0000
  H   H165      1.0  0.32199  0.65350  0.42064  1.0000
  C   C294      1.0  0.35019  0.69633  0.44688  1.0000
  H   H166      1.0  0.33085  0.69465  0.47808  1.0000
  H   H167      1.0  0.34907  0.71206  0.39707  1.0000
  H   H168      1.0  0.36393  0.70176  0.50029  1.0000
