data_image0
_chemical_formula_structural       C4HC4H2NO2C4HC4H2NO2C4HC4H2NO2C4H4C4H4C4H4C4HC4H2NO2C4HC4H2NO2C4HC4H2NO2C4HC4H2NO2C4HC4H2NO2C4HC4H2NO2C4H4C4H4C4H4C4H4C4H4C4H4C4HC4H2NO2C4HC4H2NO2C4HC4H2NO2C4HC4H2NO2C4HC4H2NO2C4HC4H2NO2CNCNCNCNCNCNCNCNCNCNCNCNCNCNCNCNCNCNCNCNCNCNCNCNCNCNCNCNCNCNCNCNCNCNCNCNCNCNCNCNCNCNCNCNCNCNCNCNC4H4C4H4C4H4C4HC4H2NO2C4HC4H2NO2C4HC4H2NO2C4H4C4H4C4H4C4H4C4H4C4H4C4HC4H2NO2C4HC4H2NO2C4HC4H2NO2C4HC4H2NO2C4HC4H2NO2C4HC4H2NO2C4H4C4H4C4H4C4H4C4H4C4H4
_chemical_formula_sum              "C336 H168 N72 O48"
_cell_length_a       62.8871
_cell_length_b       62.8871
_cell_length_c       14.864
_cell_angle_alpha    90
_cell_angle_beta     90
_cell_angle_gamma    120

_space_group_name_H-M_alt    "P 1"
_space_group_IT_number       1

loop_
  _space_group_symop_operation_xyz
  'x, y, z'

loop_
  _atom_site_type_symbol
  _atom_site_label
  _atom_site_symmetry_multiplicity
  _atom_site_fract_x
  _atom_site_fract_y
  _atom_site_fract_z
  _atom_site_occupancy
  C   C1        1.0  0.00677  0.04937  0.33339  1.0000
  C   C2        1.0  0.00632  0.09534  0.33120  1.0000
  C   C3        1.0  0.98893  0.07464  0.28048  1.0000
  C   C4        1.0  0.98908  0.05209  0.28373  1.0000
  H   H1        1.0  0.97647  0.03762  0.24604  1.0000
  C   C5        1.0  0.00649  0.11850  0.33334  1.0000
  C   C6        1.0  0.00673  0.16497  0.33747  1.0000
  C   C7        1.0  0.98479  0.14208  0.34803  1.0000
  C   C8        1.0  0.98472  0.11957  0.34681  1.0000
  H   H2        1.0  0.96842  0.14150  0.35816  1.0000
  H   H3        1.0  0.96840  0.10377  0.35741  1.0000
  N   N1        1.0  0.97237  0.07707  0.22257  1.0000
  O   O1        1.0  0.95039  0.06184  0.24107  1.0000
  O   O2        1.0  0.97625  0.07438  0.14154  1.0000
  C   C9        1.0  0.96207  0.95969  0.33338  1.0000
  C   C10       1.0  0.91610  0.91326  0.33118  1.0000
  C   C11       1.0  0.93680  0.91658  0.28050  1.0000
  C   C12       1.0  0.95936  0.93928  0.28376  1.0000
  H   H4        1.0  0.97382  0.94113  0.24606  1.0000
  C   C13       1.0  0.89294  0.89027  0.33333  1.0000
  C   C14       1.0  0.84647  0.84404  0.33748  1.0000
  C   C15       1.0  0.86936  0.84500  0.34808  1.0000
  C   C16       1.0  0.89187  0.86744  0.34681  1.0000
  H   H5        1.0  0.86994  0.82920  0.35818  1.0000
  H   H6        1.0  0.90767  0.86691  0.35744  1.0000
  N   N2        1.0  0.93438  0.89759  0.22259  1.0000
  O   O3        1.0  0.94961  0.89084  0.24111  1.0000
  O   O4        1.0  0.93707  0.90416  0.14157  1.0000
  C   C17       1.0  0.05174  0.00467  0.33338  1.0000
  C   C18       1.0  0.09817  0.00512  0.33120  1.0000
  C   C19       1.0  0.09486  0.02251  0.28050  1.0000
  C   C20       1.0  0.07216  0.02236  0.28377  1.0000
  H   H7        1.0  0.07031  0.03497  0.24607  1.0000
  C   C21       1.0  0.12116  0.00495  0.33336  1.0000
  C   C22       1.0  0.16739  0.00472  0.33750  1.0000
  C   C23       1.0  0.16644  0.02665  0.34810  1.0000
  C   C24       1.0  0.14400  0.02671  0.34687  1.0000
  H   H8        1.0  0.18223  0.04302  0.35819  1.0000
  H   H9        1.0  0.14452  0.04304  0.35744  1.0000
  N   N3        1.0  0.11385  0.03907  0.22261  1.0000
  O   O5        1.0  0.12060  0.06105  0.24112  1.0000
  O   O6        1.0  0.10727  0.03520  0.14158  1.0000
  C   C25       1.0  0.14628  0.36530  0.28028  1.0000
  C   C26       1.0  0.12817  0.34019  0.28274  1.0000
  C   C27       1.0  0.09494  0.28444  0.33505  1.0000
  C   C28       1.0  0.07430  0.26040  0.33272  1.0000
  H   H10       1.0  0.11200  0.28672  0.32366  1.0000
  H   H11       1.0  0.07702  0.24603  0.31832  1.0000
  H   H12       1.0  0.15646  0.37234  0.22301  1.0000
  H   H13       1.0  0.12565  0.32975  0.22666  1.0000
  C   C29       1.0  0.64614  0.78324  0.28022  1.0000
  C   C30       1.0  0.67125  0.79025  0.28271  1.0000
  C   C31       1.0  0.72701  0.81279  0.33509  1.0000
  C   C32       1.0  0.75104  0.81619  0.33270  1.0000
  H   H14       1.0  0.72472  0.82756  0.32366  1.0000
  H   H15       1.0  0.76542  0.83328  0.31834  1.0000
  H   H16       1.0  0.63911  0.78643  0.22302  1.0000
  H   H17       1.0  0.68170  0.79819  0.22664  1.0000
  C   C33       1.0  0.22816  0.86515  0.28034  1.0000
  C   C34       1.0  0.22116  0.88326  0.28279  1.0000
  C   C35       1.0  0.19865  0.91650  0.33514  1.0000
  C   C36       1.0  0.19525  0.93714  0.33276  1.0000
  H   H18       1.0  0.18387  0.89944  0.32379  1.0000
  H   H19       1.0  0.17815  0.93442  0.31843  1.0000
  H   H20       1.0  0.22498  0.85494  0.22316  1.0000
  H   H21       1.0  0.21321  0.88576  0.22674  1.0000
  C   C37       1.0  0.38257  0.14917  0.33119  1.0000
  C   C38       1.0  0.33170  0.11187  0.32501  1.0000
  C   C39       1.0  0.34783  0.11449  0.25318  1.0000
  C   C40       1.0  0.37298  0.13277  0.25787  1.0000
  H   H22       1.0  0.38441  0.13408  0.20637  1.0000
  C   C41       1.0  0.30717  0.09129  0.32960  1.0000
  C   C42       1.0  0.25846  0.04865  0.33583  1.0000
  C   C43       1.0  0.27985  0.04659  0.32639  1.0000
  C   C44       1.0  0.30351  0.06727  0.32385  1.0000
  H   H23       1.0  0.27863  0.02980  0.32080  1.0000
  H   H24       1.0  0.31819  0.06452  0.31804  1.0000
  N   N4        1.0  0.33851  0.09912  0.17651  1.0000
  O   O7        1.0  0.34923  0.08706  0.16327  1.0000
  O   O8        1.0  0.34061  0.11140  0.10699  1.0000
  C   C45       1.0  0.77574  0.62885  0.33116  1.0000
  C   C46       1.0  0.78932  0.67973  0.32499  1.0000
  C   C47       1.0  0.77581  0.66361  0.25317  1.0000
  C   C48       1.0  0.76893  0.63845  0.25786  1.0000
  H   H25       1.0  0.75881  0.62702  0.20635  1.0000
  C   C49       1.0  0.79326  0.70426  0.32958  1.0000
  C   C50       1.0  0.79934  0.75297  0.33583  1.0000
  C   C51       1.0  0.77589  0.73159  0.32641  1.0000
  C   C52       1.0  0.77291  0.70792  0.32384  1.0000
  H   H26       1.0  0.76032  0.73280  0.32082  1.0000
  H   H27       1.0  0.75548  0.69324  0.31805  1.0000
  N   N5        1.0  0.76976  0.67292  0.17650  1.0000
  O   O9        1.0  0.74698  0.66221  0.16328  1.0000
  O   O10       1.0  0.77993  0.67082  0.10698  1.0000
  C   C53       1.0  0.86226  0.23569  0.33115  1.0000
  C   C54       1.0  0.89957  0.22212  0.32502  1.0000
  C   C55       1.0  0.89696  0.23564  0.25320  1.0000
  C   C56       1.0  0.87868  0.24250  0.25787  1.0000
  H   H28       1.0  0.87737  0.25262  0.20635  1.0000
  C   C57       1.0  0.92016  0.21818  0.32960  1.0000
  C   C58       1.0  0.96280  0.21210  0.33586  1.0000
  C   C59       1.0  0.96486  0.23555  0.32647  1.0000
  C   C60       1.0  0.94418  0.23854  0.32390  1.0000
  H   H29       1.0  0.98164  0.25112  0.32091  1.0000
  H   H30       1.0  0.94692  0.25597  0.31815  1.0000
  N   N6        1.0  0.91234  0.24170  0.17656  1.0000
  O   O11       1.0  0.92440  0.26449  0.16336  1.0000
  O   O12       1.0  0.90007  0.23153  0.10701  1.0000
  C   C61       1.0  0.36383  0.50963  0.33943  1.0000
  C   C62       1.0  0.31145  0.48593  0.34509  1.0000
  C   C63       1.0  0.32337  0.48187  0.27130  1.0000
  C   C64       1.0  0.34931  0.49340  0.27039  1.0000
  H   H31       1.0  0.35767  0.49002  0.21755  1.0000
  C   C65       1.0  0.28529  0.47429  0.35037  1.0000
  C   C66       1.0  0.23266  0.45162  0.35423  1.0000
  C   C67       1.0  0.24425  0.43739  0.34465  1.0000
  C   C68       1.0  0.27006  0.44851  0.34291  1.0000
  H   H32       1.0  0.23401  0.41872  0.33807  1.0000
  H   H33       1.0  0.27768  0.43753  0.33614  1.0000
  N   N7        1.0  0.30937  0.46709  0.19796  1.0000
  O   O13       1.0  0.31272  0.44921  0.18572  1.0000
  O   O14       1.0  0.31449  0.47935  0.12644  1.0000
  C   C69       1.0  0.50181  0.85649  0.33943  1.0000
  C   C70       1.0  0.52552  0.82782  0.34512  1.0000
  C   C71       1.0  0.52956  0.84377  0.27129  1.0000
  C   C72       1.0  0.51803  0.85818  0.27036  1.0000
  H   H34       1.0  0.52139  0.86991  0.21749  1.0000
  C   C73       1.0  0.53716  0.81330  0.35043  1.0000
  C   C74       1.0  0.55983  0.78334  0.35427  1.0000
  C   C75       1.0  0.57405  0.80916  0.34465  1.0000
  C   C76       1.0  0.56294  0.82385  0.34290  1.0000
  H   H35       1.0  0.59272  0.81759  0.33800  1.0000
  H   H36       1.0  0.57391  0.84245  0.33605  1.0000
  N   N8        1.0  0.54432  0.84454  0.19792  1.0000
  O   O15       1.0  0.56220  0.86577  0.18559  1.0000
  O   O16       1.0  0.53205  0.83738  0.12644  1.0000
  C   C77       1.0  0.15496  0.64762  0.33936  1.0000
  C   C78       1.0  0.18363  0.69999  0.34508  1.0000
  C   C79       1.0  0.16768  0.68808  0.27121  1.0000
  C   C80       1.0  0.15327  0.66214  0.27028  1.0000
  H   H37       1.0  0.14155  0.65378  0.21739  1.0000
  C   C81       1.0  0.19814  0.72615  0.35040  1.0000
  C   C82       1.0  0.22811  0.77879  0.35429  1.0000
  C   C83       1.0  0.20229  0.76719  0.34463  1.0000
  C   C84       1.0  0.18760  0.74138  0.34284  1.0000
  H   H38       1.0  0.19386  0.77743  0.33792  1.0000
  H   H39       1.0  0.16900  0.73376  0.33595  1.0000
  N   N9        1.0  0.16693  0.70208  0.19783  1.0000
  O   O17       1.0  0.14570  0.69874  0.18545  1.0000
  O   O18       1.0  0.17410  0.69697  0.12638  1.0000
  C   C85       1.0  0.51378  0.35170  0.26849  1.0000
  C   C86       1.0  0.50125  0.32588  0.26691  1.0000
  C   C87       1.0  0.48950  0.27410  0.31430  1.0000
  C   C88       1.0  0.47822  0.24838  0.31200  1.0000
  H   H40       1.0  0.50783  0.28431  0.29962  1.0000
  H   H41       1.0  0.48892  0.24104  0.29425  1.0000
  H   H42       1.0  0.52254  0.36120  0.21155  1.0000
  H   H43       1.0  0.50153  0.31733  0.20868  1.0000
  C   C89       1.0  0.84700  0.49758  0.26867  1.0000
  C   C90       1.0  0.83371  0.51011  0.26708  1.0000
  C   C91       1.0  0.79372  0.52190  0.31458  1.0000
  C   C92       1.0  0.77928  0.53318  0.31228  1.0000
  H   H44       1.0  0.78558  0.50356  0.30006  1.0000
  H   H45       1.0  0.76122  0.52246  0.29467  1.0000
  H   H46       1.0  0.84771  0.48879  0.21178  1.0000
  H   H47       1.0  0.82484  0.50979  0.20891  1.0000
  C   C93       1.0  0.65972  0.16442  0.26864  1.0000
  C   C94       1.0  0.68554  0.17768  0.26700  1.0000
  C   C95       1.0  0.73733  0.21769  0.31436  1.0000
  C   C96       1.0  0.76305  0.23213  0.31209  1.0000
  H   H48       1.0  0.72713  0.22582  0.29983  1.0000
  H   H49       1.0  0.77039  0.25018  0.29444  1.0000
  H   H50       1.0  0.65023  0.16367  0.21169  1.0000
  H   H51       1.0  0.69409  0.18652  0.20878  1.0000
  C   C97       1.0  0.15007  0.46602  0.29160  1.0000
  C   C98       1.0  0.14520  0.48556  0.28881  1.0000
  C   C99       1.0  0.12371  0.51767  0.33953  1.0000
  C   C100      1.0  0.11778  0.53642  0.33559  1.0000
  H   H52       1.0  0.10979  0.49981  0.33494  1.0000
  H   H53       1.0  0.09967  0.53121  0.32714  1.0000
  H   H54       1.0  0.14432  0.45378  0.23938  1.0000
  H   H55       1.0  0.13564  0.48664  0.23494  1.0000
  C   C101      1.0  0.54538  0.68635  0.29142  1.0000
  C   C102      1.0  0.52585  0.66194  0.28871  1.0000
  C   C103      1.0  0.49378  0.60834  0.33950  1.0000
  C   C104      1.0  0.47502  0.58366  0.33554  1.0000
  H   H56       1.0  0.51162  0.61228  0.33480  1.0000
  H   H57       1.0  0.48023  0.57076  0.32702  1.0000
  H   H58       1.0  0.55764  0.69284  0.23928  1.0000
  H   H59       1.0  0.52477  0.65130  0.23483  1.0000
  C   C105      1.0  0.32510  0.86135  0.29156  1.0000
  C   C106      1.0  0.34951  0.86623  0.28883  1.0000
  C   C107      1.0  0.40311  0.88773  0.33962  1.0000
  C   C108      1.0  0.42779  0.89367  0.33566  1.0000
  H   H60       1.0  0.39917  0.90165  0.33501  1.0000
  H   H61       1.0  0.44069  0.91177  0.32723  1.0000
  H   H62       1.0  0.31861  0.86713  0.23942  1.0000
  H   H63       1.0  0.36016  0.87580  0.23497  1.0000
  C   C109      1.0  0.46610  0.16490  0.32619  1.0000
  C   C110      1.0  0.50563  0.15488  0.33187  1.0000
  C   C111      1.0  0.50231  0.16642  0.25517  1.0000
  C   C112      1.0  0.48294  0.17179  0.25428  1.0000
  H   H64       1.0  0.48097  0.18057  0.19956  1.0000
  C   C113      1.0  0.52481  0.14898  0.33672  1.0000
  C   C114      1.0  0.56246  0.13581  0.34249  1.0000
  C   C115      1.0  0.56832  0.16033  0.32642  1.0000
  C   C116      1.0  0.54982  0.16679  0.32338  1.0000
  H   H65       1.0  0.58612  0.17372  0.31530  1.0000
  H   H66       1.0  0.55481  0.18472  0.31158  1.0000
  N   N10       1.0  0.51777  0.17162  0.17926  1.0000
  O   O19       1.0  0.52893  0.19410  0.16030  1.0000
  O   O20       1.0  0.50578  0.15973  0.11145  1.0000
  C   C117      1.0  0.70794  0.54534  0.32621  1.0000
  C   C118      1.0  0.65838  0.50580  0.33193  1.0000
  C   C119      1.0  0.67323  0.50915  0.25513  1.0000
  C   C120      1.0  0.69796  0.52853  0.25421  1.0000
  H   H67       1.0  0.70869  0.53053  0.19940  1.0000
  C   C121      1.0  0.63332  0.48662  0.33680  1.0000
  C   C122      1.0  0.58249  0.44896  0.34261  1.0000
  C   C123      1.0  0.60115  0.44311  0.32635  1.0000
  C   C124      1.0  0.62611  0.46161  0.32327  1.0000
  H   H68       1.0  0.59673  0.42531  0.31501  1.0000
  H   H69       1.0  0.63905  0.45663  0.31128  1.0000
  N   N11       1.0  0.66294  0.49373  0.17914  1.0000
  O   O21       1.0  0.67426  0.48258  0.15994  1.0000
  O   O22       1.0  0.66303  0.50576  0.11146  1.0000
  C   C125      1.0  0.84654  0.30348  0.32623  1.0000
  C   C126      1.0  0.85655  0.35304  0.33190  1.0000
  C   C127      1.0  0.84504  0.33818  0.25514  1.0000
  C   C128      1.0  0.83969  0.31345  0.25424  1.0000
  H   H70       1.0  0.83094  0.30271  0.19946  1.0000
  C   C129      1.0  0.86244  0.37811  0.33672  1.0000
  C   C130      1.0  0.87562  0.42894  0.34251  1.0000
  C   C131      1.0  0.85110  0.41028  0.32633  1.0000
  C   C132      1.0  0.84464  0.38532  0.32326  1.0000
  H   H71       1.0  0.83771  0.41469  0.31507  1.0000
  H   H72       1.0  0.82671  0.37237  0.31136  1.0000
  N   N12       1.0  0.83988  0.34845  0.17917  1.0000
  O   O23       1.0  0.81740  0.33713  0.16007  1.0000
  O   O24       1.0  0.85180  0.34836  0.11145  1.0000
  C   C133      1.0  0.07235  0.58157  0.31961  1.0000
  C   C134      1.0  0.02039  0.55776  0.31612  1.0000
  C   C135      1.0  0.03326  0.55504  0.24251  1.0000
  C   C136      1.0  0.05916  0.56676  0.24579  1.0000
  H   H73       1.0  0.06837  0.56404  0.19426  1.0000
  C   C137      1.0  0.99452  0.54284  0.32382  1.0000
  C   C138      1.0  0.94258  0.51163  0.33898  1.0000
  C   C139      1.0  0.95844  0.50178  0.33112  1.0000
  C   C140      1.0  0.98392  0.51706  0.32408  1.0000
  H   H74       1.0  0.95171  0.48322  0.32971  1.0000
  H   H75       1.0  0.99467  0.50913  0.31916  1.0000
  N   N13       1.0  0.02013  0.54067  0.16708  1.0000
  O   O25       1.0  0.02410  0.52322  0.15390  1.0000
  O   O26       1.0  0.02570  0.55352  0.09696  1.0000
  C   C141      1.0  0.42989  0.49308  0.31957  1.0000
  C   C142      1.0  0.45366  0.46491  0.31599  1.0000
  C   C143      1.0  0.45640  0.48052  0.24243  1.0000
  C   C144      1.0  0.44469  0.49471  0.24574  1.0000
  H   H76       1.0  0.44743  0.50665  0.19424  1.0000
  C   C145      1.0  0.46859  0.45396  0.32374  1.0000
  C   C146      1.0  0.49979  0.43323  0.33895  1.0000
  C   C147      1.0  0.50965  0.45894  0.33111  1.0000
  C   C148      1.0  0.49436  0.46914  0.32405  1.0000
  H   H77       1.0  0.52820  0.47077  0.32973  1.0000
  H   H78       1.0  0.50230  0.48783  0.31913  1.0000
  N   N14       1.0  0.47076  0.48175  0.16700  1.0000
  O   O27       1.0  0.48823  0.50318  0.15386  1.0000
  O   O28       1.0  0.45792  0.47449  0.09687  1.0000
  C   C149      1.0  0.51837  0.93909  0.31958  1.0000
  C   C150      1.0  0.54655  0.99105  0.31605  1.0000
  C   C151      1.0  0.53094  0.97817  0.24245  1.0000
  C   C152      1.0  0.51676  0.95227  0.24574  1.0000
  H   H79       1.0  0.50481  0.94307  0.19426  1.0000
  C   C153      1.0  0.55749  0.01691  0.32376  1.0000
  C   C154      1.0  0.57821  0.06886  0.33899  1.0000
  C   C155      1.0  0.55250  0.05299  0.33114  1.0000
  C   C156      1.0  0.54231  0.02751  0.32406  1.0000
  H   H80       1.0  0.54067  0.05971  0.32972  1.0000
  H   H81       1.0  0.52362  0.01675  0.31912  1.0000
  N   N15       1.0  0.52971  0.99131  0.16703  1.0000
  O   O29       1.0  0.50829  0.98734  0.15386  1.0000
  O   O30       1.0  0.53698  0.98573  0.09690  1.0000
  C   C157      1.0  0.98486  0.98255  0.33441  1.0000
  N   N16       1.0  0.00689  0.98318  0.33432  1.0000
  C   C158      1.0  0.02889  0.00460  0.33441  1.0000
  N   N17       1.0  0.02825  0.02600  0.33433  1.0000
  C   C159      1.0  0.00684  0.02658  0.33442  1.0000
  N   N18       1.0  0.98544  0.00454  0.33433  1.0000
  C   C160      1.0  0.98448  0.20988  0.33846  1.0000
  N   N19       1.0  0.98520  0.18853  0.33752  1.0000
  C   C161      1.0  0.00673  0.18793  0.33889  1.0000
  N   N20       1.0  0.02820  0.21012  0.34172  1.0000
  C   C162      1.0  0.02871  0.23209  0.34389  1.0000
  N   N21       1.0  0.00656  0.23075  0.34182  1.0000
  C   C163      1.0  0.80157  0.77688  0.33842  1.0000
  N   N22       1.0  0.82292  0.79895  0.33750  1.0000
  C   C164      1.0  0.82351  0.82108  0.33888  1.0000
  N   N23       1.0  0.80133  0.82037  0.34170  1.0000
  C   C165      1.0  0.77935  0.79890  0.34386  1.0000
  N   N24       1.0  0.78069  0.77809  0.34179  1.0000
  C   C166      1.0  0.23455  0.02697  0.33842  1.0000
  N   N25       1.0  0.21248  0.02625  0.33751  1.0000
  C   C167      1.0  0.19035  0.00471  0.33889  1.0000
  N   N26       1.0  0.19107  0.98324  0.34170  1.0000
  C   C168      1.0  0.21253  0.98273  0.34384  1.0000
  N   N27       1.0  0.23335  0.00489  0.34177  1.0000
  C   C169      1.0  0.20650  0.44072  0.35391  1.0000
  N   N28       1.0  0.19050  0.41601  0.34943  1.0000
  C   C170      1.0  0.16568  0.40660  0.34953  1.0000
  N   N29       1.0  0.15674  0.42235  0.35445  1.0000
  C   C171      1.0  0.17215  0.44702  0.35887  1.0000
  N   N30       1.0  0.19661  0.45555  0.35881  1.0000
  C   C172      1.0  0.57073  0.76808  0.35394  1.0000
  N   N31       1.0  0.59544  0.77679  0.34946  1.0000
  C   C173      1.0  0.60485  0.76137  0.34954  1.0000
  N   N32       1.0  0.58909  0.73668  0.35444  1.0000
  C   C174      1.0  0.56443  0.72743  0.35885  1.0000
  N   N33       1.0  0.55589  0.74335  0.35881  1.0000
  C   C175      1.0  0.24336  0.80494  0.35398  1.0000
  N   N34       1.0  0.23466  0.82094  0.34952  1.0000
  C   C176      1.0  0.25007  0.84576  0.34964  1.0000
  N   N35       1.0  0.27476  0.85470  0.35452  1.0000
  C   C177      1.0  0.28402  0.83929  0.35890  1.0000
  N   N36       1.0  0.26809  0.81483  0.35885  1.0000
  C   C178      1.0  0.44215  0.20693  0.33367  1.0000
  N   N37       1.0  0.41744  0.19082  0.33721  1.0000
  C   C179      1.0  0.40817  0.16601  0.33589  1.0000
  N   N38       1.0  0.42409  0.15727  0.33142  1.0000
  C   C180      1.0  0.44872  0.17280  0.32842  1.0000
  N   N39       1.0  0.45715  0.19722  0.32921  1.0000
  C   C181      1.0  0.77391  0.56927  0.33373  1.0000
  N   N40       1.0  0.78252  0.59398  0.33722  1.0000
  C   C182      1.0  0.76698  0.60326  0.33586  1.0000
  N   N41       1.0  0.74232  0.58734  0.33138  1.0000
  C   C183      1.0  0.73322  0.56271  0.32840  1.0000
  N   N42       1.0  0.74919  0.55427  0.32924  1.0000
  C   C184      1.0  0.80450  0.23751  0.33367  1.0000
  N   N43       1.0  0.82061  0.22890  0.33718  1.0000
  C   C185      1.0  0.84543  0.24445  0.33585  1.0000
  N   N44       1.0  0.85416  0.26911  0.33139  1.0000
  C   C186      1.0  0.83863  0.27821  0.32839  1.0000
  N   N45       1.0  0.81422  0.26222  0.32921  1.0000
  C   C187      1.0  0.12948  0.58038  0.34025  1.0000
  N   N46       1.0  0.14599  0.60501  0.34488  1.0000
  C   C188      1.0  0.13857  0.62203  0.34010  1.0000
  N   N47       1.0  0.11426  0.61425  0.33180  1.0000
  C   C189      1.0  0.09755  0.59006  0.32732  1.0000
  N   N48       1.0  0.10542  0.57364  0.33106  1.0000
  C   C190      1.0  0.43106  0.55140  0.34027  1.0000
  N   N49       1.0  0.40644  0.54328  0.34494  1.0000
  C   C191      1.0  0.38942  0.51884  0.34021  1.0000
  N   N50       1.0  0.39720  0.50231  0.33186  1.0000
  C   C192      1.0  0.42138  0.50978  0.32734  1.0000
  N   N51       1.0  0.43780  0.53408  0.33107  1.0000
  C   C193      1.0  0.46004  0.88196  0.34032  1.0000
  N   N52       1.0  0.46816  0.86545  0.34497  1.0000
  C   C194      1.0  0.49260  0.87287  0.34022  1.0000
  N   N53       1.0  0.50913  0.89718  0.33186  1.0000
  C   C195      1.0  0.50167  0.91390  0.32735  1.0000
  N   N54       1.0  0.47737  0.90602  0.33110  1.0000
  C   C196      1.0  0.58070  0.12857  0.34272  1.0000
  N   N55       1.0  0.60547  0.14430  0.34311  1.0000
  C   C197      1.0  0.62152  0.13568  0.34504  1.0000
  N   N56       1.0  0.61271  0.11105  0.34492  1.0000
  C   C198      1.0  0.58823  0.09475  0.34291  1.0000
  N   N57       1.0  0.57307  0.10423  0.34205  1.0000
  C   C199      1.0  0.55701  0.43073  0.34278  1.0000
  N   N58       1.0  0.54798  0.40596  0.34312  1.0000
  C   C200      1.0  0.52329  0.38991  0.34498  1.0000
  N   N59       1.0  0.50749  0.39873  0.34484  1.0000
  C   C201      1.0  0.51567  0.42320  0.34288  1.0000
  N   N60       1.0  0.54031  0.43836  0.34208  1.0000
  C   C202      1.0  0.88286  0.45442  0.34273  1.0000
  N   N61       1.0  0.86713  0.46345  0.34311  1.0000
  C   C203      1.0  0.87576  0.48814  0.34503  1.0000
  N   N62       1.0  0.90039  0.50394  0.34491  1.0000
  C   C204      1.0  0.91668  0.49576  0.34290  1.0000
  N   N63       1.0  0.90720  0.47112  0.34205  1.0000
  C   C205      1.0  0.02452  0.07027  0.38064  1.0000
  C   C206      1.0  0.02408  0.09251  0.38050  1.0000
  C   C207      1.0  0.02847  0.14138  0.32372  1.0000
  C   C208      1.0  0.02859  0.16393  0.32588  1.0000
  H   H82       1.0  0.04477  0.14183  0.31334  1.0000
  H   H83       1.0  0.04505  0.17976  0.31762  1.0000
  H   H84       1.0  0.03763  0.06927  0.41819  1.0000
  H   H85       1.0  0.03689  0.10673  0.41846  1.0000
  C   C209      1.0  0.94116  0.95655  0.38059  1.0000
  C   C210      1.0  0.91893  0.93385  0.38046  1.0000
  C   C211      1.0  0.87006  0.88937  0.32372  1.0000
  C   C212      1.0  0.84751  0.86694  0.32588  1.0000
  H   H86       1.0  0.86961  0.90522  0.31329  1.0000
  H   H87       1.0  0.83168  0.86757  0.31757  1.0000
  H   H88       1.0  0.94217  0.97065  0.41814  1.0000
  H   H89       1.0  0.90470  0.93245  0.41841  1.0000
  C   C213      1.0  0.05488  0.98690  0.38056  1.0000
  C   C214      1.0  0.07758  0.98736  0.38048  1.0000
  C   C215      1.0  0.12206  0.98297  0.32376  1.0000
  C   C216      1.0  0.14449  0.98285  0.32591  1.0000
  H   H90       1.0  0.10621  0.96667  0.31329  1.0000
  H   H91       1.0  0.14386  0.96640  0.31757  1.0000
  H   H92       1.0  0.04078  0.97381  0.41817  1.0000
  H   H93       1.0  0.07899  0.97455  0.41844  1.0000
  C   C217      1.0  0.14915  0.38095  0.35301  1.0000
  C   C218      1.0  0.11272  0.32979  0.35862  1.0000
  C   C219      1.0  0.11649  0.34524  0.43413  1.0000
  C   C220      1.0  0.13434  0.37055  0.42987  1.0000
  H   H94       1.0  0.13651  0.38149  0.48419  1.0000
  C   C221      1.0  0.09239  0.30510  0.35480  1.0000
  C   C222      1.0  0.05022  0.25609  0.34817  1.0000
  C   C223      1.0  0.04794  0.27703  0.36655  1.0000
  C   C224      1.0  0.06838  0.30085  0.36932  1.0000
  H   H95       1.0  0.03115  0.27536  0.37852  1.0000
  H   H96       1.0  0.06545  0.31521  0.38136  1.0000
  N   N64       1.0  0.10271  0.33507  0.51383  1.0000
  O   O31       1.0  0.09062  0.34527  0.53546  1.0000
  O   O32       1.0  0.11640  0.33690  0.57852  1.0000
  C   C225      1.0  0.63050  0.77050  0.35302  1.0000
  C   C226      1.0  0.68166  0.78521  0.35860  1.0000
  C   C227      1.0  0.66621  0.77354  0.43411  1.0000
  C   C228      1.0  0.64090  0.76608  0.42986  1.0000
  H   H97       1.0  0.62996  0.75732  0.48420  1.0000
  C   C229      1.0  0.70635  0.78957  0.35478  1.0000
  C   C230      1.0  0.75536  0.79642  0.34814  1.0000
  C   C231      1.0  0.73441  0.77319  0.36651  1.0000
  C   C232      1.0  0.71060  0.76981  0.36928  1.0000
  H   H98       1.0  0.73608  0.75806  0.37846  1.0000
  H   H99       1.0  0.69623  0.75251  0.38130  1.0000
  N   N65       1.0  0.67637  0.76992  0.51381  1.0000
  O   O33       1.0  0.66617  0.74763  0.53542  1.0000
  O   O34       1.0  0.67455  0.78177  0.57850  1.0000
  C   C233      1.0  0.24095  0.86229  0.35308  1.0000
  C   C234      1.0  0.22623  0.89873  0.35862  1.0000
  C   C235      1.0  0.23792  0.89498  0.43412  1.0000
  C   C236      1.0  0.24538  0.87712  0.42989  1.0000
  H   H100      1.0  0.25416  0.87496  0.48421  1.0000
  C   C237      1.0  0.22187  0.91906  0.35478  1.0000
  C   C238      1.0  0.21502  0.96123  0.34810  1.0000
  C   C239      1.0  0.23826  0.96351  0.36643  1.0000
  C   C240      1.0  0.24163  0.94308  0.36921  1.0000
  H   H101      1.0  0.25338  0.98031  0.37832  1.0000
  H   H102      1.0  0.25893  0.94601  0.38118  1.0000
  N   N66       1.0  0.24156  0.90878  0.51379  1.0000
  O   O35       1.0  0.26385  0.92087  0.53535  1.0000
  O   O36       1.0  0.22972  0.89511  0.57853  1.0000
  C   C241      1.0  0.36620  0.14744  0.39957  1.0000
  C   C242      1.0  0.34125  0.12889  0.39701  1.0000
  C   C243      1.0  0.28607  0.09364  0.34103  1.0000
  C   C244      1.0  0.26220  0.07276  0.34327  1.0000
  H   H103      1.0  0.28792  0.11072  0.34581  1.0000
  H   H104      1.0  0.24749  0.07535  0.35083  1.0000
  H   H105      1.0  0.37262  0.15876  0.45442  1.0000
  H   H106      1.0  0.33029  0.12726  0.45050  1.0000
  C   C245      1.0  0.79039  0.64522  0.39953  1.0000
  C   C246      1.0  0.79680  0.67018  0.39697  1.0000
  C   C247      1.0  0.81672  0.72536  0.34100  1.0000
  C   C248      1.0  0.81971  0.74923  0.34325  1.0000
  H   H107      1.0  0.83195  0.72351  0.34578  1.0000
  H   H108      1.0  0.83702  0.76394  0.35080  1.0000
  H   H109      1.0  0.79528  0.63880  0.45438  1.0000
  H   H110      1.0  0.80613  0.68114  0.45047  1.0000
  C   C249      1.0  0.86402  0.22108  0.39960  1.0000
  C   C250      1.0  0.88255  0.21464  0.39699  1.0000
  C   C251      1.0  0.91780  0.19472  0.34094  1.0000
  C   C252      1.0  0.93869  0.19173  0.34325  1.0000
  H   H111      1.0  0.90073  0.17950  0.34576  1.0000
  H   H112      1.0  0.93609  0.17443  0.35077  1.0000
  H   H113      1.0  0.85266  0.21613  0.45435  1.0000
  H   H114      1.0  0.88417  0.20530  0.45047  1.0000
  C   C253      1.0  0.35195  0.51442  0.41039  1.0000
  C   C254      1.0  0.32614  0.50255  0.41342  1.0000
  C   C255      1.0  0.27383  0.48851  0.36157  1.0000
  C   C256      1.0  0.24811  0.47741  0.36338  1.0000
  H   H115      1.0  0.28413  0.50724  0.36632  1.0000
  H   H116      1.0  0.24089  0.48871  0.37063  1.0000
  H   H117      1.0  0.36191  0.52562  0.46248  1.0000
  H   H118      1.0  0.31808  0.50578  0.46753  1.0000
  C   C257      1.0  0.49703  0.83984  0.41042  1.0000
  C   C258      1.0  0.50891  0.82590  0.41348  1.0000
  C   C259      1.0  0.52294  0.78762  0.36173  1.0000
  C   C260      1.0  0.53404  0.77300  0.36350  1.0000
  H   H119      1.0  0.50421  0.77919  0.36646  1.0000
  H   H120      1.0  0.52274  0.75448  0.37078  1.0000
  H   H121      1.0  0.48585  0.83861  0.46256  1.0000
  H   H122      1.0  0.50569  0.81462  0.46763  1.0000
  C   C261      1.0  0.17161  0.65948  0.41035  1.0000
  C   C262      1.0  0.18554  0.68530  0.41344  1.0000
  C   C263      1.0  0.22382  0.73761  0.36178  1.0000
  C   C264      1.0  0.23844  0.76333  0.36356  1.0000
  H   H123      1.0  0.23225  0.72732  0.36654  1.0000
  H   H124      1.0  0.25696  0.77056  0.37090  1.0000
  H   H125      1.0  0.17281  0.64952  0.46253  1.0000
  H   H126      1.0  0.19680  0.69335  0.46762  1.0000
  C   C265      1.0  0.51328  0.36426  0.34622  1.0000
  C   C266      1.0  0.48806  0.31188  0.34292  1.0000
  C   C267      1.0  0.48799  0.32449  0.42226  1.0000
  C   C268      1.0  0.50019  0.35050  0.42226  1.0000
  H   H127      1.0  0.49972  0.35945  0.47918  1.0000
  C   C269      1.0  0.47608  0.28570  0.33882  1.0000
  C   C270      1.0  0.45302  0.23306  0.33363  1.0000
  C   C271      1.0  0.43950  0.24477  0.35640  1.0000
  C   C272      1.0  0.45084  0.27061  0.35927  1.0000
  H   H128      1.0  0.42130  0.23458  0.37281  1.0000
  H   H129      1.0  0.44044  0.27836  0.37614  1.0000
  N   N67       1.0  0.47657  0.31102  0.50135  1.0000
  O   O37       1.0  0.45995  0.31501  0.52842  1.0000
  O   O38       1.0  0.49190  0.31615  0.56364  1.0000
  C   C273      1.0  0.86013  0.49815  0.34629  1.0000
  C   C274      1.0  0.83295  0.52335  0.34301  1.0000
  C   C275      1.0  0.84568  0.52348  0.42226  1.0000
  C   C276      1.0  0.85951  0.51130  0.42224  1.0000
  H   H130      1.0  0.86897  0.51181  0.47911  1.0000
  C   C277      1.0  0.81875  0.53534  0.33891  1.0000
  C   C278      1.0  0.78917  0.55840  0.33373  1.0000
  C   C279      1.0  0.81440  0.57192  0.35635  1.0000
  C   C280      1.0  0.82890  0.56058  0.35918  1.0000
  H   H131      1.0  0.82244  0.59014  0.37255  1.0000
  H   H132      1.0  0.84707  0.57100  0.37588  1.0000
  N   N68       1.0  0.84369  0.53496  0.50129  1.0000
  O   O39       1.0  0.86431  0.55160  0.52814  1.0000
  O   O40       1.0  0.83354  0.51967  0.56375  1.0000
  C   C281      1.0  0.64717  0.15131  0.34631  1.0000
  C   C282      1.0  0.69955  0.17847  0.34295  1.0000
  C   C283      1.0  0.68695  0.16577  0.42227  1.0000
  C   C284      1.0  0.66094  0.15195  0.42227  1.0000
  H   H133      1.0  0.65199  0.14252  0.47917  1.0000
  C   C285      1.0  0.72574  0.19267  0.33883  1.0000
  C   C286      1.0  0.77837  0.22224  0.33365  1.0000
  C   C287      1.0  0.76666  0.19702  0.35635  1.0000
  C   C288      1.0  0.74083  0.18252  0.35918  1.0000
  H   H134      1.0  0.77685  0.18899  0.37265  1.0000
  H   H135      1.0  0.73308  0.16436  0.37600  1.0000
  N   N69       1.0  0.70043  0.16779  0.50131  1.0000
  O   O41       1.0  0.69643  0.14717  0.52826  1.0000
  O   O42       1.0  0.69530  0.17797  0.56369  1.0000
  C   C289      1.0  0.16417  0.46438  0.36206  1.0000
  C   C290      1.0  0.15382  0.50377  0.35698  1.0000
  C   C291      1.0  0.16727  0.50168  0.43001  1.0000
  C   C292      1.0  0.17271  0.48236  0.43050  1.0000
  H   H136      1.0  0.18284  0.48131  0.48250  1.0000
  C   C293      1.0  0.14820  0.52317  0.35184  1.0000
  C   C294      1.0  0.13600  0.56158  0.34362  1.0000
  C   C295      1.0  0.16057  0.56704  0.35504  1.0000
  C   C296      1.0  0.16656  0.54822  0.35892  1.0000
  H   H137      1.0  0.17446  0.58486  0.36077  1.0000
  H   H138      1.0  0.18460  0.55301  0.36621  1.0000
  N   N70       1.0  0.17434  0.51833  0.50307  1.0000
  O   O43       1.0  0.19720  0.52973  0.51443  1.0000
  O   O44       1.0  0.16420  0.50744  0.57494  1.0000
  C   C297      1.0  0.54708  0.70209  0.36201  1.0000
  C   C298      1.0  0.50766  0.65234  0.35694  1.0000
  C   C299      1.0  0.50977  0.66789  0.43000  1.0000
  C   C300      1.0  0.52911  0.69264  0.43050  1.0000
  H   H139      1.0  0.53016  0.70382  0.48253  1.0000
  C   C301      1.0  0.48827  0.62733  0.35184  1.0000
  C   C302      1.0  0.44986  0.57671  0.34364  1.0000
  C   C303      1.0  0.44440  0.59583  0.35511  1.0000
  C   C304      1.0  0.46322  0.62064  0.35898  1.0000
  H   H140      1.0  0.42658  0.59190  0.36089  1.0000
  H   H141      1.0  0.45842  0.63388  0.36630  1.0000
  N   N71       1.0  0.49314  0.65831  0.50309  1.0000
  O   O45       1.0  0.48175  0.66979  0.51451  1.0000
  O   O46       1.0  0.50403  0.65905  0.57493  1.0000
  C   C305      1.0  0.30936  0.84728  0.36206  1.0000
  C   C306      1.0  0.35911  0.85762  0.35700  1.0000
  C   C307      1.0  0.34355  0.84416  0.43001  1.0000
  C   C308      1.0  0.31879  0.83873  0.43049  1.0000
  H   H142      1.0  0.30761  0.82859  0.48249  1.0000
  C   C309      1.0  0.38412  0.86324  0.35189  1.0000
  C   C310      1.0  0.43474  0.87545  0.34368  1.0000
  C   C311      1.0  0.41562  0.85087  0.35508  1.0000
  C   C312      1.0  0.39081  0.84488  0.35895  1.0000
  H   H143      1.0  0.41955  0.83698  0.36079  1.0000
  H   H144      1.0  0.37757  0.82684  0.36620  1.0000
  N   N72       1.0  0.35312  0.83708  0.50306  1.0000
  O   O47       1.0  0.34165  0.81421  0.51438  1.0000
  O   O48       1.0  0.35238  0.84721  0.57495  1.0000
  C   C313      1.0  0.46904  0.15282  0.40087  1.0000
  C   C314      1.0  0.48865  0.14807  0.40380  1.0000
  C   C315      1.0  0.51897  0.12461  0.35459  1.0000
  C   C316      1.0  0.53737  0.11821  0.35733  1.0000
  H   H145      1.0  0.50110  0.11109  0.36385  1.0000
  H   H146      1.0  0.53194  0.10021  0.37010  1.0000
  H   H147      1.0  0.45765  0.14838  0.45538  1.0000
  H   H148      1.0  0.49063  0.13987  0.46017  1.0000
  C   C317      1.0  0.69293  0.54235  0.40101  1.0000
  C   C318      1.0  0.66859  0.52275  0.40395  1.0000
  C   C319      1.0  0.61479  0.49245  0.35492  1.0000
  C   C320      1.0  0.58998  0.47405  0.35766  1.0000
  H   H149      1.0  0.61914  0.51031  0.36432  1.0000
  H   H150      1.0  0.57742  0.47947  0.37059  1.0000
  H   H151      1.0  0.69991  0.55371  0.45558  1.0000
  H   H152      1.0  0.65842  0.52073  0.46041  1.0000
  C   C321      1.0  0.85854  0.31849  0.40103  1.0000
  C   C322      1.0  0.86331  0.34285  0.40390  1.0000
  C   C323      1.0  0.88680  0.39664  0.35468  1.0000
  C   C324      1.0  0.89321  0.42144  0.35747  1.0000
  H   H153      1.0  0.90031  0.39229  0.36412  1.0000
  H   H154      1.0  0.91119  0.43400  0.37037  1.0000
  H   H155      1.0  0.86299  0.31154  0.45552  1.0000
  H   H156      1.0  0.87149  0.35303  0.46031  1.0000
  C   C325      1.0  0.05955  0.58535  0.38988  1.0000
  C   C326      1.0  0.03377  0.57336  0.38845  1.0000
  C   C327      1.0  0.97903  0.55294  0.33415  1.0000
  C   C328      1.0  0.95340  0.53753  0.34101  1.0000
  H   H157      1.0  0.98626  0.57158  0.33482  1.0000
  H   H158      1.0  0.94273  0.54551  0.34689  1.0000
  H   H159      1.0  0.06871  0.59537  0.44542  1.0000
  H   H160      1.0  0.02483  0.57500  0.44326  1.0000
  C   C329      1.0  0.42609  0.47649  0.38980  1.0000
  C   C330      1.0  0.43808  0.46270  0.38836  1.0000
  C   C331      1.0  0.45848  0.42837  0.33408  1.0000
  C   C332      1.0  0.47390  0.41815  0.34093  1.0000
  H   H161      1.0  0.43985  0.41696  0.33465  1.0000
  H   H162      1.0  0.46591  0.39950  0.34676  1.0000
  H   H163      1.0  0.41607  0.47562  0.44537  1.0000
  H   H164      1.0  0.43642  0.45210  0.44315  1.0000
  C   C333      1.0  0.53499  0.95188  0.38978  1.0000
  C   C334      1.0  0.54876  0.97767  0.38837  1.0000
  C   C335      1.0  0.58308  0.03241  0.33415  1.0000
  C   C336      1.0  0.59329  0.05804  0.34099  1.0000
  H   H165      1.0  0.59449  0.02519  0.33474  1.0000
  H   H166      1.0  0.61194  0.06871  0.34685  1.0000
  H   H167      1.0  0.53582  0.94273  0.44541  1.0000
  H   H168      1.0  0.55934  0.98660  0.44319  1.0000
