data_image0
_chemical_formula_structural       C14HC6H3CHC2HC6H3CHC2NC2HNHCHC2NC2HNHCHC2HC6H3CHC2HC6H3CHC2NC2HNHCHC2NC2HNHCHC2HC6H3CHC2HC6H3CHC2HC6H3CHC2HC6H3CHC2NC2HNHCHC2NC2HNHCHC2HC6H3CHC2HC6H3CHC2NC2HNHCHC2NC2HNHCHC2HC6H3CHC2HC6H3CHC2NC2HNHCHC2NC2HNHCHC2HC6H3CHC2HC6H3CHNCNCN5CNCN5CNCN5CNCN5CNCN5CNCN5CNCN5CNCN5CNCN5CNCN4CNCNCN4CNCNCN5CNCN5CNCN4CNCNCN4CNCNCN4C2NC2HNHCHC2NC2HNHCHC2HC6H3CHC2HC6H3CHC2NC2HNHCHC2NC2HNHCHC2HC6H3CHC2HC6H3CHC2NC2HNHCHC2NC2HNHCHC2NC2HNHCHC2NC2HNHCHC2HC6H3CHC2HC6H3CHC2NC2HNHCHC2NC2HNHCHC2HC6H3CHC2HC6H3CHC2NC2HNHCHC2NC2HNHCHC2HC6H3CHC2HC6H3CHC2NC2HNHCHC2NC2HNHCH
_chemical_formula_sum              "C384 H192 N144"
_cell_length_a       87.2313
_cell_length_b       68.4026
_cell_length_c       15.0001
_cell_angle_alpha    90
_cell_angle_beta     90
_cell_angle_gamma    90

_space_group_name_H-M_alt    "P 1"
_space_group_IT_number       1

loop_
  _space_group_symop_operation_xyz
  'x, y, z'

loop_
  _atom_site_type_symbol
  _atom_site_label
  _atom_site_symmetry_multiplicity
  _atom_site_fract_x
  _atom_site_fract_y
  _atom_site_fract_z
  _atom_site_occupancy
  C   C1        1.0  0.01294  0.13229  0.33252  1.0000
  C   C2        1.0  0.98655  0.86743  0.34014  1.0000
  C   C3        1.0  0.51296  0.63225  0.33149  1.0000
  C   C4        1.0  0.48654  0.36748  0.33938  1.0000
  C   C5        1.0  0.39587  0.98254  0.31323  1.0000
  C   C6        1.0  0.60431  0.01682  0.31215  1.0000
  C   C7        1.0  0.89589  0.48249  0.31398  1.0000
  C   C8        1.0  0.10432  0.51688  0.31294  1.0000
  C   C9        1.0  0.16971  0.26327  0.32768  1.0000
  C   C10       1.0  0.82998  0.73623  0.32869  1.0000
  C   C11       1.0  0.66987  0.76282  0.34146  1.0000
  C   C12       1.0  0.32979  0.23670  0.34223  1.0000
  C   C13       1.0  0.00315  0.97732  0.25354  1.0000
  C   C14       1.0  0.00052  0.95702  0.26151  1.0000
  H   H1        1.0  0.00400  0.94785  0.21142  1.0000
  C   C15       1.0  0.00072  0.01016  0.31799  1.0000
  C   C16       1.0  0.00600  0.05076  0.31039  1.0000
  C   C17       1.0  0.01103  0.03854  0.24021  1.0000
  C   C18       1.0  0.00838  0.01817  0.24277  1.0000
  C   C19       1.0  0.01322  0.00568  0.17334  1.0000
  C   C20       1.0  0.01061  0.98542  0.17863  1.0000
  H   H2        1.0  0.01875  0.01120  0.11867  1.0000
  H   H3        1.0  0.01429  0.97664  0.12770  1.0000
  H   H4        1.0  0.01664  0.04451  0.18669  1.0000
  C   C21       1.0  0.00904  0.07058  0.30863  1.0000
  H   H5        1.0  0.01942  0.07503  0.28990  1.0000
  C   C22       1.0  0.50304  0.47732  0.25277  1.0000
  C   C23       1.0  0.50038  0.45703  0.26077  1.0000
  H   H6        1.0  0.50382  0.44785  0.21057  1.0000
  C   C24       1.0  0.50071  0.51015  0.31738  1.0000
  C   C25       1.0  0.50604  0.55073  0.30975  1.0000
  C   C26       1.0  0.51099  0.53851  0.23939  1.0000
  C   C27       1.0  0.50832  0.51815  0.24196  1.0000
  C   C28       1.0  0.51308  0.50566  0.17235  1.0000
  C   C29       1.0  0.51044  0.48541  0.17766  1.0000
  H   H7        1.0  0.51856  0.51118  0.11753  1.0000
  H   H8        1.0  0.51407  0.47663  0.12660  1.0000
  H   H9        1.0  0.51655  0.54448  0.18570  1.0000
  C   C30       1.0  0.50907  0.57056  0.30789  1.0000
  H   H10       1.0  0.51943  0.57501  0.28871  1.0000
  C   C31       1.0  0.04408  0.16633  0.31456  1.0000
  C   C32       1.0  0.05220  0.17425  0.24158  1.0000
  N   N1        1.0  0.06542  0.18425  0.25513  1.0000
  C   C33       1.0  0.07161  0.18726  0.33716  1.0000
  C   C34       1.0  0.10427  0.21896  0.28199  1.0000
  H   H11       1.0  0.04812  0.17300  0.17791  1.0000
  N   N2        1.0  0.09198  0.20689  0.27567  1.0000
  H   H12       1.0  0.10855  0.22502  0.22484  1.0000
  C   C35       1.0  0.02980  0.15806  0.30205  1.0000
  H   H13       1.0  0.02219  0.16530  0.26511  1.0000
  C   C36       1.0  0.95551  0.83324  0.32302  1.0000
  C   C37       1.0  0.94725  0.82572  0.24969  1.0000
  N   N3        1.0  0.93405  0.81568  0.26291  1.0000
  C   C38       1.0  0.92800  0.81226  0.34496  1.0000
  C   C39       1.0  0.89521  0.78095  0.28802  1.0000
  H   H14       1.0  0.95121  0.82731  0.18591  1.0000
  N   N4        1.0  0.90751  0.79302  0.28241  1.0000
  H   H15       1.0  0.89083  0.77522  0.23043  1.0000
  C   C40       1.0  0.96975  0.84162  0.31031  1.0000
  H   H16       1.0  0.97723  0.83466  0.27140  1.0000
  C   C41       1.0  0.93501  0.18068  0.25495  1.0000
  C   C42       1.0  0.94868  0.16986  0.26615  1.0000
  H   H17       1.0  0.95448  0.16495  0.21109  1.0000
  C   C43       1.0  0.91428  0.19985  0.32292  1.0000
  C   C44       1.0  0.88915  0.22547  0.30691  1.0000
  C   C45       1.0  0.89604  0.21748  0.22977  1.0000
  C   C46       1.0  0.90859  0.20450  0.23671  1.0000
  C   C47       1.0  0.91594  0.19676  0.16063  1.0000
  C   C48       1.0  0.92899  0.18487  0.16970  1.0000
  H   H18       1.0  0.91204  0.20006  0.09804  1.0000
  H   H19       1.0  0.93433  0.17980  0.11349  1.0000
  H   H20       1.0  0.89221  0.22160  0.16797  1.0000
  C   C49       1.0  0.87845  0.24026  0.29953  1.0000
  H   H21       1.0  0.88087  0.25135  0.25876  1.0000
  C   C50       1.0  0.06444  0.81940  0.25204  1.0000
  C   C51       1.0  0.05084  0.83033  0.26405  1.0000
  H   H22       1.0  0.04487  0.83509  0.20935  1.0000
  C   C52       1.0  0.08529  0.80025  0.31895  1.0000
  C   C53       1.0  0.11020  0.77430  0.30188  1.0000
  C   C54       1.0  0.10312  0.78216  0.22501  1.0000
  C   C55       1.0  0.09068  0.79529  0.23245  1.0000
  C   C56       1.0  0.08314  0.80288  0.15671  1.0000
  C   C57       1.0  0.07017  0.81491  0.16643  1.0000
  H   H23       1.0  0.08681  0.79936  0.09392  1.0000
  H   H24       1.0  0.06468  0.81985  0.11049  1.0000
  H   H25       1.0  0.10673  0.77782  0.16306  1.0000
  C   C58       1.0  0.12081  0.75939  0.29425  1.0000
  H   H26       1.0  0.11831  0.74835  0.25336  1.0000
  C   C59       1.0  0.54405  0.66634  0.31215  1.0000
  C   C60       1.0  0.55195  0.67478  0.23957  1.0000
  N   N5        1.0  0.56516  0.68479  0.25329  1.0000
  C   C61       1.0  0.57155  0.68731  0.33516  1.0000
  C   C62       1.0  0.60399  0.71954  0.28161  1.0000
  H   H27       1.0  0.54772  0.67390  0.17611  1.0000
  N   N6        1.0  0.59172  0.70746  0.27465  1.0000
  H   H28       1.0  0.60813  0.72599  0.22501  1.0000
  C   C63       1.0  0.52978  0.65800  0.29982  1.0000
  H   H29       1.0  0.52213  0.66520  0.26299  1.0000
  C   C64       1.0  0.45556  0.33323  0.32074  1.0000
  C   C65       1.0  0.44752  0.32519  0.24772  1.0000
  N   N7        1.0  0.43432  0.31514  0.26110  1.0000
  C   C66       1.0  0.42808  0.31220  0.34302  1.0000
  C   C67       1.0  0.39549  0.28039  0.28759  1.0000
  H   H30       1.0  0.45163  0.32642  0.18410  1.0000
  N   N8        1.0  0.40779  0.29245  0.28136  1.0000
  H   H31       1.0  0.39126  0.27426  0.23049  1.0000
  C   C68       1.0  0.46977  0.34169  0.30822  1.0000
  H   H32       1.0  0.47729  0.33481  0.26926  1.0000
  C   C69       1.0  0.43488  0.68014  0.25765  1.0000
  C   C70       1.0  0.44853  0.66931  0.26903  1.0000
  H   H33       1.0  0.45417  0.66405  0.21410  1.0000
  C   C71       1.0  0.41438  0.69983  0.32487  1.0000
  C   C72       1.0  0.38927  0.72542  0.30755  1.0000
  C   C73       1.0  0.39595  0.71692  0.23095  1.0000
  C   C74       1.0  0.40849  0.70396  0.23856  1.0000
  C   C75       1.0  0.41563  0.69573  0.16289  1.0000
  C   C76       1.0  0.42867  0.68384  0.17239  1.0000
  H   H34       1.0  0.41158  0.69864  0.10023  1.0000
  H   H35       1.0  0.43385  0.67839  0.11642  1.0000
  H   H36       1.0  0.39197  0.72065  0.16893  1.0000
  C   C77       1.0  0.37854  0.74013  0.29885  1.0000
  H   H37       1.0  0.38089  0.75095  0.25647  1.0000
  C   C78       1.0  0.56460  0.31996  0.25459  1.0000
  C   C79       1.0  0.55102  0.33089  0.26683  1.0000
  H   H38       1.0  0.54521  0.33602  0.21222  1.0000
  C   C80       1.0  0.58522  0.30028  0.32074  1.0000
  C   C81       1.0  0.61011  0.27437  0.30226  1.0000
  C   C82       1.0  0.60324  0.28274  0.22591  1.0000
  C   C83       1.0  0.59081  0.29585  0.23407  1.0000
  C   C84       1.0  0.58347  0.30394  0.15871  1.0000
  C   C85       1.0  0.57052  0.31597  0.16891  1.0000
  H   H39       1.0  0.58730  0.30080  0.09581  1.0000
  H   H40       1.0  0.56518  0.32128  0.11318  1.0000
  H   H41       1.0  0.60700  0.27880  0.16369  1.0000
  C   C86       1.0  0.62075  0.25955  0.29328  1.0000
  H   H42       1.0  0.61835  0.24879  0.25065  1.0000
  C   C87       1.0  0.37913  0.09390  0.26624  1.0000
  C   C88       1.0  0.38387  0.07437  0.27919  1.0000
  H   H43       1.0  0.38626  0.06584  0.22477  1.0000
  C   C89       1.0  0.37299  0.12580  0.33186  1.0000
  C   C90       1.0  0.36693  0.16594  0.31363  1.0000
  C   C91       1.0  0.36865  0.15416  0.23695  1.0000
  C   C92       1.0  0.37161  0.13394  0.24504  1.0000
  C   C93       1.0  0.37363  0.12184  0.16971  1.0000
  C   C94       1.0  0.37733  0.10197  0.18023  1.0000
  H   H44       1.0  0.37275  0.12748  0.10671  1.0000
  H   H45       1.0  0.37910  0.09358  0.12465  1.0000
  H   H46       1.0  0.36793  0.16037  0.17489  1.0000
  C   C95       1.0  0.36493  0.18583  0.30596  1.0000
  H   H47       1.0  0.37263  0.19353  0.27177  1.0000
  C   C96       1.0  0.62128  0.90608  0.27545  1.0000
  C   C97       1.0  0.61666  0.92562  0.28936  1.0000
  H   H48       1.0  0.61435  0.93431  0.23532  1.0000
  C   C98       1.0  0.62713  0.87394  0.33938  1.0000
  C   C99       1.0  0.63287  0.83377  0.31890  1.0000
  C   C100      1.0  0.63131  0.84579  0.24288  1.0000
  C   C101      1.0  0.62851  0.86603  0.25211  1.0000
  C   C102      1.0  0.62665  0.87835  0.17744  1.0000
  C   C103      1.0  0.62309  0.89824  0.18903  1.0000
  H   H49       1.0  0.62754  0.87288  0.11415  1.0000
  H   H50       1.0  0.62142  0.90680  0.13389  1.0000
  H   H51       1.0  0.63203  0.83975  0.18047  1.0000
  C   C104      1.0  0.63473  0.81389  0.31005  1.0000
  H   H52       1.0  0.62690  0.80635  0.27619  1.0000
  C   C105      1.0  0.61345  0.06589  0.26987  1.0000
  C   C106      1.0  0.61856  0.07865  0.20193  1.0000
  N   N9        1.0  0.62265  0.09726  0.22161  1.0000
  C   C107      1.0  0.62221  0.10477  0.30544  1.0000
  C   C108      1.0  0.63352  0.15563  0.26335  1.0000
  H   H53       1.0  0.61894  0.07426  0.13679  1.0000
  N   N10       1.0  0.63028  0.13639  0.25285  1.0000
  H   H54       1.0  0.63642  0.16363  0.20828  1.0000
  C   C109      1.0  0.60763  0.04758  0.24969  1.0000
  H   H55       1.0  0.60476  0.04487  0.18669  1.0000
  C   C110      1.0  0.38609  0.93328  0.27640  1.0000
  C   C111      1.0  0.38073  0.92060  0.20882  1.0000
  N   N11       1.0  0.37652  0.90204  0.22879  1.0000
  C   C112      1.0  0.37706  0.89455  0.31261  1.0000
  C   C113      1.0  0.36541  0.84381  0.27101  1.0000
  H   H56       1.0  0.38029  0.92497  0.14367  1.0000
  N   N12       1.0  0.36872  0.86302  0.26042  1.0000
  H   H57       1.0  0.36239  0.83584  0.21605  1.0000
  C   C114      1.0  0.39210  0.95145  0.25565  1.0000
  H   H58       1.0  0.39501  0.95401  0.19255  1.0000
  C   C115      1.0  0.87974  0.59390  0.26201  1.0000
  C   C116      1.0  0.88431  0.57433  0.27591  1.0000
  H   H59       1.0  0.88674  0.56568  0.22194  1.0000
  C   C117      1.0  0.87373  0.62597  0.32620  1.0000
  C   C118      1.0  0.86794  0.66611  0.30641  1.0000
  C   C119      1.0  0.86972  0.65422  0.23015  1.0000
  C   C120      1.0  0.87255  0.63398  0.23904  1.0000
  C   C121      1.0  0.87461  0.62174  0.16424  1.0000
  C   C122      1.0  0.87814  0.60184  0.17563  1.0000
  H   H60       1.0  0.87386  0.62728  0.10101  1.0000
  H   H61       1.0  0.87994  0.59334  0.12044  1.0000
  H   H62       1.0  0.86910  0.66035  0.16788  1.0000
  C   C123      1.0  0.86595  0.68597  0.29835  1.0000
  H   H63       1.0  0.87410  0.69382  0.26873  1.0000
  C   C124      1.0  0.12072  0.40607  0.27128  1.0000
  C   C125      1.0  0.11625  0.42564  0.28613  1.0000
  H   H64       1.0  0.11393  0.43445  0.23253  1.0000
  C   C126      1.0  0.12643  0.37376  0.33380  1.0000
  C   C127      1.0  0.13192  0.33361  0.31176  1.0000
  C   C128      1.0  0.13033  0.34574  0.23616  1.0000
  C   C129      1.0  0.12765  0.36598  0.24619  1.0000
  C   C130      1.0  0.12577  0.37846  0.17205  1.0000
  C   C131      1.0  0.12236  0.39836  0.18449  1.0000
  H   H65       1.0  0.12654  0.37308  0.10852  1.0000
  H   H66       1.0  0.12068  0.40703  0.12975  1.0000
  H   H67       1.0  0.13096  0.33979  0.17355  1.0000
  C   C132      1.0  0.13377  0.31376  0.30253  1.0000
  H   H68       1.0  0.12548  0.30604  0.27343  1.0000
  C   C133      1.0  0.11326  0.56600  0.27239  1.0000
  C   C134      1.0  0.11853  0.57890  0.20551  1.0000
  N   N13       1.0  0.12246  0.59752  0.22632  1.0000
  C   C135      1.0  0.12168  0.60487  0.31035  1.0000
  C   C136      1.0  0.13297  0.65582  0.27127  1.0000
  H   H69       1.0  0.11917  0.57463  0.14027  1.0000
  N   N14       1.0  0.12981  0.63660  0.25976  1.0000
  H   H70       1.0  0.13605  0.66392  0.21683  1.0000
  C   C137      1.0  0.10764  0.54766  0.25092  1.0000
  H   H71       1.0  0.10501  0.54502  0.18749  1.0000
  C   C138      1.0  0.88629  0.43318  0.27907  1.0000
  C   C139      1.0  0.88077  0.42035  0.21253  1.0000
  N   N15       1.0  0.87672  0.40180  0.23361  1.0000
  C   C140      1.0  0.87759  0.39444  0.31758  1.0000
  C   C141      1.0  0.86596  0.34361  0.27889  1.0000
  H   H72       1.0  0.88006  0.42463  0.14732  1.0000
  N   N16       1.0  0.86919  0.36282  0.26733  1.0000
  H   H73       1.0  0.86275  0.33556  0.22456  1.0000
  C   C142      1.0  0.89210  0.45138  0.25705  1.0000
  H   H74       1.0  0.89477  0.45388  0.19353  1.0000
  C   C143      1.0  0.51788  0.00463  0.26725  1.0000
  C   C144      1.0  0.53382  0.00178  0.27659  1.0000
  H   H75       1.0  0.54100  0.00590  0.22587  1.0000
  C   C145      1.0  0.49210  0.00130  0.33075  1.0000
  C   C146      1.0  0.46024  0.00715  0.32040  1.0000
  C   C147      1.0  0.46980  0.01323  0.24960  1.0000
  C   C148      1.0  0.48580  0.01028  0.25354  1.0000
  C   C149      1.0  0.49560  0.01616  0.18361  1.0000
  C   C150      1.0  0.51152  0.01331  0.19032  1.0000
  H   H76       1.0  0.49124  0.02263  0.12754  1.0000
  H   H77       1.0  0.51841  0.01777  0.13899  1.0000
  H   H78       1.0  0.46510  0.01990  0.19483  1.0000
  C   C151      1.0  0.44473  0.01092  0.31770  1.0000
  H   H79       1.0  0.44131  0.02431  0.30094  1.0000
  C   C152      1.0  0.01791  0.50464  0.26751  1.0000
  C   C153      1.0  0.03386  0.50181  0.27699  1.0000
  H   H80       1.0  0.04104  0.50593  0.22630  1.0000
  C   C154      1.0  0.99212  0.50129  0.33083  1.0000
  C   C155      1.0  0.96027  0.50709  0.32022  1.0000
  C   C156      1.0  0.96984  0.51316  0.24945  1.0000
  C   C157      1.0  0.98584  0.51023  0.25351  1.0000
  C   C158      1.0  0.99564  0.51611  0.18363  1.0000
  C   C159      1.0  0.01156  0.51329  0.19048  1.0000
  H   H81       1.0  0.99129  0.52256  0.12749  1.0000
  H   H82       1.0  0.01846  0.51775  0.13919  1.0000
  H   H83       1.0  0.96514  0.51980  0.19461  1.0000
  C   C160      1.0  0.94476  0.51083  0.31738  1.0000
  H   H84       1.0  0.94133  0.52420  0.30013  1.0000
  C   C161      1.0  0.21090  0.26273  0.31773  1.0000
  C   C162      1.0  0.22203  0.26678  0.25189  1.0000
  N   N17       1.0  0.23688  0.26174  0.26510  1.0000
  C   C163      1.0  0.24198  0.25283  0.34046  1.0000
  C   C164      1.0  0.28300  0.24737  0.29067  1.0000
  H   H85       1.0  0.21915  0.27365  0.19367  1.0000
  N   N18       1.0  0.26791  0.25196  0.28502  1.0000
  H   H86       1.0  0.28992  0.25043  0.23745  1.0000
  C   C165      1.0  0.19598  0.26912  0.30691  1.0000
  H   H87       1.0  0.19432  0.28233  0.28065  1.0000
  C   C166      1.0  0.78879  0.73677  0.31811  1.0000
  C   C167      1.0  0.77767  0.73272  0.25221  1.0000
  N   N19       1.0  0.76281  0.73775  0.26533  1.0000
  C   C168      1.0  0.75770  0.74667  0.34064  1.0000
  C   C169      1.0  0.71668  0.75208  0.29067  1.0000
  H   H88       1.0  0.78056  0.72584  0.19402  1.0000
  N   N20       1.0  0.73178  0.74751  0.28508  1.0000
  H   H89       1.0  0.70977  0.74900  0.23743  1.0000
  C   C170      1.0  0.80371  0.73040  0.30731  1.0000
  H   H90       1.0  0.80539  0.71726  0.28039  1.0000
  C   C171      1.0  0.76808  0.24874  0.26448  1.0000
  C   C172      1.0  0.78358  0.25411  0.27682  1.0000
  H   H91       1.0  0.79134  0.25151  0.22695  1.0000
  C   C173      1.0  0.74184  0.24777  0.32336  1.0000
  C   C174      1.0  0.71080  0.23696  0.30691  1.0000
  C   C175      1.0  0.72125  0.23286  0.23730  1.0000
  C   C176      1.0  0.73683  0.23828  0.24430  1.0000
  C   C177      1.0  0.74748  0.23428  0.17581  1.0000
  C   C178      1.0  0.76297  0.23950  0.18574  1.0000
  H   H92       1.0  0.74406  0.22745  0.11843  1.0000
  H   H93       1.0  0.77050  0.23640  0.13532  1.0000
  H   H94       1.0  0.71754  0.22569  0.18131  1.0000
  C   C179      1.0  0.69587  0.23021  0.30211  1.0000
  H   H95       1.0  0.69409  0.21710  0.27513  1.0000
  C   C180      1.0  0.23122  0.75055  0.26334  1.0000
  C   C181      1.0  0.21571  0.74518  0.27473  1.0000
  H   H96       1.0  0.20802  0.74788  0.22458  1.0000
  C   C182      1.0  0.25739  0.75138  0.32354  1.0000
  C   C183      1.0  0.28845  0.76221  0.30904  1.0000
  C   C184      1.0  0.27810  0.76643  0.23905  1.0000
  C   C185      1.0  0.26251  0.76101  0.24507  1.0000
  C   C186      1.0  0.25197  0.76514  0.17622  1.0000
  C   C187      1.0  0.23645  0.75992  0.18519  1.0000
  H   H97       1.0  0.25547  0.77207  0.11927  1.0000
  H   H98       1.0  0.22901  0.76312  0.13453  1.0000
  H   H99       1.0  0.28189  0.77370  0.18352  1.0000
  C   C188      1.0  0.30338  0.76898  0.30527  1.0000
  H   H100      1.0  0.30519  0.78212  0.27861  1.0000
  N   N21       1.0  0.01273  0.11246  0.33162  1.0000
  C   C189      1.0  0.99925  0.10244  0.32803  1.0000
  N   N22       1.0  0.98587  0.11258  0.32700  1.0000
  C   C190      1.0  0.98577  0.13241  0.32966  1.0000
  N   N23       1.0  0.99938  0.14210  0.33188  1.0000
  N   N24       1.0  0.02626  0.14148  0.33684  1.0000
  N   N25       1.0  0.97251  0.14177  0.32682  1.0000
  N   N26       1.0  0.99853  0.08313  0.32698  1.0000
  N   N27       1.0  0.98659  0.88726  0.33866  1.0000
  C   C191      1.0  0.99996  0.89743  0.33151  1.0000
  N   N28       1.0  0.01338  0.88745  0.32606  1.0000
  C   C192      1.0  0.01366  0.86763  0.32966  1.0000
  N   N29       1.0  0.00016  0.85779  0.33604  1.0000
  N   N30       1.0  0.97331  0.85809  0.34603  1.0000
  N   N31       1.0  0.02697  0.85839  0.32458  1.0000
  N   N32       1.0  0.00048  0.91673  0.32724  1.0000
  N   N33       1.0  0.51278  0.61243  0.33057  1.0000
  C   C193      1.0  0.49930  0.60240  0.32793  1.0000
  N   N34       1.0  0.48590  0.61251  0.32792  1.0000
  C   C194      1.0  0.48581  0.63234  0.33075  1.0000
  N   N35       1.0  0.49941  0.64205  0.33196  1.0000
  N   N36       1.0  0.52628  0.64146  0.33512  1.0000
  N   N37       1.0  0.47254  0.64170  0.32866  1.0000
  N   N38       1.0  0.49859  0.58309  0.32682  1.0000
  N   N39       1.0  0.48656  0.38730  0.33788  1.0000
  C   C195      1.0  0.49993  0.39749  0.33160  1.0000
  N   N40       1.0  0.51338  0.38753  0.32709  1.0000
  C   C196      1.0  0.51366  0.36771  0.33085  1.0000
  N   N41       1.0  0.50016  0.35785  0.33629  1.0000
  N   N42       1.0  0.47331  0.35811  0.34460  1.0000
  N   N43       1.0  0.52697  0.35848  0.32646  1.0000
  N   N44       1.0  0.50044  0.41678  0.32724  1.0000
  N   N45       1.0  0.38857  0.00002  0.32044  1.0000
  C   C197      1.0  0.39665  0.01673  0.33368  1.0000
  N   N46       1.0  0.41220  0.01579  0.33689  1.0000
  C   C198      1.0  0.41975  0.99851  0.32997  1.0000
  N   N47       1.0  0.41145  0.98196  0.31835  1.0000
  N   N48       1.0  0.38766  0.96654  0.30080  1.0000
  N   N49       1.0  0.43488  0.99729  0.33174  1.0000
  N   N50       1.0  0.38963  0.03386  0.33380  1.0000
  N   N51       1.0  0.61168  0.99950  0.32364  1.0000
  C   C199      1.0  0.60371  0.98298  0.34287  1.0000
  N   N52       1.0  0.58817  0.98388  0.34767  1.0000
  C   C200      1.0  0.58056  0.00103  0.33724  1.0000
  N   N53       1.0  0.58874  0.01736  0.31853  1.0000
  N   N54       1.0  0.61245  0.03264  0.29453  1.0000
  N   N55       1.0  0.56544  0.00211  0.33677  1.0000
  N   N56       1.0  0.61077  0.96588  0.34412  1.0000
  N   N57       1.0  0.88860  0.49999  0.32039  1.0000
  C   C201      1.0  0.89671  0.51671  0.33296  1.0000
  N   N58       1.0  0.91225  0.51575  0.33628  1.0000
  C   C202      1.0  0.91979  0.49845  0.33014  1.0000
  N   N59       1.0  0.91148  0.48189  0.31919  1.0000
  N   N60       1.0  0.88768  0.46648  0.30209  1.0000
  N   N61       1.0  0.93491  0.49722  0.33195  1.0000
  N   N62       1.0  0.88974  0.53387  0.33223  1.0000
  N   N63       1.0  0.11167  0.49953  0.32362  1.0000
  C   C203      1.0  0.10369  0.48299  0.34243  1.0000
  N   N64       1.0  0.08815  0.48393  0.34750  1.0000
  C   C204      1.0  0.08056  0.50111  0.33791  1.0000
  N   N65       1.0  0.08875  0.51746  0.31963  1.0000
  N   N66       1.0  0.11247  0.53271  0.29561  1.0000
  N   N67       1.0  0.06545  0.50221  0.33754  1.0000
  N   N68       1.0  0.11067  0.46586  0.34266  1.0000
  N   N69       1.0  0.15899  0.24884  0.32892  1.0000
  C   C205      1.0  0.14379  0.25321  0.32991  1.0000
  N   N70       1.0  0.13942  0.27230  0.32873  1.0000
  C   C206      1.0  0.14994  0.28692  0.32756  1.0000
  N   N71       1.0  0.16501  0.28223  0.32831  1.0000
  N   N72       1.0  0.18444  0.25864  0.33077  1.0000
  N   N73       1.0  0.14616  0.30558  0.32964  1.0000
  N   N74       1.0  0.13341  0.23910  0.32999  1.0000
  N   N75       1.0  0.84067  0.75068  0.33143  1.0000
  C   C207      1.0  0.85587  0.74634  0.33239  1.0000
  N   N76       1.0  0.86028  0.72728  0.32955  1.0000
  C   C208      1.0  0.84979  0.71264  0.32682  1.0000
  N   N77       1.0  0.83471  0.71728  0.32773  1.0000
  N   N78       1.0  0.81524  0.74083  0.33183  1.0000
  N   N79       1.0  0.85362  0.69399  0.32741  1.0000
  N   N80       1.0  0.86624  0.76047  0.33382  1.0000
  C   C209      1.0  0.82961  0.26444  0.34840  1.0000
  N   N81       1.0  0.84036  0.25005  0.34679  1.0000
  C   C210      1.0  0.85555  0.25447  0.34632  1.0000
  N   N82       1.0  0.85989  0.27356  0.34820  1.0000
  C   C211      1.0  0.84934  0.28816  0.34992  1.0000
  N   N83       1.0  0.83428  0.28342  0.34852  1.0000
  N   N84       1.0  0.81490  0.25970  0.34459  1.0000
  N   N85       1.0  0.85316  0.30681  0.34714  1.0000
  N   N86       1.0  0.86595  0.24036  0.34514  1.0000
  C   C212      1.0  0.16957  0.73485  0.34361  1.0000
  N   N87       1.0  0.15885  0.74929  0.34200  1.0000
  C   C213      1.0  0.14365  0.74494  0.34070  1.0000
  N   N88       1.0  0.13926  0.72587  0.34183  1.0000
  C   C214      1.0  0.14976  0.71122  0.34353  1.0000
  N   N89       1.0  0.16484  0.71589  0.34297  1.0000
  N   N90       1.0  0.18429  0.73954  0.34068  1.0000
  N   N91       1.0  0.14591  0.69258  0.34030  1.0000
  N   N92       1.0  0.13332  0.75913  0.33972  1.0000
  N   N93       1.0  0.65905  0.74856  0.33618  1.0000
  C   C215      1.0  0.64389  0.75315  0.33486  1.0000
  N   N94       1.0  0.63967  0.77229  0.33626  1.0000
  C   C216      1.0  0.65031  0.78676  0.33996  1.0000
  N   N95       1.0  0.66531  0.78184  0.34333  1.0000
  N   N96       1.0  0.68457  0.75794  0.34276  1.0000
  N   N97       1.0  0.64666  0.80548  0.34224  1.0000
  N   N98       1.0  0.63341  0.73916  0.33182  1.0000
  N   N99       1.0  0.34061  0.25100  0.33842  1.0000
  C   C217      1.0  0.35577  0.24643  0.33712  1.0000
  N   N100      1.0  0.36000  0.22729  0.33694  1.0000
  C   C218      1.0  0.34938  0.21280  0.33910  1.0000
  N   N101      1.0  0.33436  0.21768  0.34257  1.0000
  N   N102      1.0  0.31510  0.24157  0.34352  1.0000
  N   N103      1.0  0.35307  0.19409  0.33991  1.0000
  N   N104      1.0  0.36624  0.26042  0.33543  1.0000
  C   C219      1.0  0.32946  0.76389  0.33611  1.0000
  N   N105      1.0  0.34032  0.74967  0.34072  1.0000
  C   C220      1.0  0.35547  0.75431  0.34210  1.0000
  N   N106      1.0  0.35964  0.77347  0.34122  1.0000
  C   C221      1.0  0.34897  0.78792  0.33833  1.0000
  N   N107      1.0  0.33397  0.78294  0.33472  1.0000
  N   N108      1.0  0.31479  0.75888  0.33425  1.0000
  N   N109      1.0  0.35265  0.80662  0.33524  1.0000
  N   N110      1.0  0.36598  0.74034  0.34388  1.0000
  C   C222      1.0  0.66974  0.23539  0.33134  1.0000
  N   N111      1.0  0.65891  0.24966  0.33589  1.0000
  C   C223      1.0  0.64375  0.24510  0.33634  1.0000
  N   N112      1.0  0.63952  0.22596  0.33465  1.0000
  C   C224      1.0  0.65014  0.21147  0.33177  1.0000
  N   N113      1.0  0.66517  0.21637  0.32912  1.0000
  N   N114      1.0  0.68442  0.24033  0.33048  1.0000
  N   N115      1.0  0.64642  0.19277  0.32825  1.0000
  N   N116      1.0  0.63331  0.25915  0.33831  1.0000
  C   C225      1.0  0.99303  0.94925  0.33730  1.0000
  C   C226      1.0  0.98816  0.96246  0.40389  1.0000
  N   N117      1.0  0.99089  0.98189  0.39504  1.0000
  C   C227      1.0  0.99813  0.98981  0.32340  1.0000
  C   C228      1.0  0.99837  0.04192  0.38306  1.0000
  H   H101      1.0  0.98266  0.95766  0.45997  1.0000
  N   N118      1.0  0.99608  0.02231  0.38445  1.0000
  H   H102      1.0  0.99469  0.05002  0.43620  1.0000
  C   C229      1.0  0.99012  0.92946  0.34590  1.0000
  H   H103      1.0  0.97999  0.92522  0.36951  1.0000
  C   C230      1.0  0.49295  0.44927  0.33676  1.0000
  C   C231      1.0  0.48816  0.46248  0.40353  1.0000
  N   N119      1.0  0.49090  0.48190  0.39465  1.0000
  C   C232      1.0  0.49809  0.48981  0.32280  1.0000
  C   C233      1.0  0.49846  0.54190  0.38264  1.0000
  H   H104      1.0  0.48269  0.45769  0.45975  1.0000
  N   N120      1.0  0.49615  0.52230  0.38404  1.0000
  H   H105      1.0  0.49483  0.55000  0.43590  1.0000
  C   C234      1.0  0.49004  0.42949  0.34542  1.0000
  H   H106      1.0  0.47988  0.42524  0.36866  1.0000
  C   C235      1.0  0.06402  0.17956  0.41332  1.0000
  C   C236      1.0  0.05027  0.16898  0.40085  1.0000
  H   H107      1.0  0.04440  0.16389  0.45532  1.0000
  C   C237      1.0  0.08492  0.19880  0.34756  1.0000
  C   C238      1.0  0.11017  0.22411  0.36648  1.0000
  C   C239      1.0  0.10320  0.21582  0.44270  1.0000
  C   C240      1.0  0.09059  0.20299  0.43431  1.0000
  C   C241      1.0  0.08316  0.19497  0.50949  1.0000
  C   C242      1.0  0.07003  0.18327  0.49906  1.0000
  H   H108      1.0  0.08704  0.19794  0.57245  1.0000
  H   H109      1.0  0.06462  0.17801  0.55467  1.0000
  H   H110      1.0  0.10702  0.21964  0.50496  1.0000
  C   C243      1.0  0.12090  0.23883  0.37542  1.0000
  H   H111      1.0  0.11844  0.24979  0.41685  1.0000
  C   C244      1.0  0.93573  0.81954  0.42149  1.0000
  C   C245      1.0  0.94947  0.83016  0.40938  1.0000
  H   H112      1.0  0.95544  0.83497  0.46400  1.0000
  C   C246      1.0  0.91469  0.80070  0.35481  1.0000
  C   C247      1.0  0.88942  0.77537  0.37221  1.0000
  C   C248      1.0  0.89652  0.78324  0.44898  1.0000
  C   C249      1.0  0.90914  0.79607  0.44136  1.0000
  C   C250      1.0  0.91671  0.80368  0.51698  1.0000
  C   C251      1.0  0.92985  0.81540  0.50712  1.0000
  H   H113      1.0  0.91293  0.80040  0.57981  1.0000
  H   H114      1.0  0.93535  0.82035  0.56299  1.0000
  H   H115      1.0  0.89279  0.77911  0.51099  1.0000
  C   C252      1.0  0.87866  0.76065  0.38006  1.0000
  H   H116      1.0  0.88105  0.74959  0.42106  1.0000
  C   C253      1.0  0.95488  0.16671  0.35206  1.0000
  C   C254      1.0  0.94686  0.17440  0.42592  1.0000
  N   N121      1.0  0.93372  0.18464  0.41358  1.0000
  C   C255      1.0  0.92751  0.18811  0.33196  1.0000
  C   C256      1.0  0.89507  0.21988  0.39077  1.0000
  H   H117      1.0  0.95096  0.17280  0.48940  1.0000
  N   N122      1.0  0.90729  0.20767  0.39570  1.0000
  H   H118      1.0  0.89084  0.22569  0.44856  1.0000
  C   C257      1.0  0.96910  0.15819  0.36350  1.0000
  H   H119      1.0  0.97678  0.16517  0.40094  1.0000
  C   C258      1.0  0.04492  0.83376  0.35042  1.0000
  C   C259      1.0  0.05318  0.82626  0.42384  1.0000
  N   N123      1.0  0.06623  0.81590  0.41072  1.0000
  C   C260      1.0  0.07215  0.81214  0.32866  1.0000
  C   C261      1.0  0.10458  0.78021  0.38599  1.0000
  H   H120      1.0  0.04929  0.82806  0.48767  1.0000
  N   N124      1.0  0.09245  0.79257  0.39145  1.0000
  H   H121      1.0  0.10895  0.77453  0.44370  1.0000
  C   C262      1.0  0.03073  0.84230  0.36316  1.0000
  H   H122      1.0  0.02335  0.83564  0.40377  1.0000
  C   C263      1.0  0.56419  0.67908  0.41088  1.0000
  C   C264      1.0  0.55045  0.66849  0.39822  1.0000
  H   H123      1.0  0.54475  0.66302  0.45250  1.0000
  C   C265      1.0  0.58485  0.69886  0.34598  1.0000
  C   C266      1.0  0.61008  0.72414  0.36629  1.0000
  C   C267      1.0  0.60333  0.71531  0.44190  1.0000
  C   C268      1.0  0.59073  0.70250  0.43278  1.0000
  C   C269      1.0  0.58351  0.69396  0.50747  1.0000
  C   C270      1.0  0.57039  0.68226  0.49658  1.0000
  H   H124      1.0  0.58755  0.69653  0.57047  1.0000
  H   H125      1.0  0.56515  0.67661  0.55190  1.0000
  H   H126      1.0  0.60730  0.71871  0.50434  1.0000
  C   C271      1.0  0.62083  0.73878  0.37662  1.0000
  H   H127      1.0  0.61845  0.74944  0.41976  1.0000
  C   C272      1.0  0.43558  0.32002  0.41922  1.0000
  C   C273      1.0  0.44931  0.33064  0.40692  1.0000
  H   H128      1.0  0.45510  0.33584  0.46144  1.0000
  C   C274      1.0  0.41478  0.30064  0.35327  1.0000
  C   C275      1.0  0.38951  0.27536  0.37204  1.0000
  C   C276      1.0  0.39640  0.28376  0.44826  1.0000
  C   C277      1.0  0.40902  0.29657  0.43994  1.0000
  C   C278      1.0  0.41637  0.30469  0.51516  1.0000
  C   C279      1.0  0.42950  0.31640  0.50486  1.0000
  H   H129      1.0  0.41242  0.30181  0.57807  1.0000
  H   H130      1.0  0.43484  0.32175  0.56051  1.0000
  H   H131      1.0  0.39251  0.28005  0.51050  1.0000
  C   C280      1.0  0.37872  0.26074  0.38125  1.0000
  H   H132      1.0  0.38100  0.24999  0.42414  1.0000
  C   C281      1.0  0.45494  0.66663  0.35476  1.0000
  C   C282      1.0  0.44713  0.67481  0.42830  1.0000
  N   N125      1.0  0.43400  0.68506  0.41580  1.0000
  C   C283      1.0  0.42760  0.68808  0.33431  1.0000
  C   C284      1.0  0.39537  0.72035  0.39163  1.0000
  H   H133      1.0  0.45138  0.67355  0.49161  1.0000
  N   N126      1.0  0.40759  0.70813  0.39717  1.0000
  H   H134      1.0  0.39127  0.72653  0.44895  1.0000
  C   C285      1.0  0.46915  0.65805  0.36601  1.0000
  H   H135      1.0  0.47687  0.66498  0.40342  1.0000
  C   C286      1.0  0.54489  0.33385  0.35308  1.0000
  C   C287      1.0  0.55294  0.32586  0.42622  1.0000
  N   N127      1.0  0.56599  0.31549  0.41288  1.0000
  C   C288      1.0  0.57210  0.31218  0.33089  1.0000
  C   C289      1.0  0.60431  0.27975  0.38667  1.0000
  H   H136      1.0  0.54891  0.32731  0.48992  1.0000
  N   N128      1.0  0.59220  0.29212  0.39278  1.0000
  H   H137      1.0  0.60855  0.27370  0.44392  1.0000
  C   C290      1.0  0.53072  0.34245  0.36565  1.0000
  H   H138      1.0  0.52330  0.33584  0.40623  1.0000
  C   C291      1.0  0.38637  0.06694  0.36602  1.0000
  C   C292      1.0  0.38368  0.07953  0.43896  1.0000
  N   N129      1.0  0.37911  0.09822  0.42492  1.0000
  C   C293      1.0  0.37680  0.10589  0.34242  1.0000
  C   C294      1.0  0.36816  0.15696  0.39806  1.0000
  H   H139      1.0  0.38565  0.07506  0.50301  1.0000
  N   N130      1.0  0.37121  0.13758  0.40412  1.0000
  H   H140      1.0  0.36723  0.16492  0.45554  1.0000
  C   C295      1.0  0.39340  0.04908  0.37912  1.0000
  H   H141      1.0  0.40231  0.04856  0.42067  1.0000
  C   C296      1.0  0.61412  0.93286  0.37652  1.0000
  C   C297      1.0  0.61666  0.92004  0.44882  1.0000
  N   N131      1.0  0.62112  0.90134  0.43387  1.0000
  C   C298      1.0  0.62346  0.89387  0.35101  1.0000
  C   C299      1.0  0.63165  0.84252  0.40384  1.0000
  H   H142      1.0  0.61466  0.92436  0.51305  1.0000
  N   N132      1.0  0.62875  0.86192  0.41098  1.0000
  H   H143      1.0  0.63247  0.83439  0.46084  1.0000
  C   C300      1.0  0.60713  0.95073  0.39026  1.0000
  H   H144      1.0  0.59823  0.95124  0.43184  1.0000
  C   C301      1.0  0.61728  0.09270  0.37698  1.0000
  C   C302      1.0  0.61293  0.07324  0.35804  1.0000
  H   H145      1.0  0.60888  0.06456  0.40852  1.0000
  C   C303      1.0  0.62595  0.12455  0.32113  1.0000
  C   C304      1.0  0.63227  0.16444  0.34822  1.0000
  C   C305      1.0  0.62784  0.15254  0.42086  1.0000
  C   C306      1.0  0.62471  0.13246  0.40842  1.0000
  C   C307      1.0  0.62007  0.12028  0.47945  1.0000
  C   C308      1.0  0.61641  0.10055  0.46388  1.0000
  H   H146      1.0  0.61907  0.12575  0.54270  1.0000
  H   H147      1.0  0.61279  0.09210  0.51610  1.0000
  H   H148      1.0  0.62672  0.15858  0.48307  1.0000
  C   C309      1.0  0.63442  0.18428  0.35934  1.0000
  H   H149      1.0  0.62659  0.19185  0.39317  1.0000
  C   C310      1.0  0.38221  0.90656  0.38384  1.0000
  C   C311      1.0  0.38669  0.92595  0.36458  1.0000
  H   H150      1.0  0.39092  0.93457  0.41477  1.0000
  C   C312      1.0  0.37321  0.87481  0.32850  1.0000
  C   C313      1.0  0.36677  0.83496  0.35576  1.0000
  C   C314      1.0  0.37138  0.84681  0.42820  1.0000
  C   C315      1.0  0.37458  0.86687  0.41568  1.0000
  C   C316      1.0  0.37942  0.87900  0.48644  1.0000
  C   C317      1.0  0.38318  0.89869  0.47068  1.0000
  H   H151      1.0  0.38051  0.87350  0.54960  1.0000
  H   H152      1.0  0.38696  0.90710  0.52267  1.0000
  H   H153      1.0  0.37259  0.84075  0.49029  1.0000
  C   C318      1.0  0.36461  0.81513  0.36683  1.0000
  H   H154      1.0  0.37243  0.80755  0.40068  1.0000
  C   C319      1.0  0.88661  0.56702  0.36315  1.0000
  C   C320      1.0  0.88389  0.57976  0.43550  1.0000
  N   N133      1.0  0.87949  0.59847  0.42055  1.0000
  C   C321      1.0  0.87738  0.60603  0.33764  1.0000
  C   C322      1.0  0.86900  0.65726  0.39120  1.0000
  H   H155      1.0  0.88572  0.57537  0.49982  1.0000
  N   N134      1.0  0.87192  0.63787  0.39802  1.0000
  H   H156      1.0  0.86800  0.66531  0.44836  1.0000
  C   C323      1.0  0.89352  0.54912  0.37728  1.0000
  H   H157      1.0  0.90238  0.54861  0.41918  1.0000
  C   C324      1.0  0.11389  0.43275  0.37368  1.0000
  C   C325      1.0  0.11645  0.41978  0.44539  1.0000
  N   N135      1.0  0.12075  0.40106  0.42954  1.0000
  C   C326      1.0  0.12291  0.39371  0.34630  1.0000
  C   C327      1.0  0.13084  0.34222  0.39704  1.0000
  H   H158      1.0  0.11456  0.42400  0.50988  1.0000
  N   N136      1.0  0.12806  0.36163  0.40494  1.0000
  H   H159      1.0  0.13171  0.33398  0.45373  1.0000
  C   C328      1.0  0.10702  0.45065  0.38838  1.0000
  H   H160      1.0  0.09819  0.45116  0.43049  1.0000
  C   C329      1.0  0.11656  0.59264  0.38088  1.0000
  C   C330      1.0  0.11239  0.57318  0.36074  1.0000
  H   H161      1.0  0.10822  0.56438  0.41044  1.0000
  C   C331      1.0  0.12529  0.62464  0.32716  1.0000
  C   C332      1.0  0.13144  0.66448  0.35630  1.0000
  C   C333      1.0  0.12678  0.65248  0.42804  1.0000
  C   C334      1.0  0.12373  0.63241  0.41457  1.0000
  C   C335      1.0  0.11890  0.62008  0.48462  1.0000
  C   C336      1.0  0.11537  0.60035  0.46794  1.0000
  H   H162      1.0  0.11767  0.62543  0.54793  1.0000
  H   H163      1.0  0.11162  0.59178  0.51945  1.0000
  H   H164      1.0  0.12546  0.65841  0.49032  1.0000
  C   C337      1.0  0.13360  0.68429  0.36812  1.0000
  H   H165      1.0  0.12548  0.69199  0.39887  1.0000
  C   C338      1.0  0.88293  0.40660  0.38780  1.0000
  C   C339      1.0  0.88724  0.42600  0.36740  1.0000
  H   H166      1.0  0.89160  0.43473  0.41680  1.0000
  C   C340      1.0  0.87388  0.37471  0.33454  1.0000
  C   C341      1.0  0.86761  0.33491  0.36376  1.0000
  C   C342      1.0  0.87246  0.34685  0.43530  1.0000
  C   C343      1.0  0.87557  0.36691  0.42180  1.0000
  C   C344      1.0  0.88061  0.37917  0.49159  1.0000
  C   C345      1.0  0.88424  0.39887  0.47476  1.0000
  H   H167      1.0  0.88193  0.37379  0.55478  1.0000
  H   H168      1.0  0.88815  0.40738  0.52604  1.0000
  H   H169      1.0  0.87388  0.34088  0.49743  1.0000
  C   C346      1.0  0.86543  0.31511  0.37548  1.0000
  H   H170      1.0  0.87354  0.30739  0.40629  1.0000
  C   C347      1.0  0.53995  0.99308  0.35440  1.0000
  C   C348      1.0  0.52960  0.98717  0.42158  1.0000
  N   N137      1.0  0.51433  0.99012  0.41130  1.0000
  C   C349      1.0  0.50809  0.99854  0.33768  1.0000
  C   C350      1.0  0.46715  0.99815  0.39498  1.0000
  H   H171      1.0  0.53339  0.98068  0.47894  1.0000
  N   N138      1.0  0.48256  0.99565  0.39768  1.0000
  H   H172      1.0  0.46077  0.99376  0.44856  1.0000
  C   C351      1.0  0.55548  0.98956  0.36350  1.0000
  H   H173      1.0  0.55885  0.97701  0.39087  1.0000
  C   C352      1.0  0.03997  0.49314  0.35490  1.0000
  C   C353      1.0  0.02961  0.48723  0.42204  1.0000
  N   N139      1.0  0.01434  0.49015  0.41162  1.0000
  C   C354      1.0  0.00811  0.49855  0.33790  1.0000
  C   C355      1.0  0.96717  0.49811  0.39491  1.0000
  H   H174      1.0  0.03339  0.48076  0.47945  1.0000
  N   N140      1.0  0.98258  0.49565  0.39772  1.0000
  H   H175      1.0  0.96078  0.49374  0.44847  1.0000
  C   C356      1.0  0.05549  0.48963  0.36408  1.0000
  H   H176      1.0  0.05886  0.47705  0.39116  1.0000
  C   C357      1.0  0.23137  0.24844  0.40950  1.0000
  C   C358      1.0  0.21582  0.25350  0.39712  1.0000
  H   H177      1.0  0.20809  0.25077  0.44705  1.0000
  C   C359      1.0  0.25762  0.24800  0.35066  1.0000
  C   C360      1.0  0.28877  0.23781  0.36716  1.0000
  C   C361      1.0  0.27837  0.23353  0.43682  1.0000
  C   C362      1.0  0.26274  0.23863  0.42979  1.0000
  C   C363      1.0  0.25214  0.23443  0.49828  1.0000
  C   C364      1.0  0.23658  0.23934  0.48831  1.0000
  H   H178      1.0  0.25564  0.22769  0.55570  1.0000
  H   H179      1.0  0.22910  0.23609  0.53873  1.0000
  H   H180      1.0  0.28217  0.22642  0.49280  1.0000
  C   C365      1.0  0.30374  0.23127  0.37176  1.0000
  H   H181      1.0  0.30562  0.21812  0.39818  1.0000
  C   C366      1.0  0.76830  0.75107  0.40971  1.0000
  C   C367      1.0  0.78385  0.74601  0.39744  1.0000
  H   H182      1.0  0.79157  0.74875  0.44740  1.0000
  C   C368      1.0  0.74205  0.75149  0.35074  1.0000
  C   C369      1.0  0.71089  0.76163  0.36711  1.0000
  C   C370      1.0  0.72128  0.76594  0.43679  1.0000
  C   C371      1.0  0.73692  0.76086  0.42983  1.0000
  C   C372      1.0  0.74751  0.76508  0.49836  1.0000
  C   C373      1.0  0.76307  0.76019  0.48846  1.0000
  H   H183      1.0  0.74399  0.77183  0.55574  1.0000
  H   H184      1.0  0.77055  0.76344  0.53892  1.0000
  H   H185      1.0  0.71747  0.77304  0.49276  1.0000
  C   C374      1.0  0.69591  0.76816  0.37171  1.0000
  H   H186      1.0  0.69402  0.78125  0.39871  1.0000
  C   C375      1.0  0.78839  0.26347  0.35613  1.0000
  C   C376      1.0  0.77720  0.26732  0.42194  1.0000
  N   N141      1.0  0.76241  0.26197  0.40878  1.0000
  C   C377      1.0  0.75741  0.25293  0.33349  1.0000
  C   C378      1.0  0.71646  0.24664  0.38334  1.0000
  H   H187      1.0  0.78000  0.27425  0.48012  1.0000
  N   N142      1.0  0.73150  0.25153  0.38897  1.0000
  H   H188      1.0  0.70950  0.24960  0.43651  1.0000
  C   C379      1.0  0.80323  0.27011  0.36709  1.0000
  H   H189      1.0  0.80475  0.28339  0.39282  1.0000
  C   C380      1.0  0.21078  0.73568  0.35345  1.0000
  C   C381      1.0  0.22187  0.73170  0.41965  1.0000
  N   N143      1.0  0.23668  0.73706  0.40741  1.0000
  C   C382      1.0  0.24179  0.74622  0.33271  1.0000
  C   C383      1.0  0.28267  0.75239  0.38482  1.0000
  H   H190      1.0  0.21898  0.72468  0.47744  1.0000
  N   N144      1.0  0.26763  0.74750  0.38952  1.0000
  H   H191      1.0  0.28955  0.74934  0.43824  1.0000
  C   C384      1.0  0.19590  0.72907  0.36346  1.0000
  H   H192      1.0  0.19432  0.71575  0.38875  1.0000
