data_image0
_chemical_formula_structural       C7H2NH2NO2C7H2NH2NO2C7H2NH2NO2C7H2NH2NO2C7H2NH2NO2C7H2NH2NO2C2HC3HNH2NO2C2HC3HNH2NO2C2HC3HNH2NO2C2HC3HNH2NO2C2HC3HNH2NO2C2HC3HNH2NO2C2HC3HNH2NO2C2HC3HNH2NO2C2HC3HNH2NO2C2HC3HNH2NO2C2HC3HNH2NO2C2HC3HNH2NO2C6H3C6H3C6H3C6H3C6H3C6H3C6H3C6H3C6H3C6H3C6H3C6H3C2HC3HNH2NO2C2HC3HNH2NO2C2HC3HNH2NO2C2HC3HNH2NO2C2HC3HNH2NO2C2HC3HNH2NO2C7H2NH2NO2C7H2NH2NO2C7H2NH2NO2C7H2NH2NO2C7H2NH2NO2C7H2NH2NO2C7H2NH2NO2C7H2NH2NO2C7H2NH2NO2C7H2NH2NO2C7H2NH2NO2C7H2NH2NO2
_chemical_formula_sum              "C288 H180 N72 O72"
_cell_length_a       56.9649
_cell_length_b       56.965
_cell_length_c       14.8593
_cell_angle_alpha    90
_cell_angle_beta     90
_cell_angle_gamma    120

_space_group_name_H-M_alt    "P 1"
_space_group_IT_number       1

loop_
  _space_group_symop_operation_xyz
  'x, y, z'

loop_
  _atom_site_type_symbol
  _atom_site_label
  _atom_site_symmetry_multiplicity
  _atom_site_fract_x
  _atom_site_fract_y
  _atom_site_fract_z
  _atom_site_occupancy
  C   C1        1.0  0.23811  0.46758  0.33929  1.0000
  C   C2        1.0  0.24232  0.45229  0.27206  1.0000
  C   C3        1.0  0.22728  0.42354  0.27445  1.0000
  C   C4        1.0  0.20751  0.40912  0.34113  1.0000
  C   C5        1.0  0.19311  0.37996  0.33845  1.0000
  C   C6        1.0  0.17359  0.36460  0.27103  1.0000
  C   C7        1.0  0.16029  0.33585  0.27429  1.0000
  H   H1        1.0  0.14637  0.32493  0.22541  1.0000
  H   H2        1.0  0.23068  0.41297  0.22529  1.0000
  N   N1        1.0  0.16675  0.37643  0.20427  1.0000
  H   H3        1.0  0.17451  0.39594  0.20048  1.0000
  H   H4        1.0  0.15316  0.36561  0.15929  1.0000
  N   N2        1.0  0.26073  0.46588  0.20086  1.0000
  O   O1        1.0  0.27931  0.46008  0.19848  1.0000
  O   O2        1.0  0.24897  0.46032  0.12585  1.0000
  C   C8        1.0  0.53846  0.76711  0.33927  1.0000
  C   C9        1.0  0.55375  0.78660  0.27202  1.0000
  C   C10       1.0  0.58250  0.80032  0.27443  1.0000
  C   C11       1.0  0.59693  0.79498  0.34113  1.0000
  C   C12       1.0  0.62608  0.80972  0.33845  1.0000
  C   C13       1.0  0.64145  0.80558  0.27104  1.0000
  C   C14       1.0  0.67020  0.82103  0.27430  1.0000
  H   H5        1.0  0.68112  0.81802  0.22542  1.0000
  H   H6        1.0  0.59308  0.81428  0.22526  1.0000
  N   N3        1.0  0.62962  0.78689  0.20428  1.0000
  H   H7        1.0  0.61011  0.77515  0.20049  1.0000
  H   H8        1.0  0.64044  0.78413  0.15931  1.0000
  N   N4        1.0  0.54017  0.79143  0.20080  1.0000
  O   O3        1.0  0.54598  0.81581  0.19839  1.0000
  O   O4        1.0  0.54573  0.78521  0.12582  1.0000
  C   C15       1.0  0.23894  0.76794  0.33930  1.0000
  C   C16       1.0  0.21944  0.76373  0.27206  1.0000
  C   C17       1.0  0.20572  0.77876  0.27447  1.0000
  C   C18       1.0  0.21107  0.79853  0.34115  1.0000
  C   C19       1.0  0.19632  0.81294  0.33847  1.0000
  C   C20       1.0  0.20046  0.83245  0.27105  1.0000
  C   C21       1.0  0.18502  0.84575  0.27431  1.0000
  H   H9        1.0  0.18802  0.85968  0.22543  1.0000
  H   H10       1.0  0.19176  0.77537  0.22531  1.0000
  N   N5        1.0  0.21915  0.83930  0.20428  1.0000
  H   H11       1.0  0.23089  0.83154  0.20050  1.0000
  H   H12       1.0  0.22191  0.85288  0.15931  1.0000
  N   N6        1.0  0.21462  0.74532  0.20086  1.0000
  O   O5        1.0  0.19024  0.72674  0.19848  1.0000
  O   O6        1.0  0.22082  0.75708  0.12586  1.0000
  C   C22       1.0  0.77223  0.53416  0.33927  1.0000
  C   C23       1.0  0.76803  0.54946  0.27202  1.0000
  C   C24       1.0  0.78306  0.57820  0.27443  1.0000
  C   C25       1.0  0.80282  0.59263  0.34113  1.0000
  C   C26       1.0  0.81724  0.62178  0.33845  1.0000
  C   C27       1.0  0.83675  0.63715  0.27104  1.0000
  C   C28       1.0  0.85005  0.66590  0.27429  1.0000
  H   H13       1.0  0.86398  0.67682  0.22542  1.0000
  H   H14       1.0  0.77968  0.58878  0.22526  1.0000
  N   N7        1.0  0.84360  0.62532  0.20428  1.0000
  H   H15       1.0  0.83584  0.60581  0.20049  1.0000
  H   H16       1.0  0.85718  0.63614  0.15931  1.0000
  N   N8        1.0  0.74962  0.53587  0.20080  1.0000
  O   O7        1.0  0.73104  0.54168  0.19839  1.0000
  O   O8        1.0  0.76139  0.54143  0.12582  1.0000
  C   C29       1.0  0.47188  0.23463  0.33927  1.0000
  C   C30       1.0  0.45659  0.21513  0.27204  1.0000
  C   C31       1.0  0.42784  0.20142  0.27444  1.0000
  C   C32       1.0  0.41342  0.20677  0.34113  1.0000
  C   C33       1.0  0.38427  0.19203  0.33845  1.0000
  C   C34       1.0  0.36889  0.19617  0.27103  1.0000
  C   C35       1.0  0.34014  0.18072  0.27429  1.0000
  H   H17       1.0  0.32922  0.18373  0.22541  1.0000
  H   H18       1.0  0.41727  0.18746  0.22528  1.0000
  N   N9        1.0  0.38073  0.21485  0.20426  1.0000
  H   H19       1.0  0.40024  0.22660  0.20047  1.0000
  H   H20       1.0  0.36991  0.21761  0.15929  1.0000
  N   N10       1.0  0.47017  0.21031  0.20083  1.0000
  O   O9        1.0  0.46437  0.18593  0.19846  1.0000
  O   O10       1.0  0.46461  0.21651  0.12583  1.0000
  C   C36       1.0  0.77141  0.23383  0.33924  1.0000
  C   C37       1.0  0.79089  0.23801  0.27196  1.0000
  C   C38       1.0  0.80460  0.22298  0.27437  1.0000
  C   C39       1.0  0.79926  0.20322  0.34109  1.0000
  C   C40       1.0  0.81400  0.18881  0.33843  1.0000
  C   C41       1.0  0.80986  0.16929  0.27102  1.0000
  C   C42       1.0  0.82531  0.15599  0.27427  1.0000
  H   H21       1.0  0.82230  0.14206  0.22540  1.0000
  H   H22       1.0  0.81855  0.22635  0.22518  1.0000
  N   N11       1.0  0.79117  0.16244  0.20426  1.0000
  H   H23       1.0  0.77942  0.17019  0.20048  1.0000
  H   H24       1.0  0.78841  0.14885  0.15929  1.0000
  N   N12       1.0  0.79571  0.25641  0.20072  1.0000
  O   O11       1.0  0.82009  0.27498  0.19828  1.0000
  O   O12       1.0  0.78949  0.24463  0.12575  1.0000
  C   C43       1.0  0.20170  0.16785  0.28237  1.0000
  C   C44       1.0  0.21724  0.15464  0.28437  1.0000
  H   H25       1.0  0.21297  0.13963  0.23833  1.0000
  C   C45       1.0  0.16535  0.23417  0.34427  1.0000
  C   C46       1.0  0.18399  0.23744  0.27517  1.0000
  C   C47       1.0  0.19761  0.22233  0.27811  1.0000
  H   H26       1.0  0.21088  0.22492  0.22737  1.0000
  N   N13       1.0  0.18125  0.15943  0.22121  1.0000
  H   H27       1.0  0.17723  0.14472  0.17942  1.0000
  H   H28       1.0  0.16947  0.16718  0.21869  1.0000
  N   N14       1.0  0.18799  0.25505  0.20218  1.0000
  O   O13       1.0  0.18094  0.24243  0.12877  1.0000
  O   O14       1.0  0.21232  0.27355  0.19626  1.0000
  C   C48       1.0  0.83819  0.03043  0.28237  1.0000
  C   C49       1.0  0.85141  0.05918  0.28437  1.0000
  H   H29       1.0  0.86642  0.06992  0.23833  1.0000
  C   C50       1.0  0.77188  0.92776  0.34427  1.0000
  C   C51       1.0  0.76860  0.94313  0.27517  1.0000
  C   C52       1.0  0.78371  0.97186  0.27810  1.0000
  H   H30       1.0  0.78113  0.98254  0.22737  1.0000
  N   N15       1.0  0.84662  0.01840  0.22123  1.0000
  H   H31       1.0  0.86133  0.02909  0.17944  1.0000
  H   H32       1.0  0.83887  0.99887  0.21870  1.0000
  N   N16       1.0  0.75099  0.92951  0.20218  1.0000
  O   O15       1.0  0.76362  0.93510  0.12877  1.0000
  O   O16       1.0  0.73249  0.93535  0.19627  1.0000
  C   C53       1.0  0.97562  0.80434  0.28238  1.0000
  C   C54       1.0  0.94687  0.78881  0.28438  1.0000
  H   H33       1.0  0.93613  0.79308  0.23834  1.0000
  C   C55       1.0  0.07828  0.84069  0.34429  1.0000
  C   C56       1.0  0.06292  0.82205  0.27519  1.0000
  C   C57       1.0  0.03419  0.80843  0.27812  1.0000
  H   H34       1.0  0.02350  0.79516  0.22739  1.0000
  N   N17       1.0  0.98764  0.82479  0.22123  1.0000
  H   H35       1.0  0.97695  0.82881  0.17944  1.0000
  H   H36       1.0  0.00717  0.83657  0.21870  1.0000
  N   N18       1.0  0.07653  0.81806  0.20220  1.0000
  O   O17       1.0  0.07095  0.82510  0.12879  1.0000
  O   O18       1.0  0.07069  0.79372  0.19628  1.0000
  C   C58       1.0  0.80864  0.83390  0.28238  1.0000
  C   C59       1.0  0.79311  0.84711  0.28437  1.0000
  H   H37       1.0  0.79738  0.86212  0.23834  1.0000
  C   C60       1.0  0.84499  0.76758  0.34428  1.0000
  C   C61       1.0  0.82635  0.76431  0.27518  1.0000
  C   C62       1.0  0.81273  0.77942  0.27811  1.0000
  H   H38       1.0  0.79946  0.77683  0.22738  1.0000
  N   N19       1.0  0.82910  0.84232  0.22123  1.0000
  H   H39       1.0  0.83311  0.85703  0.17944  1.0000
  H   H40       1.0  0.84088  0.83458  0.21871  1.0000
  N   N20       1.0  0.82235  0.74670  0.20218  1.0000
  O   O19       1.0  0.82939  0.75932  0.12878  1.0000
  O   O20       1.0  0.79802  0.72820  0.19627  1.0000
  C   C63       1.0  0.17215  0.97132  0.28238  1.0000
  C   C64       1.0  0.15893  0.94257  0.28438  1.0000
  H   H41       1.0  0.14392  0.93183  0.23834  1.0000
  C   C65       1.0  0.23847  0.07399  0.34428  1.0000
  C   C66       1.0  0.24174  0.05862  0.27519  1.0000
  C   C67       1.0  0.22663  0.02989  0.27811  1.0000
  H   H42       1.0  0.22921  0.01921  0.22738  1.0000
  N   N21       1.0  0.16372  0.98335  0.22122  1.0000
  H   H43       1.0  0.14902  0.97266  0.17943  1.0000
  H   H44       1.0  0.17147  0.00288  0.21869  1.0000
  N   N22       1.0  0.25935  0.07223  0.20218  1.0000
  O   O21       1.0  0.24672  0.06665  0.12878  1.0000
  O   O22       1.0  0.27785  0.06640  0.19627  1.0000
  C   C68       1.0  0.03472  0.19740  0.28237  1.0000
  C   C69       1.0  0.06347  0.21294  0.28436  1.0000
  H   H45       1.0  0.07421  0.20867  0.23833  1.0000
  C   C70       1.0  0.93205  0.16106  0.34427  1.0000
  C   C71       1.0  0.94742  0.17969  0.27517  1.0000
  C   C72       1.0  0.97615  0.19332  0.27809  1.0000
  H   H46       1.0  0.98684  0.20659  0.22736  1.0000
  N   N23       1.0  0.02269  0.17695  0.22122  1.0000
  H   H47       1.0  0.03338  0.17293  0.17944  1.0000
  H   H48       1.0  0.00316  0.16517  0.21870  1.0000
  N   N24       1.0  0.93381  0.18370  0.20216  1.0000
  O   O23       1.0  0.93939  0.17665  0.12877  1.0000
  O   O24       1.0  0.93964  0.20803  0.19625  1.0000
  C   C73       1.0  0.25021  0.64521  0.26560  1.0000
  C   C74       1.0  0.25341  0.67144  0.25981  1.0000
  H   H49       1.0  0.26661  0.68463  0.21283  1.0000
  C   C75       1.0  0.23927  0.55597  0.36226  1.0000
  C   C76       1.0  0.22500  0.55892  0.28908  1.0000
  C   C77       1.0  0.22069  0.58136  0.28707  1.0000
  H   H50       1.0  0.21164  0.58400  0.23140  1.0000
  N   N25       1.0  0.26509  0.63907  0.20835  1.0000
  H   H51       1.0  0.27706  0.65202  0.16357  1.0000
  H   H52       1.0  0.26533  0.62221  0.21237  1.0000
  N   N26       1.0  0.21732  0.54070  0.21566  1.0000
  O   O25       1.0  0.22911  0.55261  0.14428  1.0000
  O   O26       1.0  0.19216  0.52884  0.20297  1.0000
  C   C78       1.0  0.36083  0.60157  0.26567  1.0000
  C   C79       1.0  0.33459  0.57854  0.25992  1.0000
  H   H53       1.0  0.32142  0.57855  0.21286  1.0000
  C   C80       1.0  0.45006  0.67992  0.36228  1.0000
  C   C81       1.0  0.44711  0.66267  0.28916  1.0000
  C   C82       1.0  0.42466  0.63592  0.28712  1.0000
  H   H54       1.0  0.42207  0.62422  0.23152  1.0000
  N   N27       1.0  0.36696  0.62259  0.20845  1.0000
  H   H55       1.0  0.35401  0.62162  0.16370  1.0000
  H   H56       1.0  0.38382  0.63968  0.21246  1.0000
  N   N28       1.0  0.46536  0.67319  0.21580  1.0000
  O   O27       1.0  0.45348  0.67306  0.14435  1.0000
  O   O28       1.0  0.47721  0.65988  0.20326  1.0000
  C   C83       1.0  0.40449  0.75589  0.26553  1.0000
  C   C84       1.0  0.42753  0.75269  0.25974  1.0000
  H   H57       1.0  0.42752  0.73949  0.21275  1.0000
  C   C85       1.0  0.32617  0.76679  0.36222  1.0000
  C   C86       1.0  0.34339  0.78108  0.28906  1.0000
  C   C87       1.0  0.37015  0.78539  0.28705  1.0000
  H   H58       1.0  0.38184  0.79445  0.23140  1.0000
  N   N29       1.0  0.38348  0.74101  0.20826  1.0000
  H   H59       1.0  0.38446  0.72905  0.16347  1.0000
  H   H60       1.0  0.36638  0.74077  0.21228  1.0000
  N   N30       1.0  0.33285  0.78876  0.21566  1.0000
  O   O29       1.0  0.33298  0.77698  0.14427  1.0000
  O   O30       1.0  0.34614  0.81392  0.20301  1.0000
  C   C88       1.0  0.76021  0.35659  0.26562  1.0000
  C   C89       1.0  0.75703  0.33036  0.25986  1.0000
  H   H61       1.0  0.74385  0.31719  0.21277  1.0000
  C   C90       1.0  0.77104  0.44576  0.36228  1.0000
  C   C91       1.0  0.78534  0.44286  0.28912  1.0000
  C   C92       1.0  0.78965  0.42041  0.28709  1.0000
  H   H62       1.0  0.79876  0.41782  0.23149  1.0000
  N   N31       1.0  0.74532  0.36271  0.20839  1.0000
  H   H63       1.0  0.73335  0.34976  0.16362  1.0000
  H   H64       1.0  0.74506  0.37956  0.21242  1.0000
  N   N32       1.0  0.79306  0.46111  0.21578  1.0000
  O   O31       1.0  0.78131  0.44922  0.14431  1.0000
  O   O32       1.0  0.81823  0.47298  0.20325  1.0000
  C   C93       1.0  0.64948  0.40018  0.26552  1.0000
  C   C94       1.0  0.67572  0.42323  0.25972  1.0000
  H   H65       1.0  0.68891  0.42322  0.21273  1.0000
  C   C95       1.0  0.56027  0.32185  0.36222  1.0000
  C   C96       1.0  0.56320  0.33907  0.28908  1.0000
  C   C97       1.0  0.58564  0.36583  0.28706  1.0000
  H   H66       1.0  0.58827  0.37752  0.23142  1.0000
  N   N33       1.0  0.64335  0.37918  0.20823  1.0000
  H   H67       1.0  0.65630  0.38016  0.16343  1.0000
  H   H68       1.0  0.62650  0.36207  0.21224  1.0000
  N   N34       1.0  0.54497  0.32853  0.21568  1.0000
  O   O33       1.0  0.55688  0.32866  0.14427  1.0000
  O   O34       1.0  0.53310  0.34182  0.20306  1.0000
  C   C98       1.0  0.60589  0.24592  0.26572  1.0000
  C   C99       1.0  0.58284  0.24910  0.25994  1.0000
  H   H69       1.0  0.58285  0.26227  0.21284  1.0000
  C   C100      1.0  0.68424  0.23512  0.36244  1.0000
  C   C101      1.0  0.66704  0.22079  0.28928  1.0000
  C   C102      1.0  0.64028  0.21648  0.28724  1.0000
  H   H70       1.0  0.62858  0.20737  0.23165  1.0000
  N   N35       1.0  0.62690  0.26081  0.20851  1.0000
  H   H71       1.0  0.62593  0.27278  0.16374  1.0000
  H   H72       1.0  0.64401  0.26107  0.21256  1.0000
  N   N36       1.0  0.67756  0.21306  0.21594  1.0000
  O   O35       1.0  0.67742  0.22480  0.14446  1.0000
  O   O36       1.0  0.66426  0.18789  0.20346  1.0000
  C   C103      1.0  0.10721  0.24885  0.34567  1.0000
  C   C104      1.0  0.12208  0.23495  0.34668  1.0000
  C   C105      1.0  0.15081  0.24881  0.34452  1.0000
  C   C106      1.0  0.16475  0.27753  0.34307  1.0000
  C   C107      1.0  0.15090  0.29240  0.34256  1.0000
  C   C108      1.0  0.12216  0.27759  0.34241  1.0000
  H   H73       1.0  0.18550  0.28786  0.34224  1.0000
  H   H74       1.0  0.11187  0.28803  0.34048  1.0000
  H   H75       1.0  0.11174  0.21420  0.34863  1.0000
  C   C109      1.0  0.75720  0.85495  0.34569  1.0000
  C   C110      1.0  0.77109  0.88371  0.34669  1.0000
  C   C111      1.0  0.75723  0.89858  0.34453  1.0000
  C   C112      1.0  0.72851  0.88380  0.34308  1.0000
  C   C113      1.0  0.71364  0.85508  0.34257  1.0000
  C   C114      1.0  0.72846  0.84116  0.34242  1.0000
  H   H76       1.0  0.71818  0.89422  0.34225  1.0000
  H   H77       1.0  0.71801  0.82041  0.34049  1.0000
  H   H78       1.0  0.79185  0.89412  0.34864  1.0000
  C   C115      1.0  0.15109  0.89883  0.34569  1.0000
  C   C116      1.0  0.12233  0.88396  0.34671  1.0000
  C   C117      1.0  0.10746  0.85523  0.34454  1.0000
  C   C118      1.0  0.12224  0.84129  0.34309  1.0000
  C   C119      1.0  0.15097  0.85515  0.34258  1.0000
  C   C120      1.0  0.16489  0.88389  0.34243  1.0000
  H   H79       1.0  0.11183  0.82054  0.34226  1.0000
  H   H80       1.0  0.18563  0.89418  0.34049  1.0000
  H   H81       1.0  0.11192  0.89430  0.34864  1.0000
  C   C121      1.0  0.90312  0.75290  0.34568  1.0000
  C   C122      1.0  0.88825  0.76679  0.34670  1.0000
  C   C123      1.0  0.85953  0.75294  0.34453  1.0000
  C   C124      1.0  0.84559  0.72422  0.34308  1.0000
  C   C125      1.0  0.85944  0.70934  0.34257  1.0000
  C   C126      1.0  0.88818  0.72416  0.34243  1.0000
  H   H82       1.0  0.82483  0.71388  0.34224  1.0000
  H   H83       1.0  0.89847  0.71371  0.34049  1.0000
  H   H84       1.0  0.89860  0.78755  0.34864  1.0000
  C   C127      1.0  0.25314  0.14680  0.34567  1.0000
  C   C128      1.0  0.23925  0.11804  0.34670  1.0000
  C   C129      1.0  0.25311  0.10317  0.34453  1.0000
  C   C130      1.0  0.28183  0.11795  0.34308  1.0000
  C   C131      1.0  0.29670  0.14667  0.34256  1.0000
  C   C132      1.0  0.28188  0.16060  0.34242  1.0000
  H   H85       1.0  0.29216  0.10753  0.34225  1.0000
  H   H86       1.0  0.29233  0.18134  0.34048  1.0000
  H   H87       1.0  0.21850  0.10763  0.34864  1.0000
  C   C133      1.0  0.85924  0.10292  0.34567  1.0000
  C   C134      1.0  0.88800  0.11779  0.34669  1.0000
  C   C135      1.0  0.90287  0.14652  0.34452  1.0000
  C   C136      1.0  0.88809  0.16046  0.34306  1.0000
  C   C137      1.0  0.85937  0.14661  0.34255  1.0000
  C   C138      1.0  0.84545  0.11787  0.34241  1.0000
  H   H88       1.0  0.89851  0.18121  0.34222  1.0000
  H   H89       1.0  0.82470  0.10757  0.34047  1.0000
  H   H90       1.0  0.89841  0.10745  0.34864  1.0000
  C   C139      1.0  0.29568  0.54079  0.33345  1.0000
  C   C140      1.0  0.28063  0.55411  0.34505  1.0000
  C   C141      1.0  0.25219  0.54002  0.35403  1.0000
  C   C142      1.0  0.23839  0.51139  0.34986  1.0000
  C   C143      1.0  0.25258  0.49685  0.34063  1.0000
  C   C144      1.0  0.28135  0.51209  0.33384  1.0000
  H   H91       1.0  0.21767  0.50104  0.35408  1.0000
  H   H92       1.0  0.29214  0.50221  0.32844  1.0000
  H   H93       1.0  0.29077  0.57491  0.34670  1.0000
  C   C145      1.0  0.46527  0.75149  0.33339  1.0000
  C   C146      1.0  0.45193  0.72313  0.34499  1.0000
  C   C147      1.0  0.46601  0.70876  0.35401  1.0000
  C   C148      1.0  0.49465  0.72359  0.34986  1.0000
  C   C149      1.0  0.50919  0.75232  0.34060  1.0000
  C   C150      1.0  0.49397  0.76586  0.33378  1.0000
  H   H94       1.0  0.50499  0.71322  0.35411  1.0000
  H   H95       1.0  0.50384  0.78653  0.32838  1.0000
  H   H96       1.0  0.43113  0.71247  0.34660  1.0000
  C   C151      1.0  0.25459  0.71038  0.33342  1.0000
  C   C152      1.0  0.28296  0.72543  0.34497  1.0000
  C   C153      1.0  0.29731  0.75387  0.35400  1.0000
  C   C154      1.0  0.28247  0.76767  0.34986  1.0000
  C   C155      1.0  0.25374  0.75347  0.34063  1.0000
  C   C156      1.0  0.24021  0.72470  0.33384  1.0000
  H   H97       1.0  0.29284  0.78838  0.35409  1.0000
  H   H98       1.0  0.21955  0.71390  0.32843  1.0000
  H   H99       1.0  0.29363  0.71529  0.34659  1.0000
  C   C157      1.0  0.71465  0.46096  0.33339  1.0000
  C   C158      1.0  0.72969  0.44763  0.34497  1.0000
  C   C159      1.0  0.75813  0.46172  0.35403  1.0000
  C   C160      1.0  0.77194  0.49036  0.34985  1.0000
  C   C161      1.0  0.75775  0.50490  0.34060  1.0000
  C   C162      1.0  0.72898  0.48966  0.33380  1.0000
  H   H100      1.0  0.79265  0.50070  0.35413  1.0000
  H   H101      1.0  0.71819  0.49954  0.32838  1.0000
  H   H102      1.0  0.71954  0.42683  0.34658  1.0000
  C   C163      1.0  0.54509  0.25026  0.33336  1.0000
  C   C164      1.0  0.55841  0.27863  0.34500  1.0000
  C   C165      1.0  0.54433  0.29299  0.35400  1.0000
  C   C166      1.0  0.51569  0.27816  0.34981  1.0000
  C   C167      1.0  0.50115  0.24943  0.34059  1.0000
  C   C168      1.0  0.51638  0.23589  0.33381  1.0000
  H   H103      1.0  0.50535  0.28853  0.35406  1.0000
  H   H104      1.0  0.50651  0.21523  0.32841  1.0000
  H   H105      1.0  0.57921  0.28929  0.34665  1.0000
  C   C169      1.0  0.75584  0.29144  0.33337  1.0000
  C   C170      1.0  0.72748  0.27643  0.34509  1.0000
  C   C171      1.0  0.71310  0.24798  0.35409  1.0000
  C   C172      1.0  0.72791  0.23416  0.34988  1.0000
  C   C173      1.0  0.75663  0.24832  0.34058  1.0000
  C   C174      1.0  0.77019  0.27709  0.33376  1.0000
  H   H106      1.0  0.71752  0.21344  0.35416  1.0000
  H   H107      1.0  0.79086  0.28786  0.32832  1.0000
  H   H108      1.0  0.71684  0.28659  0.34678  1.0000
  C   C175      1.0  0.20297  0.42423  0.40842  1.0000
  C   C176      1.0  0.21842  0.45298  0.40635  1.0000
  H   H109      1.0  0.21521  0.46362  0.45569  1.0000
  C   C177      1.0  0.16550  0.32160  0.34221  1.0000
  C   C178      1.0  0.18492  0.33708  0.40927  1.0000
  C   C179      1.0  0.19847  0.36581  0.40609  1.0000
  H   H110      1.0  0.21233  0.37655  0.45534  1.0000
  N   N37       1.0  0.18391  0.41216  0.47397  1.0000
  H   H111      1.0  0.18082  0.42281  0.51872  1.0000
  H   H112      1.0  0.17207  0.39264  0.47665  1.0000
  N   N38       1.0  0.18977  0.32362  0.48084  1.0000
  O   O37       1.0  0.18350  0.32928  0.55556  1.0000
  O   O38       1.0  0.21417  0.32952  0.48347  1.0000
  C   C180      1.0  0.58181  0.77533  0.40842  1.0000
  C   C181      1.0  0.55306  0.76204  0.40635  1.0000
  H   H113      1.0  0.54242  0.74818  0.45569  1.0000
  C   C182      1.0  0.68444  0.84047  0.34223  1.0000
  C   C183      1.0  0.66896  0.84442  0.40928  1.0000
  C   C184      1.0  0.64024  0.82925  0.40610  1.0000
  H   H114      1.0  0.62949  0.83237  0.45534  1.0000
  N   N39       1.0  0.59388  0.76833  0.47398  1.0000
  H   H115      1.0  0.58322  0.75459  0.51874  1.0000
  H   H116      1.0  0.61340  0.77601  0.47667  1.0000
  N   N40       1.0  0.68242  0.86273  0.48084  1.0000
  O   O39       1.0  0.67676  0.85081  0.55557  1.0000
  O   O40       1.0  0.67652  0.88123  0.48344  1.0000
  C   C185      1.0  0.23072  0.80307  0.40844  1.0000
  C   C186      1.0  0.24402  0.78762  0.40636  1.0000
  H   H117      1.0  0.25788  0.79083  0.45571  1.0000
  C   C187      1.0  0.16557  0.84055  0.34224  1.0000
  C   C188      1.0  0.16162  0.82112  0.40929  1.0000
  C   C189      1.0  0.17680  0.80757  0.40611  1.0000
  H   H118      1.0  0.17368  0.79371  0.45536  1.0000
  N   N41       1.0  0.23771  0.82214  0.47399  1.0000
  H   H119      1.0  0.25146  0.82522  0.51874  1.0000
  H   H120      1.0  0.23004  0.83398  0.47668  1.0000
  N   N42       1.0  0.14332  0.81628  0.48086  1.0000
  O   O41       1.0  0.15524  0.82254  0.55558  1.0000
  O   O42       1.0  0.12481  0.79187  0.48348  1.0000
  C   C190      1.0  0.80736  0.57751  0.40842  1.0000
  C   C191      1.0  0.79190  0.54877  0.40635  1.0000
  H   H121      1.0  0.79511  0.53812  0.45569  1.0000
  C   C192      1.0  0.84484  0.68014  0.34222  1.0000
  C   C193      1.0  0.82542  0.66467  0.40927  1.0000
  C   C194      1.0  0.81187  0.63594  0.40609  1.0000
  H   H122      1.0  0.79800  0.62520  0.45533  1.0000
  N   N43       1.0  0.82642  0.58959  0.47398  1.0000
  H   H123      1.0  0.82950  0.57893  0.51874  1.0000
  H   H124      1.0  0.83826  0.60910  0.47667  1.0000
  N   N44       1.0  0.82057  0.67813  0.48083  1.0000
  O   O43       1.0  0.82683  0.67247  0.55556  1.0000
  O   O44       1.0  0.79616  0.67222  0.48344  1.0000
  C   C195      1.0  0.42853  0.22642  0.40841  1.0000
  C   C196      1.0  0.45728  0.23971  0.40633  1.0000
  H   H125      1.0  0.46793  0.25358  0.45567  1.0000
  C   C197      1.0  0.32590  0.16127  0.34222  1.0000
  C   C198      1.0  0.34138  0.15733  0.40927  1.0000
  C   C199      1.0  0.37010  0.17250  0.40609  1.0000
  H   H126      1.0  0.38085  0.16939  0.45534  1.0000
  N   N45       1.0  0.41646  0.23342  0.47396  1.0000
  H   H127      1.0  0.42712  0.24716  0.51870  1.0000
  H   H128      1.0  0.39695  0.22574  0.47665  1.0000
  N   N46       1.0  0.32792  0.13902  0.48084  1.0000
  O   O45       1.0  0.33358  0.15095  0.55557  1.0000
  O   O46       1.0  0.33382  0.12052  0.48347  1.0000
  C   C200      1.0  0.77962  0.19869  0.40840  1.0000
  C   C201      1.0  0.76633  0.21415  0.40632  1.0000
  H   H129      1.0  0.75248  0.21095  0.45568  1.0000
  C   C202      1.0  0.84476  0.16121  0.34219  1.0000
  C   C203      1.0  0.84871  0.18063  0.40924  1.0000
  C   C204      1.0  0.83353  0.19418  0.40606  1.0000
  H   H130      1.0  0.83665  0.20804  0.45529  1.0000
  N   N47       1.0  0.77262  0.17963  0.47398  1.0000
  H   H131      1.0  0.75889  0.17656  0.51874  1.0000
  H   H132      1.0  0.78029  0.16779  0.47666  1.0000
  N   N48       1.0  0.86702  0.18548  0.48080  1.0000
  O   O47       1.0  0.85510  0.17922  0.55554  1.0000
  O   O48       1.0  0.88552  0.20989  0.48340  1.0000
  C   C205      1.0  0.23848  0.16140  0.34685  1.0000
  C   C206      1.0  0.24414  0.18243  0.40961  1.0000
  C   C207      1.0  0.22891  0.19595  0.40747  1.0000
  C   C208      1.0  0.20767  0.18902  0.34517  1.0000
  C   C209      1.0  0.19318  0.20366  0.34785  1.0000
  C   C210      1.0  0.17449  0.20024  0.41741  1.0000
  C   C211      1.0  0.16101  0.21551  0.41411  1.0000
  H   H133      1.0  0.14768  0.21304  0.46452  1.0000
  H   H134      1.0  0.23332  0.21101  0.45345  1.0000
  N   N49       1.0  0.16867  0.18244  0.48646  1.0000
  H   H135      1.0  0.17672  0.17096  0.49073  1.0000
  H   H136      1.0  0.15567  0.18018  0.53304  1.0000
  N   N50       1.0  0.26428  0.18904  0.47625  1.0000
  O   O49       1.0  0.28273  0.21342  0.47086  1.0000
  O   O50       1.0  0.25440  0.18468  0.55417  1.0000
  C   C212      1.0  0.84464  0.07366  0.34685  1.0000
  C   C213      1.0  0.82361  0.05829  0.40961  1.0000
  C   C214      1.0  0.81009  0.02954  0.40747  1.0000
  C   C215      1.0  0.81703  0.01523  0.34517  1.0000
  C   C216      1.0  0.80238  0.98610  0.34786  1.0000
  C   C217      1.0  0.80581  0.97084  0.41741  1.0000
  C   C218      1.0  0.79053  0.94208  0.41412  1.0000
  H   H137      1.0  0.79300  0.93122  0.46452  1.0000
  H   H138      1.0  0.79504  0.01890  0.45345  1.0000
  N   N51       1.0  0.82360  0.98281  0.48647  1.0000
  H   H139      1.0  0.83508  0.00234  0.49074  1.0000
  H   H140      1.0  0.82586  0.97208  0.53305  1.0000
  N   N52       1.0  0.81700  0.07182  0.47625  1.0000
  O   O51       1.0  0.79263  0.06589  0.47086  1.0000
  O   O52       1.0  0.82136  0.06630  0.55416  1.0000
  C   C219      1.0  0.93239  0.76756  0.34687  1.0000
  C   C220      1.0  0.94776  0.76191  0.40962  1.0000
  C   C221      1.0  0.97650  0.77713  0.40749  1.0000
  C   C222      1.0  0.99081  0.79837  0.34518  1.0000
  C   C223      1.0  0.01995  0.81287  0.34787  1.0000
  C   C224      1.0  0.03521  0.83155  0.41742  1.0000
  C   C225      1.0  0.06396  0.84503  0.41413  1.0000
  H   H141      1.0  0.07482  0.85836  0.46453  1.0000
  H   H142      1.0  0.98715  0.77272  0.45347  1.0000
  N   N53       1.0  0.02324  0.83738  0.48648  1.0000
  H   H143      1.0  0.00370  0.82933  0.49074  1.0000
  H   H144      1.0  0.03397  0.85037  0.53305  1.0000
  N   N54       1.0  0.93422  0.74176  0.47627  1.0000
  O   O53       1.0  0.94015  0.72331  0.47088  1.0000
  O   O54       1.0  0.93974  0.75165  0.55418  1.0000
  C   C226      1.0  0.77186  0.84035  0.34686  1.0000
  C   C227      1.0  0.76621  0.81932  0.40962  1.0000
  C   C228      1.0  0.78143  0.80580  0.40748  1.0000
  C   C229      1.0  0.80267  0.81273  0.34518  1.0000
  C   C230      1.0  0.81717  0.79809  0.34786  1.0000
  C   C231      1.0  0.83585  0.80151  0.41742  1.0000
  C   C232      1.0  0.84933  0.78623  0.41413  1.0000
  H   H145      1.0  0.86266  0.78870  0.46453  1.0000
  H   H146      1.0  0.77702  0.79075  0.45347  1.0000
  N   N55       1.0  0.84167  0.81930  0.48648  1.0000
  H   H147      1.0  0.83362  0.83079  0.49075  1.0000
  H   H148      1.0  0.85466  0.82156  0.53306  1.0000
  N   N56       1.0  0.74607  0.81272  0.47627  1.0000
  O   O55       1.0  0.72762  0.78834  0.47089  1.0000
  O   O56       1.0  0.75595  0.81708  0.55418  1.0000
  C   C233      1.0  0.16570  0.92809  0.34687  1.0000
  C   C234      1.0  0.18672  0.94346  0.40963  1.0000
  C   C235      1.0  0.20024  0.97221  0.40749  1.0000
  C   C236      1.0  0.19331  0.98652  0.34518  1.0000
  C   C237      1.0  0.20796  0.01565  0.34786  1.0000
  C   C238      1.0  0.20453  0.03092  0.41741  1.0000
  C   C239      1.0  0.21981  0.05967  0.41412  1.0000
  H   H149      1.0  0.21734  0.07053  0.46452  1.0000
  H   H150      1.0  0.21530  0.98285  0.45347  1.0000
  N   N57       1.0  0.18674  0.01895  0.48647  1.0000
  H   H151      1.0  0.17525  0.99941  0.49074  1.0000
  H   H152      1.0  0.18448  0.02968  0.53305  1.0000
  N   N58       1.0  0.19333  0.92993  0.47627  1.0000
  O   O57       1.0  0.21771  0.93586  0.47088  1.0000
  O   O58       1.0  0.18897  0.93545  0.55418  1.0000
  C   C240      1.0  0.07795  0.23419  0.34685  1.0000
  C   C241      1.0  0.06258  0.23984  0.40961  1.0000
  C   C242      1.0  0.03384  0.22462  0.40746  1.0000
  C   C243      1.0  0.01952  0.20338  0.34517  1.0000
  C   C244      1.0  0.99039  0.18888  0.34785  1.0000
  C   C245      1.0  0.97513  0.17020  0.41741  1.0000
  C   C246      1.0  0.94637  0.15672  0.41412  1.0000
  H   H153      1.0  0.93551  0.14339  0.46452  1.0000
  H   H154      1.0  0.02319  0.22903  0.45345  1.0000
  N   N59       1.0  0.98710  0.16438  0.48646  1.0000
  H   H155      1.0  0.00663  0.17242  0.49073  1.0000
  H   H156      1.0  0.97637  0.15138  0.53305  1.0000
  N   N60       1.0  0.07611  0.25998  0.47625  1.0000
  O   O59       1.0  0.07019  0.27843  0.47087  1.0000
  O   O60       1.0  0.07059  0.25010  0.55416  1.0000
  C   C247      1.0  0.24239  0.68154  0.32440  1.0000
  C   C248      1.0  0.22476  0.66341  0.39076  1.0000
  C   C249      1.0  0.21969  0.63636  0.39289  1.0000
  C   C250      1.0  0.23322  0.62738  0.33447  1.0000
  C   C251      1.0  0.23206  0.60213  0.35273  1.0000
  C   C252      1.0  0.24555  0.59875  0.42820  1.0000
  C   C253      1.0  0.24792  0.57519  0.43293  1.0000
  H   H157      1.0  0.25917  0.57366  0.48411  1.0000
  H   H158      1.0  0.20792  0.62389  0.44378  1.0000
  N   N61       1.0  0.25805  0.61792  0.49335  1.0000
  H   H159      1.0  0.25859  0.63519  0.49172  1.0000
  H   H160      1.0  0.26765  0.61525  0.54299  1.0000
  N   N62       1.0  0.21412  0.67313  0.45785  1.0000
  O   O61       1.0  0.22220  0.67147  0.53506  1.0000
  O   O62       1.0  0.18866  0.66024  0.45717  1.0000
  C   C254      1.0  0.32453  0.55741  0.32447  1.0000
  C   C255      1.0  0.34265  0.55790  0.39082  1.0000
  C   C256      1.0  0.36969  0.57986  0.39290  1.0000
  C   C257      1.0  0.37866  0.60240  0.33454  1.0000
  C   C258      1.0  0.40391  0.62650  0.35282  1.0000
  C   C259      1.0  0.40726  0.64337  0.42826  1.0000
  C   C260      1.0  0.43078  0.66933  0.43280  1.0000
  H   H161      1.0  0.43234  0.68208  0.48411  1.0000
  H   H162      1.0  0.38217  0.58060  0.44384  1.0000
  N   N63       1.0  0.38810  0.63668  0.49346  1.0000
  H   H163      1.0  0.37086  0.61992  0.49193  1.0000
  H   H164      1.0  0.39076  0.64895  0.54305  1.0000
  N   N64       1.0  0.33292  0.53755  0.45791  1.0000
  O   O63       1.0  0.33459  0.54728  0.53512  1.0000
  O   O64       1.0  0.34580  0.52497  0.45721  1.0000
  C   C261      1.0  0.44864  0.76371  0.32435  1.0000
  C   C262      1.0  0.44813  0.78133  0.39073  1.0000
  C   C263      1.0  0.42616  0.78640  0.39286  1.0000
  C   C264      1.0  0.40365  0.77287  0.33442  1.0000
  C   C265      1.0  0.37955  0.77402  0.35269  1.0000
  C   C266      1.0  0.36268  0.76051  0.42815  1.0000
  C   C267      1.0  0.33675  0.75813  0.43287  1.0000
  H   H165      1.0  0.32397  0.74688  0.48404  1.0000
  H   H166      1.0  0.42545  0.79816  0.44377  1.0000
  N   N65       1.0  0.36935  0.74801  0.49327  1.0000
  H   H167      1.0  0.38608  0.74747  0.49163  1.0000
  H   H168      1.0  0.35708  0.73840  0.54289  1.0000
  N   N66       1.0  0.46849  0.79195  0.45784  1.0000
  O   O65       1.0  0.45875  0.78387  0.53504  1.0000
  O   O66       1.0  0.48106  0.81742  0.45721  1.0000
  C   C268      1.0  0.76810  0.32029  0.32437  1.0000
  C   C269      1.0  0.78569  0.33842  0.39078  1.0000
  C   C270      1.0  0.79077  0.36546  0.39288  1.0000
  C   C271      1.0  0.77720  0.37442  0.33450  1.0000
  C   C272      1.0  0.77832  0.39966  0.35280  1.0000
  C   C273      1.0  0.76480  0.40299  0.42825  1.0000
  C   C274      1.0  0.76234  0.42650  0.43283  1.0000
  H   H169      1.0  0.75114  0.42806  0.48415  1.0000
  H   H170      1.0  0.80249  0.37793  0.44384  1.0000
  N   N67       1.0  0.75233  0.38383  0.49343  1.0000
  H   H171      1.0  0.75186  0.36659  0.49189  1.0000
  H   H172      1.0  0.74271  0.38647  0.54303  1.0000
  N   N68       1.0  0.79632  0.32869  0.45789  1.0000
  O   O67       1.0  0.78823  0.33034  0.53508  1.0000
  O   O68       1.0  0.82178  0.34159  0.45727  1.0000
  C   C275      1.0  0.68581  0.44434  0.32435  1.0000
  C   C276      1.0  0.66768  0.44382  0.39074  1.0000
  C   C277      1.0  0.64064  0.42184  0.39288  1.0000
  C   C278      1.0  0.63166  0.39934  0.33442  1.0000
  C   C279      1.0  0.60641  0.37523  0.35269  1.0000
  C   C280      1.0  0.60306  0.35835  0.42813  1.0000
  C   C281      1.0  0.57951  0.33242  0.43286  1.0000
  H   H173      1.0  0.57799  0.31965  0.48402  1.0000
  H   H174      1.0  0.62817  0.42113  0.44380  1.0000
  N   N69       1.0  0.62224  0.36503  0.49325  1.0000
  H   H175      1.0  0.63950  0.38176  0.49161  1.0000
  H   H176      1.0  0.61958  0.35276  0.54286  1.0000
  N   N70       1.0  0.67741  0.46417  0.45786  1.0000
  O   O69       1.0  0.67576  0.45443  0.53505  1.0000
  O   O70       1.0  0.66451  0.47673  0.45725  1.0000
  C   C282      1.0  0.56170  0.23802  0.32444  1.0000
  C   C283      1.0  0.56222  0.22043  0.39084  1.0000
  C   C284      1.0  0.58419  0.21536  0.39297  1.0000
  C   C285      1.0  0.60673  0.22892  0.33462  1.0000
  C   C286      1.0  0.63084  0.22781  0.35294  1.0000
  C   C287      1.0  0.64770  0.24133  0.42840  1.0000
  C   C288      1.0  0.67367  0.24379  0.43299  1.0000
  H   H177      1.0  0.68642  0.25500  0.48429  1.0000
  H   H178      1.0  0.58494  0.20363  0.44394  1.0000
  N   N71       1.0  0.64099  0.25379  0.49358  1.0000
  H   H179      1.0  0.62422  0.25426  0.49202  1.0000
  H   H180      1.0  0.65325  0.26341  0.54318  1.0000
  N   N72       1.0  0.54187  0.20980  0.45793  1.0000
  O   O71       1.0  0.55160  0.21789  0.53512  1.0000
  O   O72       1.0  0.52930  0.18434  0.45730  1.0000
