data_image0
_chemical_formula_structural       C4HC6HO2C4HC6HO2CNCHNHCNCHNHC4HC6HO2C4HC6HO2CNCHNHCNCHNHC4HC6HO2C4HC6HO2C4HC6HO2C4HC6HO2CNCHNHCNCHNHC4HC6HO2C4HC6HO2CNCHNHCNCHNHC4HC6HO2C4HC6HO2CNCHNHCNCHNHC4HC6HO2C4HC6HO2CNCNCNCNCNCNCNCNCNCNCNCNCNCNCNCNCNCNCNCNCNCNCNCNCNCNCNCNCNCNCNCNCNCNCNCNCNCNCNCNCNCNCNCNCNCNCNCNCNCHNHCNCHNHC4HC6HO2C4HC6HO2CNCHNHCNCHNHC4HC6HO2C4HC6HO2CNCHNHCNCHNHCNCHNHCNCHNHC4HC6HO2C4HC6HO2CNCHNHCNCHNHC4HC6HO2C4HC6HO2CNCHNHCNCHNHC4HC6HO2C4HC6HO2CNCHNHCNCHNH
_chemical_formula_sum              "C336 H96 O48 N96"
_cell_length_a       65.9602
_cell_length_b       51.723
_cell_length_c       14.8847
_cell_angle_alpha    90
_cell_angle_beta     90
_cell_angle_gamma    90

_space_group_name_H-M_alt    "P 1"
_space_group_IT_number       1

loop_
  _space_group_symop_operation_xyz
  'x, y, z'

loop_
  _atom_site_type_symbol
  _atom_site_label
  _atom_site_symmetry_multiplicity
  _atom_site_fract_x
  _atom_site_fract_y
  _atom_site_fract_z
  _atom_site_occupancy
  C   C1        1.0  0.00282  0.93409  0.33268  1.0000
  C   C2        1.0  0.00263  0.98910  0.32862  1.0000
  C   C3        1.0  0.01739  0.97533  0.27800  1.0000
  C   C4        1.0  0.01735  0.94794  0.28179  1.0000
  H   H1        1.0  0.02792  0.93784  0.24572  1.0000
  C   C5        1.0  0.00257  0.01655  0.32866  1.0000
  C   C6        1.0  0.00253  0.07152  0.33286  1.0000
  C   C7        1.0  0.01720  0.05782  0.28232  1.0000
  C   C8        1.0  0.01731  0.03043  0.27825  1.0000
  C   C9        1.0  0.03152  0.01656  0.22586  1.0000
  C   C10       1.0  0.03155  0.98931  0.22568  1.0000
  H   H2        1.0  0.02774  0.06803  0.24648  1.0000
  O   O1        1.0  0.04534  0.02912  0.17453  1.0000
  O   O2        1.0  0.04540  0.97686  0.17419  1.0000
  C   C11       1.0  0.50293  0.43429  0.33219  1.0000
  C   C12       1.0  0.50335  0.48939  0.32945  1.0000
  C   C13       1.0  0.52043  0.47552  0.29677  1.0000
  C   C14       1.0  0.51994  0.44813  0.29925  1.0000
  H   H3        1.0  0.53218  0.43805  0.27576  1.0000
  C   C15       1.0  0.50344  0.51683  0.32971  1.0000
  C   C16       1.0  0.50333  0.57188  0.33332  1.0000
  C   C17       1.0  0.52031  0.55799  0.30064  1.0000
  C   C18       1.0  0.52062  0.53060  0.29750  1.0000
  C   C19       1.0  0.53739  0.51662  0.26353  1.0000
  C   C20       1.0  0.53729  0.48938  0.26310  1.0000
  H   H4        1.0  0.53261  0.56803  0.27744  1.0000
  O   O3        1.0  0.55388  0.52907  0.23063  1.0000
  O   O4        1.0  0.55369  0.47683  0.22985  1.0000
  C   C21       1.0  0.05885  0.14466  0.33122  1.0000
  N   N1        1.0  0.07534  0.16064  0.33309  1.0000
  C   C22       1.0  0.12806  0.20849  0.33694  1.0000
  H   H5        1.0  0.06117  0.12530  0.32240  1.0000
  N   N2        1.0  0.11099  0.19351  0.33614  1.0000
  H   H6        1.0  0.14180  0.19968  0.32925  1.0000
  C   C23       1.0  0.94707  0.86033  0.34389  1.0000
  N   N3        1.0  0.93071  0.84416  0.34634  1.0000
  C   C24       1.0  0.87847  0.79569  0.34617  1.0000
  H   H7        1.0  0.94462  0.87955  0.33256  1.0000
  N   N4        1.0  0.89540  0.81089  0.34756  1.0000
  H   H8        1.0  0.86475  0.80427  0.33512  1.0000
  C   C25       1.0  0.96634  0.15481  0.33544  1.0000
  C   C26       1.0  0.93126  0.18730  0.33196  1.0000
  C   C27       1.0  0.95070  0.19805  0.31433  1.0000
  C   C28       1.0  0.96779  0.18161  0.31643  1.0000
  H   H9        1.0  0.98168  0.18952  0.30323  1.0000
  C   C29       1.0  0.91388  0.20361  0.33160  1.0000
  C   C30       1.0  0.87916  0.23667  0.33498  1.0000
  C   C31       1.0  0.89876  0.24641  0.31563  1.0000
  C   C32       1.0  0.91614  0.23047  0.31368  1.0000
  C   C33       1.0  0.93554  0.24081  0.29530  1.0000
  C   C34       1.0  0.95269  0.22472  0.29563  1.0000
  H   H10       1.0  0.90052  0.26570  0.30263  1.0000
  O   O5        1.0  0.93818  0.26631  0.27780  1.0000
  O   O6        1.0  0.97102  0.23550  0.27838  1.0000
  C   C35       1.0  0.03942  0.85119  0.32322  1.0000
  C   C36       1.0  0.07464  0.81890  0.31800  1.0000
  C   C37       1.0  0.05521  0.80817  0.29976  1.0000
  C   C38       1.0  0.03804  0.82449  0.30267  1.0000
  H   H11       1.0  0.02414  0.81659  0.28964  1.0000
  C   C39       1.0  0.09205  0.80261  0.31793  1.0000
  C   C40       1.0  0.12674  0.76935  0.32320  1.0000
  C   C41       1.0  0.10717  0.75978  0.30208  1.0000
  C   C42       1.0  0.08982  0.77578  0.29940  1.0000
  C   C43       1.0  0.07045  0.76546  0.28017  1.0000
  C   C44       1.0  0.05328  0.78152  0.28042  1.0000
  H   H12       1.0  0.10538  0.74052  0.28875  1.0000
  O   O7        1.0  0.06783  0.73997  0.26249  1.0000
  O   O8        1.0  0.03498  0.77072  0.26293  1.0000
  C   C45       1.0  0.55925  0.64550  0.33140  1.0000
  N   N5        1.0  0.57570  0.66154  0.33268  1.0000
  C   C46       1.0  0.62828  0.70949  0.33397  1.0000
  H   H13       1.0  0.56161  0.62616  0.32226  1.0000
  N   N6        1.0  0.61124  0.69448  0.33410  1.0000
  H   H14       1.0  0.64201  0.70070  0.32554  1.0000
  C   C47       1.0  0.44659  0.36045  0.34056  1.0000
  N   N7        1.0  0.43025  0.34424  0.34353  1.0000
  C   C48       1.0  0.37810  0.29549  0.34452  1.0000
  H   H15       1.0  0.44414  0.37960  0.32789  1.0000
  N   N8        1.0  0.39498  0.31080  0.34568  1.0000
  H   H16       1.0  0.36438  0.30393  0.33213  1.0000
  C   C49       1.0  0.46673  0.65507  0.33500  1.0000
  C   C50       1.0  0.43157  0.68744  0.33301  1.0000
  C   C51       1.0  0.45099  0.69828  0.31548  1.0000
  C   C52       1.0  0.46812  0.68192  0.31677  1.0000
  H   H17       1.0  0.48198  0.68991  0.30364  1.0000
  C   C53       1.0  0.41416  0.70371  0.33326  1.0000
  C   C54       1.0  0.37940  0.73677  0.33645  1.0000
  C   C55       1.0  0.39906  0.74651  0.31802  1.0000
  C   C56       1.0  0.41643  0.73060  0.31610  1.0000
  C   C57       1.0  0.43581  0.74105  0.29795  1.0000
  C   C58       1.0  0.45297  0.72500  0.29763  1.0000
  H   H18       1.0  0.40087  0.76578  0.30486  1.0000
  O   O9        1.0  0.43842  0.76659  0.28107  1.0000
  O   O10       1.0  0.47127  0.73586  0.28048  1.0000
  C   C59       1.0  0.53896  0.35104  0.32549  1.0000
  C   C60       1.0  0.57420  0.31888  0.32195  1.0000
  C   C61       1.0  0.55480  0.30796  0.30455  1.0000
  C   C62       1.0  0.53760  0.32424  0.30660  1.0000
  H   H19       1.0  0.52371  0.31624  0.29413  1.0000
  C   C63       1.0  0.59165  0.30271  0.32248  1.0000
  C   C64       1.0  0.62651  0.26988  0.32789  1.0000
  C   C65       1.0  0.60695  0.25996  0.30854  1.0000
  C   C66       1.0  0.58951  0.27578  0.30558  1.0000
  C   C67       1.0  0.57017  0.26526  0.28718  1.0000
  C   C68       1.0  0.55295  0.28122  0.28668  1.0000
  H   H20       1.0  0.60528  0.24063  0.29617  1.0000
  O   O11       1.0  0.56766  0.23968  0.27067  1.0000
  O   O12       1.0  0.53467  0.27026  0.26975  1.0000
  C   C69       1.0  0.39007  0.04981  0.30220  1.0000
  C   C70       1.0  0.37643  0.10185  0.29964  1.0000
  C   C71       1.0  0.39520  0.09553  0.25839  1.0000
  C   C72       1.0  0.40147  0.06948  0.25904  1.0000
  H   H21       1.0  0.41512  0.06497  0.23040  1.0000
  C   C73       1.0  0.37019  0.12802  0.30379  1.0000
  C   C74       1.0  0.35813  0.18035  0.31945  1.0000
  C   C75       1.0  0.37670  0.17380  0.27800  1.0000
  C   C76       1.0  0.38291  0.14781  0.26866  1.0000
  C   C77       1.0  0.40144  0.14123  0.22692  1.0000
  C   C78       1.0  0.40748  0.11522  0.22119  1.0000
  H   H22       1.0  0.38580  0.18821  0.25356  1.0000
  O   O13       1.0  0.41389  0.15963  0.19282  1.0000
  O   O14       1.0  0.42557  0.10976  0.18240  1.0000
  C   C79       1.0  0.61878  0.95553  0.31761  1.0000
  C   C80       1.0  0.63244  0.90348  0.31436  1.0000
  C   C81       1.0  0.61426  0.91016  0.26879  1.0000
  C   C82       1.0  0.60800  0.93619  0.26991  1.0000
  H   H23       1.0  0.59478  0.94096  0.23796  1.0000
  C   C83       1.0  0.63854  0.87722  0.31795  1.0000
  C   C84       1.0  0.65012  0.82456  0.33200  1.0000
  C   C85       1.0  0.63222  0.83171  0.28608  1.0000
  C   C86       1.0  0.62625  0.85781  0.27769  1.0000
  C   C87       1.0  0.60832  0.86478  0.23173  1.0000
  C   C88       1.0  0.60243  0.89083  0.22676  1.0000
  H   H24       1.0  0.62340  0.81766  0.25752  1.0000
  O   O15       1.0  0.59627  0.84672  0.19292  1.0000
  O   O16       1.0  0.58488  0.89666  0.18389  1.0000
  C   C89       1.0  0.63682  0.05868  0.33080  1.0000
  N   N9        1.0  0.64269  0.08395  0.33343  1.0000
  C   C90       1.0  0.66179  0.16171  0.32369  1.0000
  H   H25       1.0  0.64584  0.04566  0.29818  1.0000
  N   N10       1.0  0.65547  0.13672  0.32994  1.0000
  H   H26       1.0  0.67531  0.16542  0.29288  1.0000
  C   C91       1.0  0.37071  0.94810  0.33293  1.0000
  N   N11       1.0  0.36474  0.92290  0.33484  1.0000
  C   C92       1.0  0.34554  0.84550  0.32095  1.0000
  H   H27       1.0  0.36221  0.96101  0.29711  1.0000
  N   N12       1.0  0.35188  0.87041  0.32876  1.0000
  H   H28       1.0  0.33229  0.84193  0.28766  1.0000
  C   C93       1.0  0.88890  0.54979  0.30455  1.0000
  C   C94       1.0  0.87553  0.60199  0.30221  1.0000
  C   C95       1.0  0.89419  0.59548  0.26040  1.0000
  C   C96       1.0  0.90029  0.56937  0.26084  1.0000
  H   H29       1.0  0.91383  0.56476  0.23136  1.0000
  C   C97       1.0  0.86943  0.62822  0.30609  1.0000
  C   C98       1.0  0.85766  0.68071  0.32083  1.0000
  C   C99       1.0  0.87615  0.67391  0.27919  1.0000
  C   C100      1.0  0.88221  0.64785  0.27028  1.0000
  C   C101      1.0  0.90066  0.64107  0.22823  1.0000
  C   C102      1.0  0.90654  0.61501  0.22266  1.0000
  H   H30       1.0  0.88530  0.68820  0.25424  1.0000
  O   O17       1.0  0.91317  0.65932  0.19358  1.0000
  O   O18       1.0  0.92455  0.60935  0.18349  1.0000
  C   C103      1.0  0.11829  0.45450  0.32025  1.0000
  C   C104      1.0  0.13197  0.40246  0.31891  1.0000
  C   C105      1.0  0.11399  0.40908  0.27172  1.0000
  C   C106      1.0  0.10774  0.43511  0.27186  1.0000
  H   H31       1.0  0.09469  0.43983  0.23848  1.0000
  C   C107      1.0  0.13807  0.37622  0.32315  1.0000
  C   C108      1.0  0.14967  0.32361  0.33800  1.0000
  C   C109      1.0  0.13193  0.33071  0.29082  1.0000
  C   C110      1.0  0.12596  0.35678  0.28199  1.0000
  C   C111      1.0  0.10822  0.36369  0.23457  1.0000
  C   C112      1.0  0.10234  0.38973  0.22889  1.0000
  H   H32       1.0  0.12325  0.31663  0.26154  1.0000
  O   O19       1.0  0.09635  0.34560  0.19488  1.0000
  O   O20       1.0  0.08497  0.39552  0.18452  1.0000
  C   C113      1.0  0.13632  0.55778  0.33493  1.0000
  N   N13       1.0  0.14203  0.58309  0.33800  1.0000
  C   C114      1.0  0.16089  0.66071  0.32967  1.0000
  H   H33       1.0  0.14565  0.54478  0.30396  1.0000
  N   N14       1.0  0.15459  0.63575  0.33552  1.0000
  H   H34       1.0  0.17470  0.66436  0.30130  1.0000
  C   C115      1.0  0.86951  0.44757  0.33593  1.0000
  N   N15       1.0  0.86357  0.42238  0.34007  1.0000
  C   C116      1.0  0.84436  0.34488  0.33250  1.0000
  H   H35       1.0  0.86074  0.46035  0.30087  1.0000
  N   N16       1.0  0.85071  0.36983  0.33844  1.0000
  H   H36       1.0  0.83093  0.34115  0.30095  1.0000
  C   C117      1.0  0.45108  0.00130  0.32777  1.0000
  C   C118      1.0  0.49356  0.00115  0.32426  1.0000
  C   C119      1.0  0.48289  0.01238  0.25110  1.0000
  C   C120      1.0  0.46149  0.01263  0.25483  1.0000
  H   H37       1.0  0.45338  0.02077  0.20344  1.0000
  C   C121      1.0  0.51491  0.00141  0.32553  1.0000
  C   C122      1.0  0.55727  0.00242  0.33381  1.0000
  C   C123      1.0  0.54724  0.01333  0.25921  1.0000
  C   C124      1.0  0.52587  0.01275  0.25335  1.0000
  C   C125      1.0  0.51520  0.02300  0.17903  1.0000
  C   C126      1.0  0.49384  0.02287  0.17799  1.0000
  H   H38       1.0  0.55560  0.02146  0.20858  1.0000
  O   O21       1.0  0.52520  0.03313  0.10773  1.0000
  O   O22       1.0  0.48411  0.03288  0.10577  1.0000
  C   C127      1.0  0.95015  0.50124  0.32038  1.0000
  C   C128      1.0  0.99277  0.50153  0.31574  1.0000
  C   C129      1.0  0.98203  0.52089  0.26764  1.0000
  C   C130      1.0  0.96065  0.52045  0.27117  1.0000
  H   H39       1.0  0.95263  0.53430  0.23732  1.0000
  C   C131      1.0  0.01411  0.50166  0.31698  1.0000
  C   C132      1.0  0.05657  0.50183  0.32638  1.0000
  C   C133      1.0  0.04634  0.52128  0.27757  1.0000
  C   C134      1.0  0.02499  0.52132  0.27090  1.0000
  C   C135      1.0  0.01426  0.54014  0.22097  1.0000
  C   C136      1.0  0.99291  0.53988  0.21914  1.0000
  H   H40       1.0  0.05456  0.53531  0.24554  1.0000
  O   O23       1.0  0.02420  0.55871  0.17426  1.0000
  O   O24       1.0  0.98312  0.55825  0.17089  1.0000
  C   C137      1.0  0.20983  0.24142  0.30508  1.0000
  N   N17       1.0  0.23039  0.23976  0.30446  1.0000
  C   C138      1.0  0.29314  0.23286  0.28561  1.0000
  H   H41       1.0  0.20184  0.23249  0.25510  1.0000
  N   N18       1.0  0.27281  0.23574  0.29387  1.0000
  H   H42       1.0  0.29847  0.22129  0.23520  1.0000
  C   C139      1.0  0.79379  0.73685  0.27755  1.0000
  N   N19       1.0  0.77340  0.73947  0.28472  1.0000
  C   C140      1.0  0.71038  0.74498  0.29118  1.0000
  H   H43       1.0  0.79948  0.72740  0.22277  1.0000
  N   N20       1.0  0.73094  0.74333  0.29207  1.0000
  H   H44       1.0  0.70270  0.73842  0.23609  1.0000
  C   C141      1.0  0.80626  0.25797  0.33933  1.0000
  C   C142      1.0  0.76360  0.25443  0.33252  1.0000
  C   C143      1.0  0.77490  0.25278  0.25130  1.0000
  C   C144      1.0  0.79632  0.25462  0.25612  1.0000
  H   H45       1.0  0.80475  0.25443  0.19837  1.0000
  C   C145      1.0  0.74217  0.25304  0.33084  1.0000
  C   C146      1.0  0.69950  0.24925  0.33125  1.0000
  C   C147      1.0  0.71034  0.24781  0.24958  1.0000
  C   C148      1.0  0.73176  0.24988  0.24787  1.0000
  C   C149      1.0  0.74308  0.24840  0.16727  1.0000
  C   C150      1.0  0.76442  0.24993  0.16894  1.0000
  H   H46       1.0  0.70256  0.24446  0.19122  1.0000
  O   O25       1.0  0.73367  0.24556  0.08693  1.0000
  O   O26       1.0  0.77464  0.24861  0.09010  1.0000
  C   C151      1.0  0.19982  0.74616  0.33888  1.0000
  C   C152      1.0  0.24243  0.75180  0.32705  1.0000
  C   C153      1.0  0.22973  0.76690  0.27023  1.0000
  C   C154      1.0  0.20840  0.76400  0.27786  1.0000
  H   H47       1.0  0.19902  0.77412  0.23586  1.0000
  C   C155      1.0  0.26378  0.75402  0.32213  1.0000
  C   C156      1.0  0.30643  0.75957  0.31935  1.0000
  C   C157      1.0  0.29403  0.77437  0.26117  1.0000
  C   C158      1.0  0.27268  0.77171  0.26072  1.0000
  C   C159      1.0  0.26006  0.78633  0.20303  1.0000
  C   C160      1.0  0.23880  0.78387  0.20748  1.0000
  H   H48       1.0  0.30068  0.78765  0.21952  1.0000
  O   O27       1.0  0.26811  0.80294  0.14231  1.0000
  O   O28       1.0  0.22728  0.79810  0.15056  1.0000
  C   C161      1.0  0.98428  0.13906  0.33810  1.0000
  N   N21       1.0  0.98468  0.11270  0.33770  1.0000
  C   C162      1.0  0.00250  0.09911  0.33618  1.0000
  N   N22       1.0  0.02036  0.11266  0.33584  1.0000
  C   C163      1.0  0.02090  0.13900  0.33823  1.0000
  N   N23       1.0  0.00260  0.15097  0.33873  1.0000
  C   C164      1.0  0.02136  0.86661  0.33027  1.0000
  N   N24       1.0  0.02072  0.89294  0.32887  1.0000
  C   C165      1.0  0.00292  0.90645  0.33605  1.0000
  N   N25       1.0  0.98527  0.89273  0.34484  1.0000
  C   C166      1.0  0.98496  0.86636  0.34676  1.0000
  N   N26       1.0  0.00323  0.85447  0.33916  1.0000
  C   C167      1.0  0.48475  0.63947  0.33744  1.0000
  N   N27       1.0  0.48529  0.61312  0.33675  1.0000
  C   C168      1.0  0.50314  0.59957  0.33606  1.0000
  N   N28       1.0  0.52090  0.61335  0.33680  1.0000
  C   C169      1.0  0.52135  0.63968  0.33903  1.0000
  N   N29       1.0  0.50301  0.65153  0.33886  1.0000
  C   C170      1.0  0.52092  0.36650  0.33117  1.0000
  N   N30       1.0  0.52040  0.39281  0.32977  1.0000
  C   C171      1.0  0.50268  0.40657  0.33505  1.0000
  N   N31       1.0  0.48494  0.39292  0.34247  1.0000
  C   C172      1.0  0.48449  0.36655  0.34481  1.0000
  N   N32       1.0  0.50272  0.35452  0.33874  1.0000
  C   C173      1.0  0.39850  0.98011  0.35569  1.0000
  N   N33       1.0  0.38846  0.00270  0.33718  1.0000
  C   C174      1.0  0.39883  0.02488  0.31620  1.0000
  N   N34       1.0  0.41940  0.02356  0.31401  1.0000
  C   C175      1.0  0.42981  0.00174  0.33166  1.0000
  N   N35       1.0  0.41909  0.98040  0.35224  1.0000
  C   C176      1.0  0.60925  0.02605  0.35351  1.0000
  N   N36       1.0  0.61973  0.00332  0.34288  1.0000
  C   C177      1.0  0.60973  0.98034  0.33024  1.0000
  N   N37       1.0  0.58913  0.98079  0.33000  1.0000
  C   C178      1.0  0.57843  0.00275  0.33903  1.0000
  N   N38       1.0  0.58866  0.02504  0.34936  1.0000
  C   C179      1.0  0.89743  0.47973  0.35340  1.0000
  N   N39       1.0  0.88727  0.50244  0.33809  1.0000
  C   C180      1.0  0.89752  0.52470  0.31723  1.0000
  N   N40       1.0  0.91805  0.52325  0.31255  1.0000
  C   C181      1.0  0.92874  0.50139  0.32621  1.0000
  N   N41       1.0  0.91799  0.48002  0.34655  1.0000
  C   C182      1.0  0.10869  0.52507  0.35328  1.0000
  N   N42       1.0  0.11921  0.50231  0.34487  1.0000
  C   C183      1.0  0.10925  0.47937  0.33098  1.0000
  N   N43       1.0  0.08866  0.47997  0.32726  1.0000
  C   C184      1.0  0.07783  0.50193  0.33345  1.0000
  N   N44       1.0  0.08818  0.52409  0.34549  1.0000
  C   C185      1.0  0.14402  0.25274  0.34763  1.0000
  N   N45       1.0  0.16387  0.24537  0.35565  1.0000
  C   C186      1.0  0.17911  0.26330  0.36144  1.0000
  N   N46       1.0  0.17433  0.28888  0.35719  1.0000
  C   C187      1.0  0.15499  0.29709  0.34681  1.0000
  N   N47       1.0  0.14048  0.27860  0.34264  1.0000
  C   C188      1.0  0.86289  0.75121  0.34994  1.0000
  N   N48       1.0  0.84291  0.75835  0.35233  1.0000
  C   C189      1.0  0.82772  0.74045  0.34380  1.0000
  N   N49       1.0  0.83271  0.71510  0.33406  1.0000
  C   C190      1.0  0.85223  0.70711  0.33146  1.0000
  N   N50       1.0  0.86674  0.72554  0.33899  1.0000
  C   C191      1.0  0.86215  0.25394  0.34064  1.0000
  N   N51       1.0  0.84226  0.24659  0.33728  1.0000
  C   C192      1.0  0.82701  0.26444  0.34271  1.0000
  N   N52       1.0  0.83172  0.28992  0.35117  1.0000
  C   C193      1.0  0.85124  0.29804  0.35542  1.0000
  N   N53       1.0  0.86587  0.27967  0.35017  1.0000
  C   C194      1.0  0.14360  0.75183  0.33128  1.0000
  N   N54       1.0  0.16366  0.75866  0.33065  1.0000
  C   C195      1.0  0.17872  0.74056  0.33986  1.0000
  N   N55       1.0  0.17332  0.71529  0.34818  1.0000
  C   C196      1.0  0.15374  0.70754  0.34928  1.0000
  N   N56       1.0  0.13944  0.72621  0.34120  1.0000
  C   C197      1.0  0.64422  0.75373  0.34329  1.0000
  N   N57       1.0  0.66405  0.74622  0.35041  1.0000
  C   C198      1.0  0.67936  0.76405  0.35471  1.0000
  N   N58       1.0  0.67476  0.78967  0.35032  1.0000
  C   C199      1.0  0.65540  0.79800  0.34083  1.0000
  N   N59       1.0  0.64077  0.77961  0.33793  1.0000
  C   C200      1.0  0.36273  0.25089  0.34969  1.0000
  N   N60       1.0  0.34268  0.25770  0.35245  1.0000
  C   C201      1.0  0.32762  0.23960  0.34375  1.0000
  N   N61       1.0  0.33293  0.21436  0.33361  1.0000
  C   C202      1.0  0.35251  0.20667  0.33050  1.0000
  N   N62       1.0  0.36684  0.22531  0.33815  1.0000
  C   C203      1.0  0.36237  0.75410  0.33908  1.0000
  N   N63       1.0  0.34243  0.74711  0.33123  1.0000
  C   C204      1.0  0.32737  0.76534  0.32802  1.0000
  N   N64       1.0  0.33250  0.79076  0.33458  1.0000
  C   C205      1.0  0.35194  0.79858  0.34503  1.0000
  N   N65       1.0  0.36627  0.77983  0.34658  1.0000
  C   C206      1.0  0.64362  0.25276  0.33356  1.0000
  N   N66       1.0  0.66348  0.26028  0.33077  1.0000
  C   C207      1.0  0.67880  0.24251  0.33449  1.0000
  N   N67       1.0  0.67424  0.21694  0.34133  1.0000
  C   C208      1.0  0.65476  0.20864  0.34572  1.0000
  N   N68       1.0  0.64006  0.22695  0.34163  1.0000
  C   C209      1.0  0.98825  0.94902  0.37932  1.0000
  N   N69       1.0  0.98878  0.97530  0.37656  1.0000
  C   C210      1.0  0.98795  0.05652  0.37908  1.0000
  H   H49       1.0  0.97739  0.94035  0.41789  1.0000
  N   N70       1.0  0.98861  0.03024  0.37637  1.0000
  H   H50       1.0  0.97702  0.06513  0.41741  1.0000
  C   C211      1.0  0.48635  0.44942  0.36205  1.0000
  N   N71       1.0  0.48716  0.47569  0.36032  1.0000
  C   C212      1.0  0.48662  0.55689  0.36256  1.0000
  H   H51       1.0  0.47359  0.44091  0.38729  1.0000
  N   N72       1.0  0.48729  0.53061  0.36051  1.0000
  H   H52       1.0  0.47388  0.56549  0.38759  1.0000
  C   C213      1.0  0.03896  0.15461  0.34034  1.0000
  C   C214      1.0  0.07428  0.18680  0.34400  1.0000
  C   C215      1.0  0.05472  0.19802  0.35426  1.0000
  C   C216      1.0  0.03754  0.18175  0.35225  1.0000
  H   H53       1.0  0.02359  0.19007  0.36007  1.0000
  C   C217      1.0  0.09177  0.20292  0.34532  1.0000
  C   C218      1.0  0.12679  0.23566  0.34676  1.0000
  C   C219      1.0  0.10694  0.24580  0.35708  1.0000
  C   C220      1.0  0.08945  0.23007  0.35667  1.0000
  C   C221      1.0  0.06993  0.24092  0.36725  1.0000
  C   C222      1.0  0.05269  0.22501  0.36609  1.0000
  H   H54       1.0  0.10504  0.26524  0.36603  1.0000
  O   O29       1.0  0.06726  0.26671  0.37850  1.0000
  O   O30       1.0  0.03426  0.23626  0.37626  1.0000
  C   C223      1.0  0.96703  0.85066  0.35375  1.0000
  C   C224      1.0  0.93197  0.81809  0.35915  1.0000
  C   C225      1.0  0.95159  0.80718  0.37109  1.0000
  C   C226      1.0  0.96866  0.82365  0.36840  1.0000
  H   H55       1.0  0.98269  0.81560  0.37692  1.0000
  C   C227      1.0  0.91461  0.80174  0.35975  1.0000
  C   C228      1.0  0.87990  0.76853  0.35639  1.0000
  C   C229      1.0  0.89970  0.75868  0.37062  1.0000
  C   C230      1.0  0.91707  0.77466  0.37225  1.0000
  C   C231      1.0  0.93664  0.76412  0.38478  1.0000
  C   C232      1.0  0.95377  0.78025  0.38421  1.0000
  H   H56       1.0  0.90165  0.73924  0.37964  1.0000
  O   O31       1.0  0.93948  0.73838  0.39643  1.0000
  O   O32       1.0  0.97226  0.76927  0.39534  1.0000
  C   C233      1.0  0.94652  0.14529  0.35098  1.0000
  N   N73       1.0  0.93015  0.16144  0.34926  1.0000
  C   C234      1.0  0.87789  0.20970  0.35016  1.0000
  H   H57       1.0  0.94421  0.12620  0.36519  1.0000
  N   N74       1.0  0.89484  0.19456  0.34870  1.0000
  H   H58       1.0  0.86430  0.20125  0.36509  1.0000
  C   C235      1.0  0.05922  0.86079  0.33854  1.0000
  N   N75       1.0  0.07566  0.84472  0.33624  1.0000
  C   C236      1.0  0.12801  0.79630  0.33884  1.0000
  H   H59       1.0  0.06146  0.87978  0.35437  1.0000
  N   N76       1.0  0.11108  0.81151  0.33643  1.0000
  H   H60       1.0  0.14155  0.80465  0.35508  1.0000
  C   C237      1.0  0.53935  0.65537  0.34124  1.0000
  C   C238      1.0  0.57458  0.68769  0.34371  1.0000
  C   C239      1.0  0.55503  0.69884  0.35478  1.0000
  C   C240      1.0  0.53788  0.68249  0.35340  1.0000
  H   H61       1.0  0.52392  0.69074  0.36171  1.0000
  C   C241      1.0  0.59204  0.70387  0.34420  1.0000
  C   C242      1.0  0.62699  0.73667  0.34363  1.0000
  C   C243      1.0  0.60717  0.74679  0.35493  1.0000
  C   C244      1.0  0.58970  0.73101  0.35553  1.0000
  C   C245      1.0  0.57018  0.74179  0.36699  1.0000
  C   C246      1.0  0.55297  0.72583  0.36666  1.0000
  H   H62       1.0  0.60529  0.76624  0.36377  1.0000
  O   O33       1.0  0.56749  0.76758  0.37823  1.0000
  O   O34       1.0  0.53455  0.73701  0.37755  1.0000
  C   C247      1.0  0.46654  0.35088  0.35178  1.0000
  C   C248      1.0  0.43152  0.31824  0.35821  1.0000
  C   C249      1.0  0.45112  0.30746  0.37162  1.0000
  C   C250      1.0  0.46817  0.32397  0.36841  1.0000
  H   H63       1.0  0.48218  0.31599  0.37815  1.0000
  C   C251      1.0  0.41419  0.30182  0.35929  1.0000
  C   C252      1.0  0.37960  0.26841  0.35644  1.0000
  C   C253      1.0  0.39940  0.25875  0.37243  1.0000
  C   C254      1.0  0.41670  0.27483  0.37378  1.0000
  C   C255      1.0  0.43627  0.26444  0.38781  1.0000
  C   C256      1.0  0.45335  0.28063  0.38673  1.0000
  H   H64       1.0  0.40139  0.23938  0.38288  1.0000
  O   O35       1.0  0.43915  0.23878  0.40129  1.0000
  O   O36       1.0  0.47185  0.26978  0.39925  1.0000
  C   C257      1.0  0.44695  0.64543  0.35048  1.0000
  N   N77       1.0  0.43053  0.66152  0.34945  1.0000
  C   C258      1.0  0.37811  0.70978  0.35111  1.0000
  H   H65       1.0  0.44469  0.62630  0.36420  1.0000
  N   N78       1.0  0.39508  0.69465  0.34970  1.0000
  H   H66       1.0  0.36448  0.70130  0.36483  1.0000
  C   C259      1.0  0.55874  0.36079  0.34017  1.0000
  N   N79       1.0  0.57520  0.34478  0.33865  1.0000
  C   C260      1.0  0.62765  0.29690  0.34215  1.0000
  H   H67       1.0  0.56095  0.37988  0.35471  1.0000
  N   N80       1.0  0.61064  0.31192  0.33969  1.0000
  H   H68       1.0  0.64119  0.30549  0.35678  1.0000
  C   C261      1.0  0.37123  0.05727  0.33921  1.0000
  N   N81       1.0  0.36529  0.08248  0.33737  1.0000
  C   C262      1.0  0.34589  0.15975  0.35042  1.0000
  H   H69       1.0  0.36237  0.04422  0.37254  1.0000
  N   N82       1.0  0.35233  0.13488  0.34286  1.0000
  H   H70       1.0  0.33241  0.16320  0.38194  1.0000
  C   C263      1.0  0.63716  0.94787  0.35839  1.0000
  N   N83       1.0  0.64308  0.92263  0.35625  1.0000
  C   C264      1.0  0.66200  0.84481  0.36806  1.0000
  H   H71       1.0  0.64552  0.96072  0.39503  1.0000
  N   N84       1.0  0.65581  0.86983  0.36103  1.0000
  H   H72       1.0  0.67505  0.84096  0.40255  1.0000
  C   C265      1.0  0.61786  0.05112  0.36627  1.0000
  C   C266      1.0  0.63140  0.10325  0.37079  1.0000
  C   C267      1.0  0.61252  0.09674  0.41078  1.0000
  C   C268      1.0  0.60629  0.07068  0.40899  1.0000
  H   H73       1.0  0.59261  0.06603  0.43707  1.0000
  C   C269      1.0  0.63757  0.12950  0.36794  1.0000
  C   C270      1.0  0.64940  0.18211  0.35510  1.0000
  C   C271      1.0  0.63081  0.17514  0.39577  1.0000
  C   C272      1.0  0.62470  0.14907  0.40348  1.0000
  C   C273      1.0  0.60609  0.14226  0.44410  1.0000
  C   C274      1.0  0.60009  0.11623  0.44825  1.0000
  H   H74       1.0  0.62158  0.18932  0.42076  1.0000
  O   O37       1.0  0.59350  0.16046  0.47851  1.0000
  O   O38       1.0  0.58193  0.11055  0.48602  1.0000
  C   C275      1.0  0.38934  0.95558  0.37186  1.0000
  C   C276      1.0  0.37559  0.90363  0.37483  1.0000
  C   C277      1.0  0.39405  0.91008  0.41854  1.0000
  C   C278      1.0  0.40038  0.93611  0.41768  1.0000
  H   H75       1.0  0.41388  0.94073  0.44745  1.0000
  C   C279      1.0  0.36940  0.87745  0.37044  1.0000
  C   C280      1.0  0.35751  0.82499  0.35473  1.0000
  C   C281      1.0  0.37572  0.83178  0.39895  1.0000
  C   C282      1.0  0.38185  0.85779  0.40814  1.0000
  C   C283      1.0  0.40008  0.86449  0.45232  1.0000
  C   C284      1.0  0.40608  0.89050  0.45801  1.0000
  H   H76       1.0  0.38463  0.81751  0.42564  1.0000
  O   O39       1.0  0.41230  0.84619  0.48861  1.0000
  O   O40       1.0  0.42390  0.89608  0.49893  1.0000
  C   C285      1.0  0.87018  0.55743  0.34225  1.0000
  N   N85       1.0  0.86436  0.58271  0.34043  1.0000
  C   C286      1.0  0.84535  0.66026  0.35250  1.0000
  H   H77       1.0  0.86130  0.54445  0.37578  1.0000
  N   N86       1.0  0.85165  0.63532  0.34533  1.0000
  H   H78       1.0  0.83190  0.66390  0.38413  1.0000
  C   C287      1.0  0.13649  0.44690  0.36277  1.0000
  N   N87       1.0  0.14242  0.42166  0.36147  1.0000
  C   C288      1.0  0.16139  0.34389  0.37500  1.0000
  H   H79       1.0  0.14470  0.45981  0.39983  1.0000
  N   N88       1.0  0.15518  0.36888  0.36752  1.0000
  H   H80       1.0  0.17431  0.34006  0.41039  1.0000
  C   C289      1.0  0.11712  0.55015  0.36751  1.0000
  C   C290      1.0  0.13032  0.60235  0.37307  1.0000
  C   C291      1.0  0.11116  0.59579  0.41007  1.0000
  C   C292      1.0  0.10511  0.56968  0.40797  1.0000
  H   H81       1.0  0.09121  0.56498  0.43387  1.0000
  C   C293      1.0  0.13638  0.62861  0.37055  1.0000
  C   C294      1.0  0.14819  0.68113  0.35835  1.0000
  C   C295      1.0  0.12924  0.67428  0.39565  1.0000
  C   C296      1.0  0.12314  0.64820  0.40315  1.0000
  C   C297      1.0  0.10422  0.64136  0.44074  1.0000
  C   C298      1.0  0.09832  0.61528  0.44475  1.0000
  H   H82       1.0  0.11977  0.68853  0.41839  1.0000
  O   O41       1.0  0.09128  0.65956  0.47240  1.0000
  O   O42       1.0  0.07987  0.60956  0.47952  1.0000
  C   C299      1.0  0.88845  0.45519  0.37150  1.0000
  C   C300      1.0  0.87472  0.40327  0.37940  1.0000
  C   C301      1.0  0.89350  0.40990  0.41997  1.0000
  C   C302      1.0  0.89982  0.43592  0.41668  1.0000
  H   H83       1.0  0.91354  0.44066  0.44424  1.0000
  C   C303      1.0  0.86852  0.37705  0.37727  1.0000
  C   C304      1.0  0.85664  0.32452  0.36509  1.0000
  C   C305      1.0  0.87514  0.33148  0.40649  1.0000
  C   C306      1.0  0.88127  0.35755  0.41398  1.0000
  C   C307      1.0  0.89979  0.36445  0.45522  1.0000
  C   C308      1.0  0.90581  0.39049  0.45877  1.0000
  H   H84       1.0  0.88429  0.31729  0.43207  1.0000
  O   O43       1.0  0.91229  0.34631  0.49061  1.0000
  O   O44       1.0  0.92392  0.39626  0.49688  1.0000
  C   C309      1.0  0.46257  0.98967  0.39672  1.0000
  N   N89       1.0  0.48307  0.99032  0.39323  1.0000
  C   C310      1.0  0.54561  0.99080  0.40203  1.0000
  H   H85       1.0  0.45574  0.98143  0.45132  1.0000
  N   N90       1.0  0.52514  0.99096  0.39605  1.0000
  H   H86       1.0  0.55229  0.98272  0.45728  1.0000
  C   C311      1.0  0.96183  0.48223  0.36474  1.0000
  N   N91       1.0  0.98232  0.48316  0.36166  1.0000
  C   C312      1.0  0.04488  0.48237  0.36797  1.0000
  H   H87       1.0  0.95518  0.46801  0.40218  1.0000
  N   N92       1.0  0.02441  0.48316  0.36300  1.0000
  H   H88       1.0  0.05152  0.46800  0.40482  1.0000
  C   C313      1.0  0.19995  0.25707  0.36921  1.0000
  C   C314      1.0  0.24260  0.25200  0.36483  1.0000
  C   C315      1.0  0.23356  0.26723  0.43339  1.0000
  C   C316      1.0  0.21220  0.26978  0.43357  1.0000
  H   H89       1.0  0.20542  0.28148  0.48024  1.0000
  C   C317      1.0  0.26397  0.25012  0.35938  1.0000
  C   C318      1.0  0.30657  0.24525  0.34595  1.0000
  C   C319      1.0  0.29789  0.26067  0.41420  1.0000
  C   C320      1.0  0.27654  0.26310  0.42267  1.0000
  C   C321      1.0  0.26734  0.27753  0.49234  1.0000
  C   C322      1.0  0.24606  0.27968  0.49740  1.0000
  H   H90       1.0  0.30720  0.26917  0.46061  1.0000
  O   O45       1.0  0.27873  0.28957  0.55547  1.0000
  O   O46       1.0  0.23788  0.29381  0.56496  1.0000
  C   C323      1.0  0.80678  0.74651  0.34520  1.0000
  C   C324      1.0  0.76415  0.75096  0.35586  1.0000
  C   C325      1.0  0.77631  0.76093  0.42684  1.0000
  C   C326      1.0  0.79769  0.75874  0.41987  1.0000
  H   H91       1.0  0.80672  0.76499  0.47142  1.0000
  C   C327      1.0  0.74275  0.75269  0.35975  1.0000
  C   C328      1.0  0.70010  0.75748  0.36202  1.0000
  C   C329      1.0  0.71189  0.76733  0.43358  1.0000
  C   C330      1.0  0.73326  0.76475  0.43451  1.0000
  C   C331      1.0  0.74537  0.77416  0.50586  1.0000
  C   C332      1.0  0.76667  0.77215  0.50227  1.0000
  H   H92       1.0  0.70479  0.77693  0.48486  1.0000
  O   O47       1.0  0.73676  0.78512  0.57924  1.0000
  O   O48       1.0  0.77766  0.78115  0.57251  1.0000
  C   C333      1.0  0.79417  0.25974  0.41729  1.0000
  N   N93       1.0  0.77369  0.25780  0.41137  1.0000
  C   C334      1.0  0.71069  0.25245  0.41121  1.0000
  H   H93       1.0  0.80054  0.26310  0.47878  1.0000
  N   N94       1.0  0.73122  0.25420  0.40825  1.0000
  H   H94       1.0  0.70366  0.25254  0.47240  1.0000
  C   C335      1.0  0.21341  0.73186  0.39330  1.0000
  N   N95       1.0  0.23372  0.73513  0.38597  1.0000
  C   C336      1.0  0.29669  0.74154  0.37592  1.0000
  H   H95       1.0  0.20822  0.71860  0.43871  1.0000
  N   N96       1.0  0.27613  0.73974  0.37624  1.0000
  H   H96       1.0  0.30478  0.73086  0.42120  1.0000
