data_image0
_chemical_formula_structural       N8C4HC2H3OC4HC2H3OC4HC2H3OC4HC2H3OC4HC2H3OC4HC2H3OC4HC2H3OC4HC2H3ON8C4HC2H3OC4HC2H3OC4HC2H3OC4HC2H3ON8C4HC2H3OC4HC2H3ON8C4HC2H3OC4HC2H3OC4HC2H3OC4HC2H3OC4HC2H3OC4HC2H3OC4HC2H3OC4HC2H3ON8C6H3C6H3C6H3C6H3C6H3C6H3C6H3C6H3C6H3C6H3C6H3C6H3C6H3C6H3C6H3C6H3C6H3C6H3C6H3C6H3C6H3C6H3C6H3C6H3C6H3C6H3C6H3C6H3C4HC2H3OC4HC2H3OC4HC2H3OC4HC2H3ON16C4HC2H3OC4HC2H3OC4HC2H3OC4HC2H3ON8C4HC2H3OC4HC2H3OC4HC2H3OC4HC2H3ON4C4HC2H3OC4HC2H3OC4HC2H3OC4HC2H3ON16C4HC2H3OC4HC2H3OC4HC2H3OC4HC2H3O
_chemical_formula_sum              "N84 C420 H252 O42"
_cell_length_a       51.9289
_cell_length_b       51.9289
_cell_length_c       14.8562
_cell_angle_alpha    90
_cell_angle_beta     90
_cell_angle_gamma    90

_space_group_name_H-M_alt    "P 1"
_space_group_IT_number       1

loop_
  _space_group_symop_operation_xyz
  'x, y, z'

loop_
  _atom_site_type_symbol
  _atom_site_label
  _atom_site_symmetry_multiplicity
  _atom_site_fract_x
  _atom_site_fract_y
  _atom_site_fract_z
  _atom_site_occupancy
  N   N1        1.0  0.12368  0.14154  0.28891  1.0000
  N   N2        1.0  0.14097  0.15967  0.28536  1.0000
  N   N3        1.0  0.88610  0.87118  0.29672  1.0000
  N   N4        1.0  0.86882  0.85302  0.29521  1.0000
  N   N5        1.0  0.86992  0.12500  0.29063  1.0000
  N   N6        1.0  0.85177  0.14228  0.28734  1.0000
  N   N7        1.0  0.14023  0.88755  0.29532  1.0000
  N   N8        1.0  0.15839  0.87027  0.29364  1.0000
  C   C1        1.0  0.09755  0.97836  0.35273  1.0000
  C   C2        1.0  0.11153  0.99075  0.28389  1.0000
  C   C3        1.0  0.11185  0.01799  0.28000  1.0000
  C   C4        1.0  0.09785  0.03164  0.34691  1.0000
  H   H1        1.0  0.11959  0.98009  0.23315  1.0000
  C   C5        1.0  0.12306  0.03056  0.20737  1.0000
  C   C6        1.0  0.10832  0.03350  0.12524  1.0000
  H   H2        1.0  0.10664  0.01506  0.09027  1.0000
  H   H3        1.0  0.11775  0.04728  0.08054  1.0000
  H   H4        1.0  0.08902  0.04075  0.13978  1.0000
  O   O1        1.0  0.14616  0.02665  0.19779  1.0000
  C   C7        1.0  0.91265  0.03447  0.35357  1.0000
  C   C8        1.0  0.89836  0.02197  0.28571  1.0000
  C   C9        1.0  0.89802  0.99472  0.28239  1.0000
  C   C10       1.0  0.91216  0.98118  0.34919  1.0000
  H   H5        1.0  0.89020  0.03255  0.23496  1.0000
  C   C11       1.0  0.88649  0.98202  0.21068  1.0000
  C   C12       1.0  0.90127  0.97872  0.12860  1.0000
  H   H6        1.0  0.90319  0.99706  0.09309  1.0000
  H   H7        1.0  0.89172  0.96495  0.08419  1.0000
  H   H8        1.0  0.92048  0.97128  0.14337  1.0000
  O   O2        1.0  0.86350  0.98622  0.19976  1.0000
  C   C13       1.0  0.03315  0.09898  0.35219  1.0000
  C   C14       1.0  0.02065  0.11294  0.28351  1.0000
  C   C15       1.0  0.99341  0.11320  0.28000  1.0000
  C   C16       1.0  0.97985  0.09932  0.34745  1.0000
  H   H9        1.0  0.03122  0.12082  0.23219  1.0000
  C   C17       1.0  0.98072  0.12427  0.20733  1.0000
  C   C18       1.0  0.97764  0.10934  0.12564  1.0000
  H   H10       1.0  0.99603  0.10759  0.09036  1.0000
  H   H11       1.0  0.96379  0.11868  0.08098  1.0000
  H   H12       1.0  0.97041  0.09008  0.14083  1.0000
  O   O3        1.0  0.98461  0.14734  0.19707  1.0000
  C   C19       1.0  0.97694  0.91391  0.35414  1.0000
  C   C20       1.0  0.98937  0.89970  0.28597  1.0000
  C   C21       1.0  0.01661  0.89940  0.28218  1.0000
  C   C22       1.0  0.03021  0.91368  0.34849  1.0000
  H   H13       1.0  0.97874  0.89144  0.23556  1.0000
  C   C23       1.0  0.02924  0.88787  0.21029  1.0000
  C   C24       1.0  0.03225  0.90226  0.12740  1.0000
  H   H14       1.0  0.01383  0.90379  0.09220  1.0000
  H   H15       1.0  0.04605  0.89263  0.08334  1.0000
  H   H16       1.0  0.03949  0.92162  0.14098  1.0000
  O   O4        1.0  0.02535  0.86474  0.20191  1.0000
  C   C25       1.0  0.16356  0.30227  0.32981  1.0000
  C   C26       1.0  0.15344  0.28631  0.26181  1.0000
  C   C27       1.0  0.16241  0.26064  0.25280  1.0000
  C   C28       1.0  0.18166  0.25161  0.31363  1.0000
  H   H17       1.0  0.14070  0.29379  0.21610  1.0000
  C   C29       1.0  0.15379  0.24545  0.18173  1.0000
  C   C30       1.0  0.16783  0.24689  0.09753  1.0000
  H   H18       1.0  0.16424  0.26532  0.06425  1.0000
  H   H19       1.0  0.16175  0.23138  0.05263  1.0000
  H   H20       1.0  0.18850  0.24481  0.10883  1.0000
  O   O5        1.0  0.13043  0.24280  0.17579  1.0000
  C   C31       1.0  0.84603  0.71059  0.33448  1.0000
  C   C32       1.0  0.85601  0.72685  0.26714  1.0000
  C   C33       1.0  0.84707  0.75258  0.25992  1.0000
  C   C34       1.0  0.82795  0.76133  0.32171  1.0000
  H   H21       1.0  0.86868  0.71960  0.22077  1.0000
  C   C35       1.0  0.85550  0.76805  0.18943  1.0000
  C   C36       1.0  0.84162  0.76719  0.10492  1.0000
  H   H22       1.0  0.84539  0.74905  0.07000  1.0000
  H   H23       1.0  0.84762  0.78310  0.06163  1.0000
  H   H24       1.0  0.82092  0.76900  0.11617  1.0000
  O   O6        1.0  0.87886  0.77091  0.18388  1.0000
  C   C37       1.0  0.70916  0.16470  0.33090  1.0000
  C   C38       1.0  0.72520  0.15450  0.26332  1.0000
  C   C39       1.0  0.75087  0.16348  0.25449  1.0000
  C   C40       1.0  0.75980  0.18286  0.31502  1.0000
  H   H25       1.0  0.71782  0.14161  0.21794  1.0000
  C   C41       1.0  0.76614  0.15473  0.18400  1.0000
  C   C42       1.0  0.76504  0.16856  0.09927  1.0000
  H   H26       1.0  0.74674  0.16489  0.06522  1.0000
  H   H27       1.0  0.78073  0.16243  0.05524  1.0000
  H   H28       1.0  0.76704  0.18926  0.11013  1.0000
  O   O7        1.0  0.76874  0.13136  0.17751  1.0000
  C   C43       1.0  0.30079  0.84750  0.33518  1.0000
  C   C44       1.0  0.28465  0.85737  0.26724  1.0000
  C   C45       1.0  0.25895  0.84838  0.25942  1.0000
  C   C46       1.0  0.25007  0.82936  0.32141  1.0000
  H   H29       1.0  0.29200  0.86996  0.22080  1.0000
  C   C47       1.0  0.24358  0.85673  0.18842  1.0000
  C   C48       1.0  0.24484  0.84238  0.10485  1.0000
  H   H30       1.0  0.26319  0.84584  0.07090  1.0000
  H   H31       1.0  0.22923  0.84829  0.06008  1.0000
  H   H32       1.0  0.24278  0.82175  0.11715  1.0000
  O   O8        1.0  0.24093  0.88007  0.18145  1.0000
  N   N9        1.0  0.81812  0.26927  0.28396  1.0000
  N   N10       1.0  0.82635  0.29301  0.27885  1.0000
  N   N11       1.0  0.19039  0.74382  0.29054  1.0000
  N   N12       1.0  0.18180  0.72025  0.28469  1.0000
  N   N13       1.0  0.26810  0.19331  0.28205  1.0000
  N   N14       1.0  0.29186  0.18510  0.27712  1.0000
  N   N15       1.0  0.74248  0.82089  0.29210  1.0000
  N   N16       1.0  0.71888  0.82940  0.28620  1.0000
  C   C49       1.0  0.37592  0.10584  0.32966  1.0000
  C   C50       1.0  0.36331  0.08548  0.28376  1.0000
  C   C51       1.0  0.37303  0.05985  0.28489  1.0000
  C   C52       1.0  0.39600  0.05445  0.33382  1.0000
  H   H33       1.0  0.34732  0.08950  0.24597  1.0000
  C   C53       1.0  0.36125  0.04114  0.23210  1.0000
  C   C54       1.0  0.36904  0.03929  0.13861  1.0000
  H   H34       1.0  0.36166  0.05566  0.10019  1.0000
  H   H35       1.0  0.36155  0.02156  0.10894  1.0000
  H   H36       1.0  0.39000  0.03885  0.13270  1.0000
  O   O9        1.0  0.33843  0.03724  0.24781  1.0000
  C   C55       1.0  0.63302  0.90589  0.32648  1.0000
  C   C56       1.0  0.61553  0.91302  0.25819  1.0000
  C   C57       1.0  0.60574  0.93852  0.25269  1.0000
  C   C58       1.0  0.61356  0.95718  0.31802  1.0000
  H   H37       1.0  0.61052  0.89968  0.21055  1.0000
  C   C59       1.0  0.59006  0.94532  0.18052  1.0000
  C   C60       1.0  0.56668  0.93117  0.16047  1.0000
  H   H38       1.0  0.57107  0.91356  0.12325  1.0000
  H   H39       1.0  0.55385  0.94303  0.11963  1.0000
  H   H40       1.0  0.55648  0.92605  0.22223  1.0000
  O   O10       1.0  0.60171  0.95398  0.11557  1.0000
  C   C61       1.0  0.90546  0.37718  0.33004  1.0000
  C   C62       1.0  0.92581  0.36454  0.28418  1.0000
  C   C63       1.0  0.95141  0.37433  0.28473  1.0000
  C   C64       1.0  0.95680  0.39742  0.33300  1.0000
  H   H41       1.0  0.92180  0.34846  0.24688  1.0000
  C   C65       1.0  0.97007  0.36248  0.23214  1.0000
  C   C66       1.0  0.97206  0.37006  0.13840  1.0000
  H   H42       1.0  0.95578  0.36253  0.09988  1.0000
  H   H43       1.0  0.98987  0.36261  0.10923  1.0000
  H   H44       1.0  0.97239  0.39100  0.13194  1.0000
  O   O11       1.0  0.97401  0.33963  0.24721  1.0000
  C   C67       1.0  0.10502  0.63457  0.32541  1.0000
  C   C68       1.0  0.09782  0.61722  0.25681  1.0000
  C   C69       1.0  0.07231  0.60744  0.25138  1.0000
  C   C70       1.0  0.05368  0.61516  0.31697  1.0000
  H   H45       1.0  0.11112  0.61228  0.20892  1.0000
  C   C71       1.0  0.06542  0.59194  0.17877  1.0000
  C   C72       1.0  0.07956  0.56848  0.15938  1.0000
  H   H46       1.0  0.09723  0.57279  0.12238  1.0000
  H   H47       1.0  0.06773  0.55564  0.11845  1.0000
  H   H48       1.0  0.08457  0.55831  0.22131  1.0000
  O   O12       1.0  0.05685  0.60361  0.11381  1.0000
  N   N17       1.0  0.63065  0.06345  0.29519  1.0000
  N   N18       1.0  0.64006  0.08702  0.29279  1.0000
  N   N19       1.0  0.37904  0.94889  0.30281  1.0000
  N   N20       1.0  0.36937  0.92543  0.29991  1.0000
  N   N21       1.0  0.06212  0.38025  0.30121  1.0000
  N   N22       1.0  0.08555  0.37048  0.29839  1.0000
  N   N23       1.0  0.94743  0.63244  0.29597  1.0000
  N   N24       1.0  0.92385  0.64184  0.29380  1.0000
  C   C73       1.0  0.53240  0.00589  0.32664  1.0000
  C   C74       1.0  0.51923  0.98929  0.26702  1.0000
  C   C75       1.0  0.49198  0.98889  0.26387  1.0000
  C   C76       1.0  0.47809  0.00564  0.32221  1.0000
  H   H49       1.0  0.52952  0.97781  0.22410  1.0000
  C   C77       1.0  0.47960  0.97340  0.20082  1.0000
  C   C78       1.0  0.47561  0.98390  0.11152  1.0000
  H   H50       1.0  0.46722  0.00316  0.11522  1.0000
  H   H51       1.0  0.46233  0.97170  0.07365  1.0000
  H   H52       1.0  0.49384  0.98497  0.07494  1.0000
  O   O13       1.0  0.48454  0.95037  0.20481  1.0000
  C   C79       1.0  0.00492  0.53403  0.32452  1.0000
  C   C80       1.0  0.02114  0.52098  0.26338  1.0000
  C   C81       1.0  0.02151  0.49375  0.25976  1.0000
  C   C82       1.0  0.00513  0.47976  0.31905  1.0000
  H   H53       1.0  0.03234  0.53135  0.21978  1.0000
  C   C83       1.0  0.03642  0.48146  0.19497  1.0000
  C   C84       1.0  0.02550  0.47745  0.10642  1.0000
  H   H54       1.0  0.00623  0.46914  0.11137  1.0000
  H   H55       1.0  0.03747  0.46411  0.06807  1.0000
  H   H56       1.0  0.02433  0.49566  0.06977  1.0000
  O   O14       1.0  0.05951  0.48629  0.19733  1.0000
  N   N25       1.0  0.24652  0.38712  0.30285  1.0000
  N   N26       1.0  0.22313  0.37799  0.29715  1.0000
  N   N27       1.0  0.76384  0.62512  0.30518  1.0000
  N   N28       1.0  0.78720  0.63434  0.29983  1.0000
  N   N29       1.0  0.62397  0.24708  0.30656  1.0000
  N   N30       1.0  0.63306  0.22368  0.30061  1.0000
  N   N31       1.0  0.38593  0.76496  0.30348  1.0000
  N   N32       1.0  0.37674  0.78835  0.29861  1.0000
  C   C85       1.0  0.80831  0.38870  0.33984  1.0000
  C   C86       1.0  0.80235  0.40830  0.27755  1.0000
  C   C87       1.0  0.77680  0.41805  0.27127  1.0000
  C   C88       1.0  0.75731  0.40766  0.32860  1.0000
  H   H57       1.0  0.81615  0.41418  0.23278  1.0000
  C   C89       1.0  0.77074  0.43569  0.20419  1.0000
  C   C90       1.0  0.76361  0.42615  0.11604  1.0000
  H   H58       1.0  0.78048  0.41855  0.08098  1.0000
  H   H59       1.0  0.75531  0.44166  0.07574  1.0000
  H   H60       1.0  0.74921  0.41091  0.12160  1.0000
  O   O15       1.0  0.78320  0.45572  0.20540  1.0000
  C   C91       1.0  0.20211  0.62506  0.32941  1.0000
  C   C92       1.0  0.20763  0.60485  0.26898  1.0000
  C   C93       1.0  0.23301  0.59464  0.26285  1.0000
  C   C94       1.0  0.25283  0.60512  0.31861  1.0000
  H   H61       1.0  0.19354  0.59861  0.22596  1.0000
  C   C95       1.0  0.23858  0.57632  0.19753  1.0000
  C   C96       1.0  0.24561  0.58496  0.10816  1.0000
  H   H62       1.0  0.22875  0.59252  0.07288  1.0000
  H   H63       1.0  0.25354  0.56897  0.06924  1.0000
  H   H64       1.0  0.26026  0.60001  0.11157  1.0000
  O   O16       1.0  0.22582  0.55651  0.20132  1.0000
  C   C97       1.0  0.38756  0.20299  0.33864  1.0000
  C   C98       1.0  0.40734  0.20884  0.27692  1.0000
  C   C99       1.0  0.41716  0.23437  0.27060  1.0000
  C   C100      1.0  0.40671  0.25393  0.32752  1.0000
  H   H65       1.0  0.41330  0.19499  0.23250  1.0000
  C   C101      1.0  0.43503  0.24031  0.20401  1.0000
  C   C102      1.0  0.42531  0.24736  0.11593  1.0000
  H   H66       1.0  0.41747  0.23049  0.08146  1.0000
  H   H67       1.0  0.44081  0.25541  0.07498  1.0000
  H   H68       1.0  0.41023  0.26193  0.12147  1.0000
  O   O17       1.0  0.45493  0.22768  0.20521  1.0000
  C   C103      1.0  0.62374  0.80881  0.33044  1.0000
  C   C104      1.0  0.60362  0.80324  0.26969  1.0000
  C   C105      1.0  0.59349  0.77783  0.26342  1.0000
  C   C106      1.0  0.60394  0.75806  0.31949  1.0000
  H   H69       1.0  0.59748  0.81728  0.22631  1.0000
  C   C107      1.0  0.57532  0.77217  0.19770  1.0000
  C   C108      1.0  0.58415  0.76503  0.10867  1.0000
  H   H70       1.0  0.59178  0.78184  0.07332  1.0000
  H   H71       1.0  0.56824  0.75705  0.06948  1.0000
  H   H72       1.0  0.59918  0.75038  0.11271  1.0000
  O   O18       1.0  0.55549  0.78493  0.20079  1.0000
  C   C109      1.0  0.31427  0.47866  0.34480  1.0000
  C   C110      1.0  0.33363  0.49165  0.29565  1.0000
  C   C111      1.0  0.33409  0.51905  0.29125  1.0000
  C   C112      1.0  0.31488  0.53334  0.33830  1.0000
  H   H73       1.0  0.34648  0.48114  0.25851  1.0000
  C   C113      1.0  0.35164  0.53120  0.23507  1.0000
  C   C114      1.0  0.34491  0.53418  0.14087  1.0000
  H   H74       1.0  0.34589  0.51565  0.10611  1.0000
  H   H75       1.0  0.35819  0.54755  0.10820  1.0000
  H   H76       1.0  0.32548  0.54197  0.13375  1.0000
  O   O19       1.0  0.37441  0.52680  0.24999  1.0000
  C   C115      1.0  0.69588  0.53362  0.34867  1.0000
  C   C116      1.0  0.67661  0.52053  0.29937  1.0000
  C   C117      1.0  0.67600  0.49311  0.29637  1.0000
  C   C118      1.0  0.69496  0.47895  0.34507  1.0000
  H   H77       1.0  0.66398  0.53093  0.26097  1.0000
  C   C119      1.0  0.65862  0.48077  0.23988  1.0000
  C   C120      1.0  0.66578  0.47762  0.14621  1.0000
  H   H78       1.0  0.66506  0.49609  0.11102  1.0000
  H   H79       1.0  0.65257  0.46427  0.11313  1.0000
  H   H80       1.0  0.68520  0.46971  0.14032  1.0000
  O   O20       1.0  0.63587  0.48525  0.25476  1.0000
  C   C121      1.0  0.53279  0.31519  0.35011  1.0000
  C   C122      1.0  0.51982  0.33437  0.30001  1.0000
  C   C123      1.0  0.49241  0.33503  0.29649  1.0000
  C   C124      1.0  0.47814  0.31615  0.34515  1.0000
  H   H81       1.0  0.53032  0.34696  0.26178  1.0000
  C   C125      1.0  0.48022  0.35228  0.23929  1.0000
  C   C126      1.0  0.47706  0.34535  0.14550  1.0000
  H   H82       1.0  0.49552  0.34627  0.11030  1.0000
  H   H83       1.0  0.46361  0.35855  0.11283  1.0000
  H   H84       1.0  0.46929  0.32589  0.13918  1.0000
  O   O21       1.0  0.48456  0.37505  0.25456  1.0000
  C   C127      1.0  0.47747  0.69699  0.34429  1.0000
  C   C128      1.0  0.49045  0.67755  0.29545  1.0000
  C   C129      1.0  0.51786  0.67695  0.29163  1.0000
  C   C130      1.0  0.53215  0.69610  0.33897  1.0000
  H   H85       1.0  0.47996  0.66474  0.25811  1.0000
  C   C131      1.0  0.53002  0.65934  0.23572  1.0000
  C   C132      1.0  0.53309  0.66599  0.14150  1.0000
  H   H86       1.0  0.51459  0.66504  0.10654  1.0000
  H   H87       1.0  0.54647  0.65266  0.10909  1.0000
  H   H88       1.0  0.54093  0.68540  0.13429  1.0000
  O   O22       1.0  0.52554  0.63660  0.25080  1.0000
  N   N33       1.0  0.34553  0.36473  0.30885  1.0000
  N   N34       1.0  0.36313  0.34652  0.30642  1.0000
  N   N35       1.0  0.66486  0.64734  0.30728  1.0000
  N   N36       1.0  0.64723  0.66549  0.30345  1.0000
  N   N37       1.0  0.64667  0.34613  0.31213  1.0000
  N   N38       1.0  0.66484  0.36378  0.30915  1.0000
  N   N39       1.0  0.36367  0.66594  0.30499  1.0000
  N   N40       1.0  0.34548  0.64834  0.30152  1.0000
  C   C133      1.0  0.09201  0.05813  0.34431  1.0000
  C   C134      1.0  0.06606  0.06600  0.34756  1.0000
  C   C135      1.0  0.05931  0.09230  0.34767  1.0000
  C   C136      1.0  0.07888  0.11101  0.34469  1.0000
  C   C137      1.0  0.10498  0.10339  0.34433  1.0000
  C   C138      1.0  0.11141  0.07698  0.34158  1.0000
  H   H89       1.0  0.07411  0.13014  0.34777  1.0000
  H   H90       1.0  0.13032  0.07139  0.34045  1.0000
  H   H91       1.0  0.05181  0.05232  0.34817  1.0000
  C   C139      1.0  0.91801  0.95469  0.34690  1.0000
  C   C140      1.0  0.94399  0.94686  0.34898  1.0000
  C   C141      1.0  0.95077  0.92057  0.34995  1.0000
  C   C142      1.0  0.93122  0.90183  0.34868  1.0000
  C   C143      1.0  0.90512  0.90944  0.34954  1.0000
  C   C144      1.0  0.89863  0.93582  0.34609  1.0000
  H   H92       1.0  0.93602  0.88273  0.35276  1.0000
  H   H93       1.0  0.87970  0.94139  0.34601  1.0000
  H   H94       1.0  0.95822  0.96056  0.34842  1.0000
  C   C145      1.0  0.95337  0.09344  0.34525  1.0000
  C   C146      1.0  0.94556  0.06746  0.34855  1.0000
  C   C147      1.0  0.91927  0.06065  0.34888  1.0000
  C   C148      1.0  0.90052  0.08018  0.34597  1.0000
  C   C149      1.0  0.90809  0.10630  0.34577  1.0000
  C   C150      1.0  0.93448  0.11279  0.34281  1.0000
  H   H95       1.0  0.88141  0.07538  0.34951  1.0000
  H   H96       1.0  0.94003  0.13172  0.34173  1.0000
  H   H97       1.0  0.95928  0.05325  0.34894  1.0000
  C   C151      1.0  0.05671  0.91949  0.34587  1.0000
  C   C152      1.0  0.06457  0.94546  0.34805  1.0000
  C   C153      1.0  0.09087  0.95220  0.34875  1.0000
  C   C154      1.0  0.10958  0.93263  0.34739  1.0000
  C   C155      1.0  0.10195  0.90654  0.34820  1.0000
  C   C156      1.0  0.07556  0.90008  0.34491  1.0000
  H   H98       1.0  0.12870  0.93742  0.35116  1.0000
  H   H99       1.0  0.06996  0.88117  0.34474  1.0000
  H   H100      1.0  0.05088  0.95971  0.34758  1.0000
  C   C157      1.0  0.17975  0.17998  0.33364  1.0000
  C   C158      1.0  0.20610  0.17388  0.33658  1.0000
  C   C159      1.0  0.22513  0.19321  0.33780  1.0000
  C   C160      1.0  0.21716  0.21921  0.32755  1.0000
  C   C161      1.0  0.19068  0.22574  0.31904  1.0000
  C   C162      1.0  0.17223  0.20584  0.32456  1.0000
  H   H101      1.0  0.23075  0.23349  0.32693  1.0000
  H   H102      1.0  0.15299  0.21024  0.32550  1.0000
  H   H103      1.0  0.21146  0.15489  0.33873  1.0000
  C   C163      1.0  0.83037  0.83284  0.34684  1.0000
  C   C164      1.0  0.80407  0.83909  0.35139  1.0000
  C   C165      1.0  0.78493  0.81988  0.35120  1.0000
  C   C166      1.0  0.79270  0.79389  0.33880  1.0000
  C   C167      1.0  0.81912  0.78723  0.32938  1.0000
  C   C168      1.0  0.83770  0.80698  0.33567  1.0000
  H   H104      1.0  0.77901  0.77972  0.33697  1.0000
  H   H105      1.0  0.85692  0.80248  0.33533  1.0000
  H   H106      1.0  0.79882  0.85809  0.35479  1.0000
  C   C169      1.0  0.83142  0.18098  0.33608  1.0000
  C   C170      1.0  0.83750  0.20733  0.33915  1.0000
  C   C171      1.0  0.81816  0.22634  0.34000  1.0000
  C   C172      1.0  0.79218  0.21836  0.32942  1.0000
  C   C173      1.0  0.78566  0.19187  0.32088  1.0000
  C   C174      1.0  0.80557  0.17344  0.32669  1.0000
  H   H107      1.0  0.77790  0.23194  0.32852  1.0000
  H   H108      1.0  0.80119  0.15420  0.32757  1.0000
  H   H109      1.0  0.85649  0.21269  0.34149  1.0000
  C   C175      1.0  0.17852  0.83174  0.34488  1.0000
  C   C176      1.0  0.17227  0.80544  0.34926  1.0000
  C   C177      1.0  0.19148  0.78630  0.34942  1.0000
  C   C178      1.0  0.21749  0.79407  0.33766  1.0000
  C   C179      1.0  0.22417  0.82050  0.32837  1.0000
  C   C180      1.0  0.20439  0.83908  0.33424  1.0000
  H   H110      1.0  0.23167  0.78039  0.33623  1.0000
  H   H111      1.0  0.20890  0.85829  0.33395  1.0000
  H   H112      1.0  0.15326  0.80018  0.35241  1.0000
  C   C181      1.0  0.45058  0.00592  0.33119  1.0000
  C   C182      1.0  0.43680  0.98262  0.34125  1.0000
  C   C183      1.0  0.40971  0.98159  0.35086  1.0000
  C   C184      1.0  0.39624  0.00545  0.34711  1.0000
  C   C185      1.0  0.40908  0.02971  0.33807  1.0000
  C   C186      1.0  0.43639  0.02917  0.33215  1.0000
  H   H113      1.0  0.37670  0.00513  0.35511  1.0000
  H   H114      1.0  0.44625  0.04608  0.32371  1.0000
  H   H115      1.0  0.44694  0.96575  0.34216  1.0000
  C   C187      1.0  0.55991  0.00615  0.33327  1.0000
  C   C188      1.0  0.57383  0.02936  0.34181  1.0000
  C   C189      1.0  0.60113  0.03010  0.34678  1.0000
  C   C190      1.0  0.61459  0.00620  0.33813  1.0000
  C   C191      1.0  0.60142  0.98221  0.32830  1.0000
  C   C192      1.0  0.57415  0.98298  0.32996  1.0000
  H   H116      1.0  0.63428  0.00627  0.33912  1.0000
  H   H117      1.0  0.56418  0.96599  0.32897  1.0000
  H   H118      1.0  0.56371  0.04628  0.34229  1.0000
  C   C193      1.0  0.00502  0.45225  0.32785  1.0000
  C   C194      1.0  0.02843  0.43861  0.33672  1.0000
  C   C195      1.0  0.02966  0.41154  0.34710  1.0000
  C   C196      1.0  0.00585  0.39795  0.34466  1.0000
  C   C197      1.0  0.98149  0.41064  0.33631  1.0000
  C   C198      1.0  0.98185  0.43795  0.33008  1.0000
  H   H119      1.0  0.00630  0.37843  0.35326  1.0000
  H   H120      1.0  0.96486  0.44771  0.32235  1.0000
  H   H121      1.0  0.04524  0.44887  0.33650  1.0000
  C   C199      1.0  0.00471  0.56151  0.33161  1.0000
  C   C200      1.0  0.98150  0.57541  0.34054  1.0000
  C   C201      1.0  0.98076  0.60269  0.34622  1.0000
  C   C202      1.0  0.00465  0.61616  0.33763  1.0000
  C   C203      1.0  0.02865  0.60302  0.32725  1.0000
  C   C204      1.0  0.02787  0.57574  0.32830  1.0000
  H   H122      1.0  0.00459  0.63584  0.33904  1.0000
  H   H123      1.0  0.04485  0.56575  0.32685  1.0000
  H   H124      1.0  0.96460  0.56527  0.34066  1.0000
  C   C205      1.0  0.27977  0.41474  0.35739  1.0000
  C   C206      1.0  0.30094  0.39742  0.35489  1.0000
  C   C207      1.0  0.32695  0.40597  0.35053  1.0000
  C   C208      1.0  0.33100  0.43305  0.34412  1.0000
  C   C209      1.0  0.31056  0.45120  0.34679  1.0000
  C   C210      1.0  0.28521  0.44135  0.35238  1.0000
  H   H125      1.0  0.34936  0.43985  0.33788  1.0000
  H   H126      1.0  0.27008  0.45395  0.34915  1.0000
  H   H127      1.0  0.29729  0.37810  0.35979  1.0000
  C   C211      1.0  0.73054  0.59749  0.35957  1.0000
  C   C212      1.0  0.70938  0.61482  0.35592  1.0000
  C   C213      1.0  0.68336  0.60628  0.35118  1.0000
  C   C214      1.0  0.67929  0.57921  0.34560  1.0000
  C   C215      1.0  0.69970  0.56106  0.34957  1.0000
  C   C216      1.0  0.72506  0.57087  0.35551  1.0000
  H   H128      1.0  0.66095  0.57241  0.33901  1.0000
  H   H129      1.0  0.74016  0.55822  0.35316  1.0000
  H   H130      1.0  0.71303  0.63415  0.36008  1.0000
  C   C217      1.0  0.59656  0.28040  0.36182  1.0000
  C   C218      1.0  0.61394  0.30153  0.35885  1.0000
  C   C219      1.0  0.60547  0.32757  0.35444  1.0000
  C   C220      1.0  0.57841  0.33170  0.34827  1.0000
  C   C221      1.0  0.56021  0.31132  0.35155  1.0000
  C   C222      1.0  0.56996  0.28593  0.35736  1.0000
  H   H131      1.0  0.57165  0.35006  0.34181  1.0000
  H   H132      1.0  0.55728  0.27086  0.35457  1.0000
  H   H133      1.0  0.63326  0.29782  0.36333  1.0000
  C   C223      1.0  0.41357  0.73157  0.35699  1.0000
  C   C224      1.0  0.39623  0.71042  0.35357  1.0000
  C   C225      1.0  0.40476  0.68442  0.34851  1.0000
  C   C226      1.0  0.43184  0.68035  0.34245  1.0000
  C   C227      1.0  0.45001  0.70076  0.34601  1.0000
  C   C228      1.0  0.44018  0.72611  0.35223  1.0000
  H   H134      1.0  0.43861  0.66199  0.33580  1.0000
  H   H135      1.0  0.45280  0.74124  0.34976  1.0000
  H   H136      1.0  0.37690  0.71408  0.35821  1.0000
  C   C229      1.0  0.73081  0.41569  0.33232  1.0000
  C   C230      1.0  0.71005  0.39789  0.33660  1.0000
  C   C231      1.0  0.68393  0.40586  0.34433  1.0000
  C   C232      1.0  0.67921  0.43288  0.34668  1.0000
  C   C233      1.0  0.69922  0.45149  0.34273  1.0000
  C   C234      1.0  0.72479  0.44218  0.33710  1.0000
  H   H137      1.0  0.66069  0.43928  0.35218  1.0000
  H   H138      1.0  0.73962  0.45516  0.33671  1.0000
  H   H139      1.0  0.71417  0.37862  0.33500  1.0000
  C   C235      1.0  0.27925  0.59678  0.32270  1.0000
  C   C236      1.0  0.30013  0.61443  0.32726  1.0000
  C   C237      1.0  0.32618  0.60635  0.33619  1.0000
  C   C238      1.0  0.33073  0.57932  0.33929  1.0000
  C   C239      1.0  0.31065  0.56081  0.33492  1.0000
  C   C240      1.0  0.28513  0.57025  0.32829  1.0000
  H   H140      1.0  0.34920  0.57284  0.34577  1.0000
  H   H141      1.0  0.27025  0.55734  0.32804  1.0000
  H   H142      1.0  0.29615  0.63373  0.32517  1.0000
  C   C241      1.0  0.41482  0.28042  0.33123  1.0000
  C   C242      1.0  0.39707  0.30123  0.33491  1.0000
  C   C243      1.0  0.40508  0.32734  0.34266  1.0000
  C   C244      1.0  0.43211  0.33198  0.34556  1.0000
  C   C245      1.0  0.45067  0.31193  0.34220  1.0000
  C   C246      1.0  0.44131  0.28637  0.33657  1.0000
  H   H143      1.0  0.43855  0.35049  0.35107  1.0000
  H   H144      1.0  0.45426  0.27151  0.33662  1.0000
  H   H145      1.0  0.37779  0.29717  0.33293  1.0000
  C   C247      1.0  0.59561  0.73165  0.32368  1.0000
  C   C248      1.0  0.61326  0.71078  0.32846  1.0000
  C   C249      1.0  0.60517  0.68474  0.33747  1.0000
  C   C250      1.0  0.57813  0.68019  0.34038  1.0000
  C   C251      1.0  0.55963  0.70028  0.33580  1.0000
  C   C252      1.0  0.56908  0.72579  0.32907  1.0000
  H   H146      1.0  0.57164  0.66173  0.34688  1.0000
  H   H147      1.0  0.55618  0.74068  0.32858  1.0000
  H   H148      1.0  0.63256  0.71477  0.32658  1.0000
  C   C253      1.0  0.15904  0.32926  0.33373  1.0000
  C   C254      1.0  0.18082  0.34537  0.33764  1.0000
  C   C255      1.0  0.17901  0.37239  0.34398  1.0000
  C   C256      1.0  0.15389  0.38319  0.34983  1.0000
  C   C257      1.0  0.13111  0.36784  0.34375  1.0000
  C   C258      1.0  0.13431  0.34081  0.33347  1.0000
  H   H149      1.0  0.15221  0.40276  0.35478  1.0000
  H   H150      1.0  0.11842  0.32916  0.33141  1.0000
  H   H151      1.0  0.19872  0.33703  0.33621  1.0000
  C   C259      1.0  0.85074  0.68362  0.33744  1.0000
  C   C260      1.0  0.82913  0.66728  0.34171  1.0000
  C   C261      1.0  0.83121  0.64026  0.34749  1.0000
  C   C262      1.0  0.85646  0.62971  0.35283  1.0000
  C   C263      1.0  0.87903  0.64532  0.34586  1.0000
  C   C264      1.0  0.87557  0.67231  0.33603  1.0000
  H   H152      1.0  0.85842  0.61016  0.35796  1.0000
  H   H153      1.0  0.89135  0.68410  0.33364  1.0000
  H   H154      1.0  0.81115  0.67547  0.34091  1.0000
  C   C265      1.0  0.68220  0.15998  0.33525  1.0000
  C   C266      1.0  0.66590  0.18161  0.34035  1.0000
  C   C267      1.0  0.63890  0.17958  0.34737  1.0000
  C   C268      1.0  0.62833  0.15435  0.35307  1.0000
  C   C269      1.0  0.64388  0.13175  0.34529  1.0000
  C   C270      1.0  0.67084  0.13517  0.33425  1.0000
  H   H155      1.0  0.60880  0.15241  0.35907  1.0000
  H   H156      1.0  0.68259  0.11937  0.33121  1.0000
  H   H157      1.0  0.67411  0.19957  0.33920  1.0000
  C   C271      1.0  0.32777  0.85210  0.33819  1.0000
  C   C272      1.0  0.34397  0.83038  0.34149  1.0000
  C   C273      1.0  0.37100  0.83230  0.34723  1.0000
  C   C274      1.0  0.38172  0.85745  0.35329  1.0000
  C   C275      1.0  0.36625  0.88016  0.34764  1.0000
  C   C276      1.0  0.33922  0.87688  0.33790  1.0000
  H   H158      1.0  0.40128  0.85924  0.35812  1.0000
  H   H159      1.0  0.32752  0.89273  0.33614  1.0000
  H   H160      1.0  0.33569  0.81245  0.34005  1.0000
  C   C277      1.0  0.84959  0.32994  0.33278  1.0000
  C   C278      1.0  0.82852  0.34690  0.33380  1.0000
  C   C279      1.0  0.83160  0.37388  0.33706  1.0000
  C   C280      1.0  0.85718  0.38384  0.33483  1.0000
  C   C281      1.0  0.87929  0.36745  0.33256  1.0000
  C   C282      1.0  0.87471  0.34043  0.33413  1.0000
  H   H161      1.0  0.85969  0.40337  0.33518  1.0000
  H   H162      1.0  0.88991  0.32791  0.33585  1.0000
  H   H163      1.0  0.81031  0.33922  0.33364  1.0000
  C   C283      1.0  0.15933  0.68304  0.33897  1.0000
  C   C284      1.0  0.18083  0.66657  0.33496  1.0000
  C   C285      1.0  0.17853  0.63954  0.33034  1.0000
  C   C286      1.0  0.15319  0.62918  0.32507  1.0000
  C   C287      1.0  0.13073  0.64499  0.33150  1.0000
  C   C288      1.0  0.13441  0.67197  0.34083  1.0000
  H   H164      1.0  0.15107  0.60964  0.32058  1.0000
  H   H165      1.0  0.11872  0.68390  0.34309  1.0000
  H   H166      1.0  0.19885  0.67467  0.33551  1.0000
  C   C289      1.0  0.32874  0.16178  0.33116  1.0000
  C   C290      1.0  0.34574  0.18282  0.33220  1.0000
  C   C291      1.0  0.37271  0.17972  0.33583  1.0000
  C   C292      1.0  0.38264  0.15412  0.33398  1.0000
  C   C293      1.0  0.36623  0.13203  0.33171  1.0000
  C   C294      1.0  0.33921  0.13665  0.33288  1.0000
  H   H167      1.0  0.40217  0.15159  0.33467  1.0000
  H   H168      1.0  0.32667  0.12146  0.33459  1.0000
  H   H169      1.0  0.33808  0.20104  0.33179  1.0000
  C   C295      1.0  0.68160  0.85172  0.34030  1.0000
  C   C296      1.0  0.66520  0.83017  0.33625  1.0000
  C   C297      1.0  0.63817  0.83241  0.33145  1.0000
  C   C298      1.0  0.62774  0.85772  0.32614  1.0000
  C   C299      1.0  0.64350  0.88021  0.33256  1.0000
  C   C300      1.0  0.67047  0.87661  0.34202  1.0000
  H   H170      1.0  0.60820  0.85978  0.32153  1.0000
  H   H171      1.0  0.68237  0.89232  0.34441  1.0000
  H   H172      1.0  0.67334  0.81217  0.33691  1.0000
  C   C301      1.0  0.16130  0.16040  0.34249  1.0000
  C   C302      1.0  0.16332  0.14125  0.40938  1.0000
  C   C303      1.0  0.14472  0.12155  0.41418  1.0000
  C   C304      1.0  0.12451  0.12204  0.34975  1.0000
  H   H173      1.0  0.17798  0.14193  0.45552  1.0000
  C   C305      1.0  0.14575  0.10345  0.48322  1.0000
  C   C306      1.0  0.13345  0.10994  0.56780  1.0000
  H   H174      1.0  0.14454  0.12464  0.60343  1.0000
  H   H175      1.0  0.13207  0.09287  0.61050  1.0000
  H   H176      1.0  0.11395  0.11713  0.55659  1.0000
  O   O23       1.0  0.16571  0.09098  0.48833  1.0000
  C   C307      1.0  0.84896  0.85232  0.35433  1.0000
  C   C308      1.0  0.84738  0.87161  0.42090  1.0000
  C   C309      1.0  0.86595  0.89137  0.42337  1.0000
  C   C310      1.0  0.88567  0.89078  0.35717  1.0000
  H   H177      1.0  0.83305  0.87101  0.46828  1.0000
  C   C311      1.0  0.86540  0.90959  0.49197  1.0000
  C   C312      1.0  0.87804  0.90362  0.57633  1.0000
  H   H178      1.0  0.86700  0.88926  0.61378  1.0000
  H   H179      1.0  0.87977  0.92097  0.61746  1.0000
  H   H180      1.0  0.89741  0.89618  0.56451  1.0000
  O   O24       1.0  0.84556  0.92225  0.49741  1.0000
  C   C313      1.0  0.85100  0.16253  0.34480  1.0000
  C   C314      1.0  0.87014  0.16449  0.41177  1.0000
  C   C315      1.0  0.88985  0.14590  0.41630  1.0000
  C   C316      1.0  0.88940  0.12578  0.35154  1.0000
  H   H181      1.0  0.86945  0.17910  0.45808  1.0000
  C   C317      1.0  0.90794  0.14687  0.48526  1.0000
  C   C318      1.0  0.90173  0.13426  0.56963  1.0000
  H   H182      1.0  0.88705  0.14517  0.60610  1.0000
  H   H183      1.0  0.91890  0.13280  0.61181  1.0000
  H   H184      1.0  0.89459  0.11477  0.55783  1.0000
  O   O25       1.0  0.92026  0.16688  0.49214  1.0000
  C   C319      1.0  0.15904  0.85032  0.35243  1.0000
  C   C320      1.0  0.13972  0.84868  0.41887  1.0000
  C   C321      1.0  0.11997  0.86726  0.42159  1.0000
  C   C322      1.0  0.12059  0.88706  0.35564  1.0000
  H   H185      1.0  0.14028  0.83429  0.46604  1.0000
  C   C323      1.0  0.10167  0.86661  0.49004  1.0000
  C   C324      1.0  0.10797  0.87929  0.57411  1.0000
  H   H186      1.0  0.12255  0.86833  0.61085  1.0000
  H   H187      1.0  0.09079  0.88090  0.61616  1.0000
  H   H188      1.0  0.11523  0.89872  0.56203  1.0000
  O   O26       1.0  0.08916  0.84670  0.49588  1.0000
  N   N41       1.0  0.08557  0.01802  0.41197  1.0000
  N   N42       1.0  0.08529  0.99305  0.41468  1.0000
  N   N43       1.0  0.92467  0.99490  0.41346  1.0000
  N   N44       1.0  0.92502  0.01987  0.41547  1.0000
  N   N45       1.0  0.99357  0.08713  0.41247  1.0000
  N   N46       1.0  0.01854  0.08684  0.41466  1.0000
  N   N47       1.0  0.01658  0.92614  0.41306  1.0000
  N   N48       1.0  0.99161  0.92639  0.41564  1.0000
  N   N49       1.0  0.19022  0.26825  0.37738  1.0000
  N   N50       1.0  0.18199  0.29191  0.38400  1.0000
  N   N51       1.0  0.81949  0.74439  0.38465  1.0000
  N   N52       1.0  0.82771  0.72069  0.38968  1.0000
  N   N53       1.0  0.74308  0.19148  0.37840  1.0000
  N   N54       1.0  0.71943  0.18322  0.38489  1.0000
  N   N55       1.0  0.26690  0.82098  0.38485  1.0000
  N   N56       1.0  0.29058  0.82922  0.39033  1.0000
  C   C325      1.0  0.84432  0.30313  0.33535  1.0000
  C   C326      1.0  0.85345  0.28721  0.40508  1.0000
  C   C327      1.0  0.84439  0.26158  0.41265  1.0000
  C   C328      1.0  0.82605  0.25252  0.34845  1.0000
  H   H189      1.0  0.86575  0.29460  0.45243  1.0000
  C   C329      1.0  0.85214  0.24651  0.48524  1.0000
  C   C330      1.0  0.83748  0.24782  0.56802  1.0000
  H   H190      1.0  0.84098  0.26612  0.60224  1.0000
  H   H191      1.0  0.84303  0.23212  0.61293  1.0000
  H   H192      1.0  0.81690  0.24600  0.55448  1.0000
  O   O27       1.0  0.87543  0.24360  0.49365  1.0000
  C   C331      1.0  0.16430  0.70990  0.34254  1.0000
  C   C332      1.0  0.15594  0.72551  0.41427  1.0000
  C   C333      1.0  0.16538  0.75100  0.42259  1.0000
  C   C334      1.0  0.18335  0.76019  0.35732  1.0000
  H   H193      1.0  0.14405  0.71793  0.46249  1.0000
  C   C335      1.0  0.15830  0.76590  0.49638  1.0000
  C   C336      1.0  0.17389  0.76419  0.57712  1.0000
  H   H194      1.0  0.17080  0.74573  0.61075  1.0000
  H   H195      1.0  0.16886  0.77967  0.62371  1.0000
  H   H196      1.0  0.19432  0.76611  0.56096  1.0000
  O   O28       1.0  0.13516  0.76866  0.50916  1.0000
  C   C337      1.0  0.30194  0.16709  0.33352  1.0000
  C   C338      1.0  0.28594  0.15783  0.40285  1.0000
  C   C339      1.0  0.26032  0.16690  0.41034  1.0000
  C   C340      1.0  0.25130  0.18527  0.34620  1.0000
  H   H197      1.0  0.29332  0.14553  0.45024  1.0000
  C   C341      1.0  0.24520  0.15909  0.48272  1.0000
  C   C342      1.0  0.24649  0.17366  0.56569  1.0000
  H   H198      1.0  0.26476  0.17010  0.60000  1.0000
  H   H199      1.0  0.23075  0.16808  0.61044  1.0000
  H   H200      1.0  0.24469  0.19426  0.55241  1.0000
  O   O29       1.0  0.24226  0.13579  0.49082  1.0000
  C   C343      1.0  0.70847  0.84684  0.34410  1.0000
  C   C344      1.0  0.72402  0.85522  0.41596  1.0000
  C   C345      1.0  0.74955  0.84590  0.42422  1.0000
  C   C346      1.0  0.75882  0.82798  0.35893  1.0000
  H   H201      1.0  0.71640  0.86710  0.46415  1.0000
  C   C347      1.0  0.76439  0.85298  0.49818  1.0000
  C   C348      1.0  0.76272  0.83766  0.57940  1.0000
  H   H202      1.0  0.74431  0.84094  0.61313  1.0000
  H   H203      1.0  0.77828  0.84278  0.62556  1.0000
  H   H204      1.0  0.76453  0.81718  0.56390  1.0000
  O   O30       1.0  0.76738  0.87618  0.50901  1.0000
  N   N57       1.0  0.40713  0.07533  0.37435  1.0000
  N   N58       1.0  0.39800  0.09897  0.37284  1.0000
  N   N59       1.0  0.63096  0.94885  0.38035  1.0000
  N   N60       1.0  0.64020  0.92520  0.38358  1.0000
  N   N61       1.0  0.93593  0.40857  0.37353  1.0000
  N   N62       1.0  0.91232  0.39937  0.37258  1.0000
  N   N63       1.0  0.06211  0.63243  0.37964  1.0000
  N   N64       1.0  0.08576  0.64165  0.38288  1.0000
  C   C349      1.0  0.63319  0.10615  0.35106  1.0000
  C   C350      1.0  0.61574  0.09891  0.41940  1.0000
  C   C351      1.0  0.60573  0.07348  0.42383  1.0000
  C   C352      1.0  0.61332  0.05502  0.35764  1.0000
  H   H205      1.0  0.61086  0.11211  0.46769  1.0000
  C   C353      1.0  0.59017  0.06635  0.49585  1.0000
  C   C354      1.0  0.56680  0.08037  0.51698  1.0000
  H   H206      1.0  0.57120  0.09765  0.55605  1.0000
  H   H207      1.0  0.55391  0.06818  0.55636  1.0000
  H   H208      1.0  0.55668  0.08603  0.45563  1.0000
  O   O31       1.0  0.60188  0.05732  0.56003  1.0000
  C   C355      1.0  0.37718  0.90568  0.35407  1.0000
  C   C356      1.0  0.39604  0.91214  0.41875  1.0000
  C   C357      1.0  0.40641  0.93742  0.42359  1.0000
  C   C358      1.0  0.39768  0.95657  0.36171  1.0000
  H   H209      1.0  0.40173  0.89847  0.46426  1.0000
  C   C359      1.0  0.42351  0.94362  0.49227  1.0000
  C   C360      1.0  0.44725  0.92927  0.50427  1.0000
  H   H210      1.0  0.44375  0.91171  0.54288  1.0000
  H   H211      1.0  0.46123  0.94106  0.54048  1.0000
  H   H212      1.0  0.45567  0.92405  0.43941  1.0000
  O   O32       1.0  0.41363  0.95195  0.56115  1.0000
  C   C361      1.0  0.10561  0.37888  0.35010  1.0000
  C   C362      1.0  0.09949  0.39853  0.41220  1.0000
  C   C363      1.0  0.07425  0.40898  0.41712  1.0000
  C   C364      1.0  0.05477  0.39964  0.35760  1.0000
  H   H213      1.0  0.11335  0.40483  0.45603  1.0000
  C   C365      1.0  0.06857  0.42697  0.48358  1.0000
  C   C366      1.0  0.06033  0.41775  0.57090  1.0000
  H   H214      1.0  0.04530  0.40317  0.56390  1.0000
  H   H215      1.0  0.05242  0.43361  0.61035  1.0000
  H   H216      1.0  0.07656  0.40942  0.60757  1.0000
  O   O33       1.0  0.08191  0.44644  0.48361  1.0000
  C   C367      1.0  0.90465  0.63465  0.35134  1.0000
  C   C368      1.0  0.91183  0.61688  0.41873  1.0000
  C   C369      1.0  0.93728  0.60689  0.42295  1.0000
  C   C370      1.0  0.95580  0.61481  0.35744  1.0000
  H   H217      1.0  0.89858  0.61175  0.46652  1.0000
  C   C371      1.0  0.94429  0.59096  0.49411  1.0000
  C   C372      1.0  0.93025  0.56748  0.51351  1.0000
  H   H218      1.0  0.91298  0.57166  0.55288  1.0000
  H   H219      1.0  0.94244  0.55434  0.55192  1.0000
  H   H220      1.0  0.92458  0.55773  0.45143  1.0000
  O   O34       1.0  0.95327  0.60231  0.55915  1.0000
  N   N65       1.0  0.49228  0.02154  0.37576  1.0000
  N   N66       1.0  0.51754  0.02177  0.37774  1.0000
  N   N67       1.0  0.98958  0.49385  0.37415  1.0000
  N   N68       1.0  0.98937  0.51911  0.37659  1.0000
  C   C373      1.0  0.20277  0.38652  0.34677  1.0000
  C   C374      1.0  0.20812  0.40650  0.40827  1.0000
  C   C375      1.0  0.23352  0.41652  0.41615  1.0000
  C   C376      1.0  0.25346  0.40614  0.36069  1.0000
  H   H221      1.0  0.19390  0.41267  0.45088  1.0000
  C   C377      1.0  0.23892  0.43462  0.48240  1.0000
  C   C378      1.0  0.24568  0.42537  0.57142  1.0000
  H   H222      1.0  0.22874  0.41753  0.60544  1.0000
  H   H223      1.0  0.25345  0.44109  0.61202  1.0000
  H   H224      1.0  0.26039  0.41039  0.56738  1.0000
  O   O35       1.0  0.22606  0.45439  0.48087  1.0000
  C   C379      1.0  0.80754  0.62595  0.34984  1.0000
  C   C380      1.0  0.80217  0.60599  0.41142  1.0000
  C   C381      1.0  0.77678  0.59586  0.41897  1.0000
  C   C382      1.0  0.75687  0.60610  0.36303  1.0000
  H   H225      1.0  0.81633  0.59995  0.45447  1.0000
  C   C383      1.0  0.77134  0.57782  0.48549  1.0000
  C   C384      1.0  0.76444  0.58732  0.57400  1.0000
  H   H226      1.0  0.78129  0.59540  0.60786  1.0000
  H   H227      1.0  0.75679  0.57164  0.61509  1.0000
  H   H228      1.0  0.74960  0.60216  0.56929  1.0000
  O   O36       1.0  0.78426  0.55810  0.48350  1.0000
  C   C385      1.0  0.62465  0.20328  0.35038  1.0000
  C   C386      1.0  0.60481  0.20868  0.41244  1.0000
  C   C387      1.0  0.59476  0.23408  0.42038  1.0000
  C   C388      1.0  0.60508  0.25405  0.36484  1.0000
  H   H229      1.0  0.59870  0.19446  0.45515  1.0000
  C   C389      1.0  0.57679  0.23950  0.48705  1.0000
  C   C390      1.0  0.58591  0.24611  0.57622  1.0000
  H   H230      1.0  0.59358  0.22909  0.61017  1.0000
  H   H231      1.0  0.57015  0.25394  0.61652  1.0000
  H   H232      1.0  0.60099  0.26073  0.57261  1.0000
  O   O37       1.0  0.55690  0.22684  0.48386  1.0000
  C   C391      1.0  0.38522  0.80859  0.34897  1.0000
  C   C392      1.0  0.40519  0.80307  0.41037  1.0000
  C   C393      1.0  0.41527  0.77767  0.41732  1.0000
  C   C394      1.0  0.40495  0.75787  0.36109  1.0000
  H   H233      1.0  0.41130  0.81717  0.45357  1.0000
  C   C395      1.0  0.43332  0.77210  0.48357  1.0000
  C   C396      1.0  0.42399  0.76498  0.57217  1.0000
  H   H234      1.0  0.41605  0.78177  0.60681  1.0000
  H   H235      1.0  0.43970  0.75712  0.61264  1.0000
  H   H236      1.0  0.40906  0.75024  0.56728  1.0000
  O   O38       1.0  0.45304  0.78503  0.48287  1.0000
  N   N69       1.0  0.76486  0.38904  0.38715  1.0000
  N   N70       1.0  0.78838  0.38016  0.39153  1.0000
  N   N71       1.0  0.24571  0.62435  0.37538  1.0000
  N   N72       1.0  0.22234  0.63360  0.37969  1.0000
  N   N73       1.0  0.38792  0.24649  0.38554  1.0000
  N   N74       1.0  0.37896  0.22300  0.38988  1.0000
  N   N75       1.0  0.62305  0.76525  0.37664  1.0000
  N   N76       1.0  0.63225  0.78863  0.38100  1.0000
  N   N77       1.0  0.29739  0.51914  0.38518  1.0000
  N   N78       1.0  0.29707  0.49402  0.38820  1.0000
  N   N79       1.0  0.71231  0.49326  0.39216  1.0000
  N   N80       1.0  0.71278  0.51838  0.39391  1.0000
  N   N81       1.0  0.49233  0.29882  0.39280  1.0000
  N   N82       1.0  0.51745  0.29834  0.39516  1.0000
  N   N83       1.0  0.51795  0.71366  0.38553  1.0000
  N   N84       1.0  0.49283  0.71410  0.38806  1.0000
  C   C397      1.0  0.38651  0.34814  0.34768  1.0000
  C   C398      1.0  0.39070  0.37114  0.39668  1.0000
  C   C399      1.0  0.37181  0.39096  0.40028  1.0000
  C   C400      1.0  0.34813  0.38768  0.35286  1.0000
  H   H237      1.0  0.40723  0.37310  0.43357  1.0000
  C   C401      1.0  0.37599  0.41198  0.45630  1.0000
  C   C402      1.0  0.36906  0.40990  0.55044  1.0000
  H   H238      1.0  0.34970  0.40198  0.55785  1.0000
  H   H239      1.0  0.36927  0.42890  0.58199  1.0000
  H   H240      1.0  0.38266  0.39744  0.58592  1.0000
  O   O39       1.0  0.39525  0.42474  0.43957  1.0000
  C   C403      1.0  0.62372  0.66396  0.34394  1.0000
  C   C404      1.0  0.61944  0.64114  0.39383  1.0000
  C   C405      1.0  0.63835  0.62138  0.39888  1.0000
  C   C406      1.0  0.66217  0.62455  0.35217  1.0000
  H   H241      1.0  0.60279  0.63926  0.43009  1.0000
  C   C407      1.0  0.63401  0.60051  0.45546  1.0000
  C   C408      1.0  0.64051  0.60290  0.54988  1.0000
  H   H242      1.0  0.65980  0.61092  0.55804  1.0000
  H   H243      1.0  0.64023  0.58399  0.58208  1.0000
  H   H244      1.0  0.62670  0.61539  0.58418  1.0000
  O   O40       1.0  0.61486  0.58764  0.43817  1.0000
  C   C409      1.0  0.66319  0.38723  0.34995  1.0000
  C   C410      1.0  0.64024  0.39143  0.39920  1.0000
  C   C411      1.0  0.62049  0.37249  0.40349  1.0000
  C   C412      1.0  0.62377  0.34875  0.35637  1.0000
  H   H245      1.0  0.63829  0.40801  0.43578  1.0000
  C   C413      1.0  0.59949  0.37673  0.45968  1.0000
  C   C414      1.0  0.60205  0.36974  0.55370  1.0000
  H   H246      1.0  0.60983  0.35030  0.56059  1.0000
  H   H247      1.0  0.58322  0.37010  0.58646  1.0000
  H   H248      1.0  0.61478  0.38322  0.58847  1.0000
  O   O41       1.0  0.58679  0.39607  0.44362  1.0000
  C   C415      1.0  0.34698  0.62488  0.34233  1.0000
  C   C416      1.0  0.36983  0.62061  0.39210  1.0000
  C   C417      1.0  0.38963  0.63949  0.39678  1.0000
  C   C418      1.0  0.38648  0.66325  0.34975  1.0000
  H   H249      1.0  0.37168  0.60402  0.42872  1.0000
  C   C419      1.0  0.41051  0.63521  0.45338  1.0000
  C   C420      1.0  0.40815  0.64187  0.54768  1.0000
  H   H250      1.0  0.40015  0.66119  0.55549  1.0000
  H   H251      1.0  0.42706  0.64161  0.57986  1.0000
  H   H252      1.0  0.39563  0.62813  0.58226  1.0000
  O   O42       1.0  0.42335  0.61602  0.43643  1.0000
