data_image0
_chemical_formula_structural       C7H3NO2CHC7H3NO2CHC2HC3HC2H4CHC2HC3HC2H4CHC7H3NO2CHC7H3NO2CHC2HC3HC2H4CHC2HC3HC2H4CHC7H3NO2CHC7H3NO2CHC7H3NO2CHC7H3NO2CHC2HC3HC2H4CHC2HC3HC2H4CHC7H3NO2CHC7H3NO2CHC2HC3HC2H4CHC2HC3HC2H4CHC7H3NO2CHC7H3NO2CHC2HC3HC2H4CHC2HC3HC2H4CHC7H3NO2CHC7H3NO2CHC6H3N3C6H3N3C6H3N3C6H3N3C6H3N3C6H3N3C6H3N3C6H3N3C6H3N3C6H3N3C6H3N3C6H3N3C6H3N3C6H3N3C6H3N3C6H3N3C2HC3HC2H4CHC2HC3HC2H4CHC7H3NO2CHC7H3NO2CHC2HC3HC2H4CHC2HC3HC2H4CHC7H3NO2CHC7H3NO2CHC2HC3HC2H4CHC2HC3HC2H4CHC2HC3HC2H4CHC2HC3HC2H4CHC7H3NO2CHC7H3NO2CHC2HC3HC2H4CHC2HC3HC2H4CHC7H3NO2CHC7H3NO2CHC2HC3HC2H4CHC2HC3HC2H4CHC7H3NO2CHC7H3NO2CHC2HC3HC2H4CHC2HC3HC2H4CH
_chemical_formula_sum              "C480 H312 N72 O48"
_cell_length_a       88.6058
_cell_length_b       69.4805
_cell_length_c       15.0032
_cell_angle_alpha    90
_cell_angle_beta     90
_cell_angle_gamma    90

_space_group_name_H-M_alt    "P 1"
_space_group_IT_number       1

loop_
  _space_group_symop_operation_xyz
  'x, y, z'

loop_
  _atom_site_type_symbol
  _atom_site_label
  _atom_site_symmetry_multiplicity
  _atom_site_fract_x
  _atom_site_fract_y
  _atom_site_fract_z
  _atom_site_occupancy
  C   C1        1.0  0.99525  0.94822  0.28699  1.0000
  C   C2        1.0  0.99506  0.96015  0.21103  1.0000
  C   C3        1.0  0.99550  0.98048  0.21792  1.0000
  C   C4        1.0  0.99648  0.98935  0.30358  1.0000
  C   C5        1.0  0.99599  0.00995  0.31735  1.0000
  C   C6        1.0  0.00265  0.02334  0.25794  1.0000
  C   C7        1.0  0.00151  0.04328  0.27198  1.0000
  H   H1        1.0  0.00873  0.01879  0.20416  1.0000
  H   H2        1.0  0.00614  0.05235  0.22569  1.0000
  H   H3        1.0  0.99414  0.95403  0.14911  1.0000
  N   N1        1.0  0.99363  0.99164  0.13957  1.0000
  O   O1        1.0  0.00389  0.98850  0.08348  1.0000
  O   O2        1.0  0.98105  0.98875  0.10313  1.0000
  C   C8        1.0  0.99366  0.92849  0.27792  1.0000
  H   H4        1.0  0.98686  0.92343  0.23049  1.0000
  C   C9        1.0  0.49523  0.44820  0.28758  1.0000
  C   C10       1.0  0.49505  0.46010  0.21152  1.0000
  C   C11       1.0  0.49550  0.48043  0.21822  1.0000
  C   C12       1.0  0.49648  0.48934  0.30379  1.0000
  C   C13       1.0  0.49600  0.50996  0.31737  1.0000
  C   C14       1.0  0.50264  0.52333  0.25777  1.0000
  C   C15       1.0  0.50150  0.54329  0.27163  1.0000
  H   H5        1.0  0.50871  0.51876  0.20400  1.0000
  H   H6        1.0  0.50612  0.55234  0.22519  1.0000
  H   H7        1.0  0.49411  0.45395  0.14966  1.0000
  N   N2        1.0  0.49363  0.49156  0.13975  1.0000
  O   O3        1.0  0.50389  0.48838  0.08371  1.0000
  O   O4        1.0  0.48105  0.48866  0.10334  1.0000
  C   C16       1.0  0.49360  0.42846  0.27868  1.0000
  H   H8        1.0  0.48674  0.42341  0.23153  1.0000
  C   C17       1.0  0.09406  0.20592  0.28194  1.0000
  C   C18       1.0  0.10639  0.21854  0.29389  1.0000
  H   H9        1.0  0.11136  0.22465  0.23914  1.0000
  C   C19       1.0  0.04583  0.16523  0.30638  1.0000
  C   C20       1.0  0.05122  0.17906  0.24501  1.0000
  C   C21       1.0  0.06481  0.18918  0.26019  1.0000
  H   H10       1.0  0.04514  0.18194  0.18845  1.0000
  C   C22       1.0  0.07061  0.20283  0.19168  1.0000
  C   C23       1.0  0.08809  0.20242  0.19037  1.0000
  H   H11       1.0  0.06667  0.21733  0.20781  1.0000
  H   H12       1.0  0.06648  0.19915  0.12510  1.0000
  H   H13       1.0  0.09212  0.21312  0.14246  1.0000
  H   H14       1.0  0.09197  0.18828  0.16789  1.0000
  C   C24       1.0  0.03183  0.15664  0.29267  1.0000
  H   H15       1.0  0.02472  0.16277  0.24969  1.0000
  C   C25       1.0  0.90633  0.79399  0.28251  1.0000
  C   C26       1.0  0.89410  0.78122  0.29455  1.0000
  H   H16       1.0  0.88915  0.77506  0.23982  1.0000
  C   C27       1.0  0.95463  0.83462  0.30692  1.0000
  C   C28       1.0  0.94917  0.82087  0.24538  1.0000
  C   C29       1.0  0.93553  0.81084  0.26040  1.0000
  H   H17       1.0  0.95524  0.81796  0.18879  1.0000
  C   C30       1.0  0.92969  0.79728  0.19167  1.0000
  C   C31       1.0  0.91220  0.79764  0.19087  1.0000
  H   H18       1.0  0.93368  0.78277  0.20718  1.0000
  H   H19       1.0  0.93375  0.80108  0.12509  1.0000
  H   H20       1.0  0.90816  0.78700  0.14275  1.0000
  H   H21       1.0  0.90829  0.81179  0.16893  1.0000
  C   C32       1.0  0.96868  0.84310  0.29328  1.0000
  H   H22       1.0  0.97574  0.83696  0.25008  1.0000
  C   C33       1.0  0.88933  0.22416  0.28745  1.0000
  C   C34       1.0  0.89708  0.21664  0.21315  1.0000
  C   C35       1.0  0.90950  0.20396  0.22271  1.0000
  C   C36       1.0  0.91422  0.19809  0.30956  1.0000
  C   C37       1.0  0.92756  0.18660  0.32590  1.0000
  C   C38       1.0  0.93242  0.17168  0.26829  1.0000
  C   C39       1.0  0.94593  0.16161  0.28371  1.0000
  H   H23       1.0  0.92610  0.16770  0.21450  1.0000
  H   H24       1.0  0.94918  0.15143  0.23828  1.0000
  H   H25       1.0  0.89408  0.22105  0.15040  1.0000
  N   N3        1.0  0.91787  0.19885  0.14574  1.0000
  O   O5        1.0  0.90992  0.19003  0.08952  1.0000
  O   O6        1.0  0.92375  0.21324  0.10865  1.0000
  C   C40       1.0  0.87844  0.23827  0.27553  1.0000
  H   H26       1.0  0.87969  0.24748  0.22511  1.0000
  C   C41       1.0  0.11088  0.77519  0.28759  1.0000
  C   C42       1.0  0.10312  0.78277  0.21346  1.0000
  C   C43       1.0  0.09072  0.79546  0.22335  1.0000
  C   C44       1.0  0.08604  0.80128  0.31033  1.0000
  C   C45       1.0  0.07276  0.81287  0.32699  1.0000
  C   C46       1.0  0.06798  0.82788  0.26967  1.0000
  C   C47       1.0  0.05453  0.83806  0.28541  1.0000
  H   H27       1.0  0.07430  0.83183  0.21585  1.0000
  H   H28       1.0  0.05131  0.84828  0.24010  1.0000
  H   H29       1.0  0.10609  0.77838  0.15063  1.0000
  N   N4        1.0  0.08231  0.80062  0.14657  1.0000
  O   O7        1.0  0.09024  0.80944  0.09028  1.0000
  O   O8        1.0  0.07639  0.78626  0.10948  1.0000
  C   C48       1.0  0.12176  0.76109  0.27539  1.0000
  H   H30       1.0  0.12044  0.75182  0.22523  1.0000
  C   C49       1.0  0.59438  0.70568  0.28611  1.0000
  C   C50       1.0  0.60668  0.71833  0.29830  1.0000
  H   H31       1.0  0.61165  0.72449  0.24364  1.0000
  C   C51       1.0  0.54596  0.66527  0.30940  1.0000
  C   C52       1.0  0.55147  0.67907  0.24824  1.0000
  C   C53       1.0  0.56511  0.68908  0.26372  1.0000
  H   H32       1.0  0.54543  0.68203  0.19157  1.0000
  C   C54       1.0  0.57099  0.70269  0.19533  1.0000
  C   C55       1.0  0.58847  0.70218  0.19442  1.0000
  H   H33       1.0  0.56709  0.71721  0.21133  1.0000
  H   H34       1.0  0.56690  0.69903  0.12866  1.0000
  H   H35       1.0  0.59257  0.71284  0.14650  1.0000
  H   H36       1.0  0.59231  0.68801  0.17214  1.0000
  C   C56       1.0  0.53193  0.65679  0.29521  1.0000
  H   H37       1.0  0.52487  0.66304  0.25235  1.0000
  C   C57       1.0  0.40599  0.29438  0.28631  1.0000
  C   C58       1.0  0.39373  0.28164  0.29844  1.0000
  H   H38       1.0  0.38877  0.27549  0.24374  1.0000
  C   C59       1.0  0.45453  0.33457  0.30992  1.0000
  C   C60       1.0  0.44895  0.32088  0.24852  1.0000
  C   C61       1.0  0.43526  0.31098  0.26381  1.0000
  H   H39       1.0  0.45497  0.31792  0.19179  1.0000
  C   C62       1.0  0.42931  0.29748  0.19514  1.0000
  C   C63       1.0  0.41183  0.29801  0.19461  1.0000
  H   H40       1.0  0.43322  0.28292  0.21054  1.0000
  H   H41       1.0  0.43336  0.30124  0.12850  1.0000
  H   H42       1.0  0.40770  0.28743  0.14643  1.0000
  H   H43       1.0  0.40799  0.31221  0.17288  1.0000
  C   C64       1.0  0.46861  0.34295  0.29583  1.0000
  H   H44       1.0  0.47563  0.33669  0.25279  1.0000
  C   C65       1.0  0.38891  0.72365  0.28377  1.0000
  C   C66       1.0  0.39668  0.71617  0.20946  1.0000
  C   C67       1.0  0.40913  0.70354  0.21900  1.0000
  C   C68       1.0  0.41388  0.69768  0.30582  1.0000
  C   C69       1.0  0.42730  0.68632  0.32221  1.0000
  C   C70       1.0  0.43230  0.67148  0.26457  1.0000
  C   C71       1.0  0.44588  0.66155  0.28015  1.0000
  H   H45       1.0  0.42604  0.66745  0.21064  1.0000
  H   H46       1.0  0.44923  0.65142  0.23474  1.0000
  H   H47       1.0  0.39369  0.72061  0.14674  1.0000
  N   N5        1.0  0.41751  0.69846  0.14200  1.0000
  O   O9        1.0  0.40959  0.68960  0.08583  1.0000
  O   O10       1.0  0.42335  0.71288  0.10488  1.0000
  C   C72       1.0  0.37808  0.73785  0.27208  1.0000
  H   H48       1.0  0.37946  0.74723  0.22245  1.0000
  C   C73       1.0  0.61131  0.27567  0.28370  1.0000
  C   C74       1.0  0.60352  0.28319  0.20957  1.0000
  C   C75       1.0  0.59108  0.29583  0.21945  1.0000
  C   C76       1.0  0.58637  0.30165  0.30641  1.0000
  C   C77       1.0  0.57302  0.31309  0.32313  1.0000
  C   C78       1.0  0.56808  0.32802  0.26579  1.0000
  C   C79       1.0  0.55458  0.33807  0.28173  1.0000
  H   H49       1.0  0.57435  0.33202  0.21182  1.0000
  H   H50       1.0  0.55126  0.34825  0.23644  1.0000
  H   H51       1.0  0.60647  0.27877  0.14677  1.0000
  N   N6        1.0  0.58265  0.30095  0.14266  1.0000
  O   O11       1.0  0.59055  0.30981  0.08638  1.0000
  O   O12       1.0  0.57678  0.28655  0.10557  1.0000
  C   C80       1.0  0.62213  0.26148  0.27174  1.0000
  H   H52       1.0  0.62068  0.25204  0.22240  1.0000
  C   C81       1.0  0.38481  0.06558  0.26445  1.0000
  C   C82       1.0  0.38024  0.07675  0.19075  1.0000
  C   C83       1.0  0.37377  0.09524  0.20145  1.0000
  C   C84       1.0  0.37225  0.10325  0.28858  1.0000
  C   C85       1.0  0.36632  0.12225  0.30608  1.0000
  C   C86       1.0  0.36896  0.13807  0.24860  1.0000
  C   C87       1.0  0.36337  0.15651  0.26809  1.0000
  H   H53       1.0  0.37547  0.13663  0.19289  1.0000
  H   H54       1.0  0.36533  0.16736  0.22336  1.0000
  H   H55       1.0  0.38145  0.07131  0.12767  1.0000
  N   N7        1.0  0.36798  0.10492  0.12557  1.0000
  O   O13       1.0  0.37799  0.10790  0.06775  1.0000
  O   O14       1.0  0.35734  0.09574  0.08997  1.0000
  C   C88       1.0  0.39209  0.04811  0.25220  1.0000
  H   H56       1.0  0.39653  0.04540  0.19253  1.0000
  C   C89       1.0  0.61640  0.93442  0.26571  1.0000
  C   C90       1.0  0.62091  0.92315  0.19224  1.0000
  C   C91       1.0  0.62718  0.90456  0.20321  1.0000
  C   C92       1.0  0.62853  0.89655  0.29042  1.0000
  C   C93       1.0  0.63431  0.87749  0.30813  1.0000
  C   C94       1.0  0.63160  0.86169  0.25065  1.0000
  C   C95       1.0  0.63714  0.84322  0.27007  1.0000
  H   H57       1.0  0.62512  0.86318  0.19490  1.0000
  H   H58       1.0  0.63516  0.83240  0.22525  1.0000
  H   H59       1.0  0.61982  0.92858  0.12906  1.0000
  N   N8        1.0  0.63292  0.89476  0.12751  1.0000
  O   O15       1.0  0.62291  0.89192  0.06951  1.0000
  O   O16       1.0  0.64367  0.90373  0.09206  1.0000
  C   C96       1.0  0.60931  0.95199  0.25270  1.0000
  H   H60       1.0  0.60529  0.95501  0.19229  1.0000
  C   C97       1.0  0.62512  0.09155  0.29451  1.0000
  C   C98       1.0  0.61856  0.07316  0.30370  1.0000
  H   H61       1.0  0.61589  0.06546  0.24762  1.0000
  C   C99       1.0  0.64573  0.15996  0.32075  1.0000
  C   C100      1.0  0.64811  0.14472  0.26001  1.0000
  C   C101      1.0  0.64229  0.12612  0.27644  1.0000
  H   H62       1.0  0.65400  0.14721  0.20239  1.0000
  C   C102      1.0  0.64377  0.11078  0.20770  1.0000
  C   C103      1.0  0.62906  0.09877  0.20380  1.0000
  H   H63       1.0  0.65324  0.10146  0.22561  1.0000
  H   H64       1.0  0.64601  0.11676  0.14156  1.0000
  H   H65       1.0  0.63068  0.08696  0.15652  1.0000
  H   H66       1.0  0.61979  0.10774  0.17934  1.0000
  C   C104      1.0  0.65201  0.17791  0.30427  1.0000
  H   H67       1.0  0.66129  0.17866  0.26701  1.0000
  C   C105      1.0  0.37319  0.90856  0.29591  1.0000
  C   C106      1.0  0.37949  0.92709  0.30599  1.0000
  H   H68       1.0  0.38220  0.93487  0.25026  1.0000
  C   C107      1.0  0.35406  0.83939  0.31917  1.0000
  C   C108      1.0  0.35148  0.85460  0.25853  1.0000
  C   C109      1.0  0.35684  0.87340  0.27575  1.0000
  H   H69       1.0  0.34573  0.85197  0.20051  1.0000
  C   C110      1.0  0.35514  0.88875  0.20732  1.0000
  C   C111      1.0  0.36956  0.90134  0.20474  1.0000
  H   H70       1.0  0.34541  0.89768  0.22478  1.0000
  H   H71       1.0  0.35318  0.88278  0.14086  1.0000
  H   H72       1.0  0.36772  0.91318  0.15787  1.0000
  H   H73       1.0  0.37908  0.89280  0.18044  1.0000
  C   C112      1.0  0.34811  0.82128  0.30220  1.0000
  H   H74       1.0  0.33902  0.82027  0.26342  1.0000
  C   C113      1.0  0.88470  0.56566  0.26623  1.0000
  C   C114      1.0  0.88006  0.57671  0.19231  1.0000
  C   C115      1.0  0.87346  0.59514  0.20263  1.0000
  C   C116      1.0  0.87191  0.60323  0.28958  1.0000
  C   C117      1.0  0.86589  0.62220  0.30666  1.0000
  C   C118      1.0  0.86845  0.63798  0.24880  1.0000
  C   C119      1.0  0.86280  0.65641  0.26793  1.0000
  H   H75       1.0  0.87496  0.63653  0.19311  1.0000
  H   H76       1.0  0.86472  0.66723  0.22301  1.0000
  H   H77       1.0  0.88129  0.57122  0.12934  1.0000
  N   N9        1.0  0.86762  0.60469  0.12655  1.0000
  O   O17       1.0  0.87761  0.60771  0.06864  1.0000
  O   O18       1.0  0.85703  0.59538  0.09116  1.0000
  C   C120      1.0  0.89211  0.54827  0.25432  1.0000
  H   H78       1.0  0.89664  0.54563  0.19484  1.0000
  C   C121      1.0  0.11651  0.43438  0.26747  1.0000
  C   C122      1.0  0.12105  0.42314  0.19397  1.0000
  C   C123      1.0  0.12732  0.40455  0.20486  1.0000
  C   C124      1.0  0.12865  0.39651  0.29203  1.0000
  C   C125      1.0  0.13442  0.37744  0.30962  1.0000
  C   C126      1.0  0.13171  0.36167  0.25193  1.0000
  C   C127      1.0  0.13726  0.34320  0.27110  1.0000
  H   H79       1.0  0.12523  0.36319  0.19621  1.0000
  H   H80       1.0  0.13528  0.33241  0.22615  1.0000
  H   H81       1.0  0.11996  0.42858  0.13081  1.0000
  N   N10       1.0  0.13308  0.39477  0.12915  1.0000
  O   O19       1.0  0.12308  0.39196  0.07103  1.0000
  O   O20       1.0  0.14384  0.40376  0.09386  1.0000
  C   C128      1.0  0.10939  0.45193  0.25445  1.0000
  H   H82       1.0  0.10535  0.45492  0.19405  1.0000
  C   C129      1.0  0.12537  0.59156  0.29404  1.0000
  C   C130      1.0  0.11873  0.57321  0.30301  1.0000
  H   H83       1.0  0.11603  0.56556  0.24686  1.0000
  C   C131      1.0  0.14625  0.65983  0.32110  1.0000
  C   C132      1.0  0.14857  0.64461  0.26016  1.0000
  C   C133      1.0  0.14269  0.62603  0.27638  1.0000
  H   H84       1.0  0.15445  0.64711  0.20248  1.0000
  C   C134      1.0  0.14410  0.61073  0.20740  1.0000
  C   C135      1.0  0.12933  0.59881  0.20341  1.0000
  H   H85       1.0  0.15353  0.60134  0.22511  1.0000
  H   H86       1.0  0.14634  0.61674  0.14132  1.0000
  H   H87       1.0  0.13091  0.58702  0.15598  1.0000
  H   H88       1.0  0.12010  0.60785  0.17910  1.0000
  C   C136      1.0  0.15250  0.67778  0.30456  1.0000
  H   H89       1.0  0.16180  0.67857  0.26752  1.0000
  C   C137      1.0  0.87301  0.40859  0.29555  1.0000
  C   C138      1.0  0.87939  0.42707  0.30539  1.0000
  H   H90       1.0  0.88213  0.43481  0.24956  1.0000
  C   C139      1.0  0.85357  0.33956  0.31973  1.0000
  C   C140      1.0  0.85106  0.35475  0.25891  1.0000
  C   C141      1.0  0.85650  0.37352  0.27588  1.0000
  H   H91       1.0  0.84531  0.35212  0.20087  1.0000
  C   C142      1.0  0.85487  0.38885  0.20721  1.0000
  C   C143      1.0  0.86935  0.40134  0.20448  1.0000
  H   H92       1.0  0.84518  0.39786  0.22451  1.0000
  H   H93       1.0  0.85289  0.38284  0.14084  1.0000
  H   H94       1.0  0.86756  0.41315  0.15745  1.0000
  H   H95       1.0  0.87883  0.39271  0.18030  1.0000
  C   C144      1.0  0.84764  0.32144  0.30272  1.0000
  H   H96       1.0  0.83853  0.32042  0.26413  1.0000
  C   C145      1.0  0.53999  0.00402  0.29403  1.0000
  C   C146      1.0  0.53089  0.00265  0.21732  1.0000
  C   C147      1.0  0.51511  0.99975  0.22334  1.0000
  C   C148      1.0  0.50806  0.99898  0.30882  1.0000
  C   C149      1.0  0.49202  0.99662  0.32172  1.0000
  C   C150      1.0  0.48121  0.00493  0.26380  1.0000
  C   C151      1.0  0.46567  0.00291  0.27918  1.0000
  H   H97       1.0  0.48445  0.01324  0.21108  1.0000
  H   H98       1.0  0.45834  0.00892  0.23435  1.0000
  H   H99       1.0  0.53582  0.00324  0.15557  1.0000
  N   N11       1.0  0.50678  0.99621  0.14430  1.0000
  O   O21       1.0  0.50770  0.00995  0.08997  1.0000
  O   O22       1.0  0.51102  0.98106  0.10595  1.0000
  C   C152      1.0  0.55531  0.00710  0.28573  1.0000
  H   H100      1.0  0.55892  0.01685  0.24196  1.0000
  C   C153      1.0  0.04003  0.50409  0.29361  1.0000
  C   C154      1.0  0.03094  0.50279  0.21685  1.0000
  C   C155      1.0  0.01515  0.49988  0.22277  1.0000
  C   C156      1.0  0.00809  0.49905  0.30821  1.0000
  C   C157      1.0  0.99206  0.49665  0.32101  1.0000
  C   C158      1.0  0.98124  0.50498  0.26320  1.0000
  C   C159      1.0  0.96570  0.50291  0.27847  1.0000
  H   H101      1.0  0.98447  0.51334  0.21065  1.0000
  H   H102      1.0  0.95837  0.50894  0.23374  1.0000
  H   H103      1.0  0.03587  0.50343  0.15513  1.0000
  N   N12       1.0  0.00683  0.49641  0.14366  1.0000
  O   O23       1.0  0.00775  0.51020  0.08960  1.0000
  O   O24       1.0  0.01107  0.48129  0.10501  1.0000
  C   C160      1.0  0.05535  0.50719  0.28539  1.0000
  H   H104      1.0  0.05896  0.51696  0.24170  1.0000
  C   C161      1.0  0.23248  0.25192  0.28854  1.0000
  C   C162      1.0  0.21701  0.25631  0.29831  1.0000
  H   H105      1.0  0.21041  0.25769  0.24261  1.0000
  C   C163      1.0  0.28931  0.23952  0.31507  1.0000
  C   C164      1.0  0.27798  0.23352  0.25475  1.0000
  C   C165      1.0  0.26256  0.23749  0.27047  1.0000
  H   H106      1.0  0.28094  0.22608  0.19843  1.0000
  C   C166      1.0  0.25100  0.23217  0.20282  1.0000
  C   C167      1.0  0.23868  0.24798  0.19791  1.0000
  H   H107      1.0  0.24586  0.21848  0.22219  1.0000
  H   H108      1.0  0.25597  0.23037  0.13661  1.0000
  H   H109      1.0  0.22987  0.24321  0.15180  1.0000
  H   H110      1.0  0.24356  0.26126  0.17147  1.0000
  C   C168      1.0  0.30425  0.23414  0.30076  1.0000
  H   H111      1.0  0.30635  0.22385  0.25617  1.0000
  C   C169      1.0  0.76810  0.74811  0.28899  1.0000
  C   C170      1.0  0.78357  0.74374  0.29900  1.0000
  H   H112      1.0  0.79019  0.74235  0.24339  1.0000
  C   C171      1.0  0.71122  0.76027  0.31469  1.0000
  C   C172      1.0  0.72256  0.76630  0.25446  1.0000
  C   C173      1.0  0.73798  0.76239  0.27038  1.0000
  H   H113      1.0  0.71959  0.77371  0.19807  1.0000
  C   C174      1.0  0.74956  0.76774  0.20285  1.0000
  C   C175      1.0  0.76193  0.75200  0.19823  1.0000
  H   H114      1.0  0.75464  0.78147  0.22216  1.0000
  H   H115      1.0  0.74461  0.76950  0.13655  1.0000
  H   H116      1.0  0.77074  0.75680  0.15227  1.0000
  H   H117      1.0  0.75710  0.73869  0.17177  1.0000
  C   C176      1.0  0.69628  0.76561  0.30031  1.0000
  H   H118      1.0  0.69417  0.77591  0.25577  1.0000
  C   C177      1.0  0.78989  0.25806  0.28411  1.0000
  C   C178      1.0  0.78049  0.25594  0.20898  1.0000
  C   C179      1.0  0.76492  0.25174  0.21741  1.0000
  C   C180      1.0  0.75829  0.25038  0.30389  1.0000
  C   C181      1.0  0.74243  0.24682  0.31931  1.0000
  C   C182      1.0  0.73094  0.25413  0.26305  1.0000
  C   C183      1.0  0.71561  0.25052  0.27995  1.0000
  H   H119      1.0  0.73350  0.26269  0.20990  1.0000
  H   H120      1.0  0.70780  0.25570  0.23572  1.0000
  H   H121      1.0  0.78504  0.25720  0.14643  1.0000
  N   N13       1.0  0.75640  0.24771  0.13957  1.0000
  O   O25       1.0  0.75639  0.26160  0.08582  1.0000
  O   O26       1.0  0.76120  0.23301  0.09977  1.0000
  C   C184      1.0  0.80478  0.26361  0.27328  1.0000
  H   H122      1.0  0.80715  0.27320  0.22587  1.0000
  C   C185      1.0  0.21033  0.74118  0.28382  1.0000
  C   C186      1.0  0.21974  0.74332  0.20874  1.0000
  C   C187      1.0  0.23531  0.74753  0.21728  1.0000
  C   C188      1.0  0.24192  0.74888  0.30380  1.0000
  C   C189      1.0  0.25777  0.75245  0.31932  1.0000
  C   C190      1.0  0.26927  0.74512  0.26317  1.0000
  C   C191      1.0  0.28461  0.74871  0.28022  1.0000
  H   H123      1.0  0.26672  0.73657  0.20998  1.0000
  H   H124      1.0  0.29242  0.74353  0.23606  1.0000
  H   H125      1.0  0.21520  0.74206  0.14616  1.0000
  N   N14       1.0  0.24384  0.75158  0.13953  1.0000
  O   O27       1.0  0.24386  0.73770  0.08572  1.0000
  O   O28       1.0  0.23904  0.76629  0.09975  1.0000
  C   C192      1.0  0.19544  0.73562  0.27290  1.0000
  H   H126      1.0  0.19308  0.72603  0.22549  1.0000
  C   C193      1.0  0.01424  0.13254  0.33186  1.0000
  C   C194      1.0  0.01397  0.11225  0.33142  1.0000
  C   C195      1.0  0.00018  0.10210  0.33025  1.0000
  C   C196      1.0  0.98648  0.11259  0.32869  1.0000
  C   C197      1.0  0.98647  0.13286  0.33267  1.0000
  C   C198      1.0  0.00042  0.14269  0.33373  1.0000
  H   H127      1.0  0.97641  0.10541  0.32505  1.0000
  H   H128      1.0  0.00052  0.15742  0.33506  1.0000
  H   H129      1.0  0.02395  0.10478  0.33124  1.0000
  N   N15       1.0  0.02748  0.14152  0.33509  1.0000
  N   N16       1.0  0.00068  0.08300  0.32603  1.0000
  N   N17       1.0  0.97332  0.14205  0.32965  1.0000
  C   C199      1.0  0.98632  0.86718  0.33203  1.0000
  C   C200      1.0  0.98655  0.88746  0.33166  1.0000
  C   C201      1.0  0.00037  0.89763  0.32875  1.0000
  C   C202      1.0  0.01406  0.88728  0.33054  1.0000
  C   C203      1.0  0.01410  0.86700  0.33414  1.0000
  C   C204      1.0  0.00017  0.85709  0.33384  1.0000
  H   H130      1.0  0.02411  0.89458  0.32928  1.0000
  H   H131      1.0  0.00009  0.84237  0.33507  1.0000
  H   H132      1.0  0.97657  0.89490  0.33244  1.0000
  N   N18       1.0  0.97308  0.85820  0.33558  1.0000
  N   N19       1.0  0.00090  0.91672  0.32834  1.0000
  N   N20       1.0  0.02726  0.85782  0.33192  1.0000
  C   C205      1.0  0.51426  0.63262  0.33256  1.0000
  C   C206      1.0  0.51399  0.61232  0.33208  1.0000
  C   C207      1.0  0.50020  0.60216  0.32996  1.0000
  C   C208      1.0  0.48651  0.61265  0.32747  1.0000
  C   C209      1.0  0.48647  0.63292  0.33137  1.0000
  C   C210      1.0  0.50043  0.64276  0.33342  1.0000
  H   H133      1.0  0.47645  0.60546  0.32319  1.0000
  H   H134      1.0  0.50052  0.65748  0.33476  1.0000
  H   H135      1.0  0.52397  0.60485  0.33258  1.0000
  N   N21       1.0  0.52751  0.64158  0.33663  1.0000
  N   N22       1.0  0.50072  0.58305  0.32581  1.0000
  N   N23       1.0  0.47331  0.64209  0.32763  1.0000
  C   C211      1.0  0.48632  0.36711  0.33286  1.0000
  C   C212      1.0  0.48656  0.38739  0.33264  1.0000
  C   C213      1.0  0.50038  0.39757  0.32892  1.0000
  C   C214      1.0  0.51407  0.38720  0.32966  1.0000
  C   C215      1.0  0.51412  0.36692  0.33298  1.0000
  C   C216      1.0  0.50017  0.35702  0.33357  1.0000
  H   H136      1.0  0.52411  0.39451  0.32782  1.0000
  H   H137      1.0  0.50010  0.34230  0.33468  1.0000
  H   H138      1.0  0.47659  0.39485  0.33415  1.0000
  N   N24       1.0  0.47306  0.35816  0.33714  1.0000
  N   N25       1.0  0.50092  0.41667  0.32865  1.0000
  N   N26       1.0  0.52729  0.35776  0.32995  1.0000
  C   C217      1.0  0.41991  0.00011  0.33545  1.0000
  C   C218      1.0  0.41190  0.01726  0.31925  1.0000
  C   C219      1.0  0.39595  0.01737  0.31424  1.0000
  C   C220      1.0  0.38802  0.99996  0.32695  1.0000
  C   C221      1.0  0.39582  0.98262  0.34345  1.0000
  C   C222      1.0  0.41175  0.98280  0.34572  1.0000
  H   H139      1.0  0.37648  0.99982  0.32253  1.0000
  H   H140      1.0  0.41746  0.97007  0.35185  1.0000
  H   H141      1.0  0.41777  0.02982  0.31048  1.0000
  N   N27       1.0  0.43487  0.00075  0.33252  1.0000
  N   N28       1.0  0.38807  0.03333  0.29920  1.0000
  N   N29       1.0  0.38829  0.96612  0.34634  1.0000
  C   C223      1.0  0.57971  0.99838  0.33048  1.0000
  C   C224      1.0  0.58827  0.98146  0.32022  1.0000
  C   C225      1.0  0.60421  0.98221  0.31591  1.0000
  C   C226      1.0  0.61154  0.00010  0.32665  1.0000
  C   C227      1.0  0.60315  0.01709  0.34068  1.0000
  C   C228      1.0  0.58723  0.01612  0.34120  1.0000
  H   H142      1.0  0.62308  0.00080  0.32342  1.0000
  H   H143      1.0  0.58103  0.02845  0.34835  1.0000
  H   H144      1.0  0.58282  0.96854  0.31334  1.0000
  N   N30       1.0  0.56479  0.99710  0.33104  1.0000
  N   N31       1.0  0.61256  0.96657  0.30313  1.0000
  N   N32       1.0  0.61023  0.03390  0.34430  1.0000
  C   C229      1.0  0.91994  0.50008  0.33516  1.0000
  C   C230      1.0  0.91194  0.51728  0.31989  1.0000
  C   C231      1.0  0.89598  0.51743  0.31527  1.0000
  C   C232      1.0  0.88804  0.50001  0.32743  1.0000
  C   C233      1.0  0.89583  0.48262  0.34298  1.0000
  C   C234      1.0  0.91177  0.48277  0.34486  1.0000
  H   H145      1.0  0.87650  0.49990  0.32335  1.0000
  H   H146      1.0  0.91747  0.47001  0.35041  1.0000
  H   H147      1.0  0.91782  0.52984  0.31157  1.0000
  N   N33       1.0  0.93490  0.50071  0.33209  1.0000
  N   N34       1.0  0.88812  0.53344  0.30106  1.0000
  N   N35       1.0  0.88828  0.46613  0.34571  1.0000
  C   C235      1.0  0.07976  0.49845  0.33019  1.0000
  C   C236      1.0  0.08830  0.48150  0.32083  1.0000
  C   C237      1.0  0.10426  0.48221  0.31687  1.0000
  C   C238      1.0  0.11160  0.50011  0.32708  1.0000
  C   C239      1.0  0.10322  0.51714  0.34020  1.0000
  C   C240      1.0  0.08729  0.51619  0.34036  1.0000
  H   H148      1.0  0.12314  0.50078  0.32416  1.0000
  H   H149      1.0  0.08111  0.52855  0.34697  1.0000
  H   H150      1.0  0.08285  0.46858  0.31437  1.0000
  N   N36       1.0  0.06484  0.49718  0.33062  1.0000
  N   N37       1.0  0.11259  0.46652  0.30489  1.0000
  N   N38       1.0  0.11033  0.53394  0.34365  1.0000
  C   C241      1.0  0.15075  0.28801  0.34165  1.0000
  C   C242      1.0  0.16614  0.28275  0.34346  1.0000
  C   C243      1.0  0.17056  0.26321  0.34550  1.0000
  C   C244      1.0  0.15936  0.24879  0.34258  1.0000
  C   C245      1.0  0.14391  0.25375  0.34202  1.0000
  C   C246      1.0  0.13975  0.27338  0.33953  1.0000
  H   H151      1.0  0.16245  0.23458  0.34252  1.0000
  H   H152      1.0  0.12857  0.27705  0.33588  1.0000
  H   H153      1.0  0.17424  0.29324  0.34089  1.0000
  N   N39       1.0  0.14618  0.30613  0.33465  1.0000
  N   N40       1.0  0.18504  0.25821  0.34452  1.0000
  N   N41       1.0  0.13352  0.23999  0.33902  1.0000
  C   C247      1.0  0.84965  0.71165  0.34174  1.0000
  C   C248      1.0  0.83429  0.71703  0.34373  1.0000
  C   C249      1.0  0.82996  0.73660  0.34623  1.0000
  C   C250      1.0  0.84123  0.75094  0.34373  1.0000
  C   C251      1.0  0.85665  0.74586  0.34320  1.0000
  C   C252      1.0  0.86073  0.72619  0.34033  1.0000
  H   H154      1.0  0.83820  0.76517  0.34393  1.0000
  H   H155      1.0  0.87189  0.72245  0.33660  1.0000
  H   H156      1.0  0.82613  0.70663  0.34062  1.0000
  N   N42       1.0  0.85413  0.69348  0.33415  1.0000
  N   N43       1.0  0.81551  0.74170  0.34516  1.0000
  N   N44       1.0  0.86708  0.75958  0.34024  1.0000
  C   C253      1.0  0.84927  0.28779  0.32805  1.0000
  C   C254      1.0  0.83396  0.28217  0.32628  1.0000
  C   C255      1.0  0.82982  0.26254  0.32322  1.0000
  C   C256      1.0  0.84121  0.24837  0.32549  1.0000
  C   C257      1.0  0.85658  0.25369  0.32615  1.0000
  C   C258      1.0  0.86048  0.27342  0.32925  1.0000
  H   H157      1.0  0.83831  0.23410  0.32498  1.0000
  H   H158      1.0  0.87161  0.27733  0.33274  1.0000
  H   H159      1.0  0.82569  0.29244  0.32937  1.0000
  N   N45       1.0  0.85356  0.30605  0.33501  1.0000
  N   N46       1.0  0.81540  0.25731  0.32402  1.0000
  N   N47       1.0  0.86713  0.24013  0.32866  1.0000
  C   C259      1.0  0.15090  0.71155  0.32787  1.0000
  C   C260      1.0  0.16623  0.71713  0.32583  1.0000
  C   C261      1.0  0.17039  0.73674  0.32275  1.0000
  C   C262      1.0  0.15903  0.75095  0.32496  1.0000
  C   C263      1.0  0.14365  0.74567  0.32563  1.0000
  C   C264      1.0  0.13972  0.72596  0.32887  1.0000
  H   H160      1.0  0.16196  0.76521  0.32437  1.0000
  H   H161      1.0  0.12858  0.72209  0.33244  1.0000
  H   H162      1.0  0.17447  0.70684  0.32904  1.0000
  N   N48       1.0  0.14652  0.69333  0.33481  1.0000
  N   N49       1.0  0.18482  0.74194  0.32355  1.0000
  N   N50       1.0  0.13312  0.75925  0.32817  1.0000
  C   C265      1.0  0.65068  0.78807  0.34164  1.0000
  C   C266      1.0  0.66610  0.78296  0.34184  1.0000
  C   C267      1.0  0.67066  0.76346  0.34227  1.0000
  C   C268      1.0  0.65953  0.74895  0.34539  1.0000
  C   C269      1.0  0.64405  0.75375  0.34568  1.0000
  C   C270      1.0  0.63976  0.77333  0.34138  1.0000
  H   H163      1.0  0.66271  0.73478  0.34690  1.0000
  H   H164      1.0  0.62855  0.77688  0.33856  1.0000
  H   H165      1.0  0.67412  0.79356  0.34045  1.0000
  N   N51       1.0  0.64602  0.80616  0.33470  1.0000
  N   N52       1.0  0.68517  0.75858  0.34507  1.0000
  N   N53       1.0  0.63374  0.73988  0.34399  1.0000
  C   C271      1.0  0.34987  0.21166  0.34112  1.0000
  C   C272      1.0  0.33444  0.21677  0.34171  1.0000
  C   C273      1.0  0.32988  0.23626  0.34263  1.0000
  C   C274      1.0  0.34101  0.25078  0.34585  1.0000
  C   C275      1.0  0.35649  0.24598  0.34583  1.0000
  C   C276      1.0  0.36078  0.22640  0.34116  1.0000
  H   H166      1.0  0.33783  0.26494  0.34760  1.0000
  H   H167      1.0  0.37200  0.22286  0.33811  1.0000
  H   H168      1.0  0.32643  0.20617  0.34009  1.0000
  N   N54       1.0  0.35453  0.19356  0.33378  1.0000
  N   N55       1.0  0.31537  0.24115  0.34550  1.0000
  N   N56       1.0  0.36679  0.25987  0.34417  1.0000
  C   C277      1.0  0.34942  0.78768  0.32891  1.0000
  C   C278      1.0  0.33405  0.78233  0.32889  1.0000
  C   C279      1.0  0.32966  0.76278  0.32807  1.0000
  C   C280      1.0  0.34092  0.74843  0.32447  1.0000
  C   C281      1.0  0.35635  0.75347  0.32411  1.0000
  C   C282      1.0  0.36047  0.77311  0.32868  1.0000
  H   H169      1.0  0.33786  0.73422  0.32257  1.0000
  H   H170      1.0  0.37166  0.77682  0.33118  1.0000
  H   H171      1.0  0.32593  0.79280  0.33050  1.0000
  N   N57       1.0  0.35389  0.80588  0.33536  1.0000
  N   N58       1.0  0.31519  0.75778  0.32494  1.0000
  N   N59       1.0  0.36677  0.73973  0.32523  1.0000
  C   C283      1.0  0.65074  0.21162  0.32889  1.0000
  C   C284      1.0  0.66612  0.21692  0.32859  1.0000
  C   C285      1.0  0.67054  0.23646  0.32745  1.0000
  C   C286      1.0  0.65932  0.25085  0.32373  1.0000
  C   C287      1.0  0.64388  0.24586  0.32349  1.0000
  C   C288      1.0  0.63972  0.22624  0.32834  1.0000
  H   H172      1.0  0.66241  0.26505  0.32169  1.0000
  H   H173      1.0  0.62853  0.22257  0.33096  1.0000
  H   H174      1.0  0.67422  0.20643  0.33036  1.0000
  N   N60       1.0  0.64617  0.19347  0.33536  1.0000
  N   N61       1.0  0.68502  0.24143  0.32436  1.0000
  N   N62       1.0  0.63348  0.25962  0.32458  1.0000
  C   C289      1.0  0.99600  0.97725  0.38050  1.0000
  C   C290      1.0  0.99557  0.95703  0.37162  1.0000
  H   H175      1.0  0.99499  0.94864  0.42768  1.0000
  C   C291      1.0  0.99397  0.05069  0.34757  1.0000
  C   C292      1.0  0.98824  0.03744  0.41055  1.0000
  C   C293      1.0  0.98947  0.01737  0.39716  1.0000
  H   H176      1.0  0.98313  0.04244  0.46731  1.0000
  C   C294      1.0  0.98431  0.00381  0.46777  1.0000
  C   C295      1.0  0.99488  0.98605  0.47095  1.0000
  H   H177      1.0  0.97279  0.99922  0.45267  1.0000
  H   H178      1.0  0.98427  0.01063  0.53349  1.0000
  H   H179      1.0  0.99053  0.97590  0.52047  1.0000
  H   H180      1.0  0.00615  0.99052  0.49219  1.0000
  C   C296      1.0  0.99188  0.07031  0.36061  1.0000
  H   H181      1.0  0.98332  0.07463  0.39866  1.0000
  C   C297      1.0  0.49600  0.47727  0.38081  1.0000
  C   C298      1.0  0.49557  0.45704  0.37212  1.0000
  H   H182      1.0  0.49498  0.44868  0.42825  1.0000
  C   C299      1.0  0.49397  0.55073  0.34717  1.0000
  C   C300      1.0  0.48826  0.53751  0.41030  1.0000
  C   C301      1.0  0.48949  0.51742  0.39713  1.0000
  H   H183      1.0  0.48314  0.54252  0.46701  1.0000
  C   C302      1.0  0.48434  0.50389  0.46788  1.0000
  C   C303      1.0  0.49489  0.48612  0.47118  1.0000
  H   H184      1.0  0.47280  0.49932  0.45288  1.0000
  H   H185      1.0  0.48432  0.51074  0.53354  1.0000
  H   H186      1.0  0.49054  0.47600  0.52080  1.0000
  H   H187      1.0  0.50617  0.49058  0.49236  1.0000
  C   C304      1.0  0.49187  0.57036  0.35996  1.0000
  H   H188      1.0  0.48325  0.57469  0.39756  1.0000
  C   C305      1.0  0.11140  0.22374  0.37979  1.0000
  C   C306      1.0  0.10360  0.21620  0.45388  1.0000
  C   C307      1.0  0.09115  0.20358  0.44395  1.0000
  C   C308      1.0  0.08646  0.19778  0.35695  1.0000
  C   C309      1.0  0.07315  0.18626  0.34030  1.0000
  C   C310      1.0  0.06831  0.17128  0.39765  1.0000
  C   C311      1.0  0.05485  0.16114  0.38178  1.0000
  H   H189      1.0  0.07461  0.16731  0.45153  1.0000
  H   H190      1.0  0.05159  0.15093  0.42708  1.0000
  H   H191      1.0  0.10654  0.22061  0.51673  1.0000
  N   N63       1.0  0.08269  0.19852  0.52066  1.0000
  O   O29       1.0  0.09055  0.18968  0.57720  1.0000
  O   O30       1.0  0.07681  0.21295  0.55746  1.0000
  C   C312      1.0  0.12224  0.23789  0.39219  1.0000
  H   H192      1.0  0.12091  0.24706  0.44274  1.0000
  C   C313      1.0  0.88919  0.77590  0.38047  1.0000
  C   C314      1.0  0.89694  0.78355  0.45450  1.0000
  C   C315      1.0  0.90929  0.79633  0.44445  1.0000
  C   C316      1.0  0.91391  0.80221  0.35744  1.0000
  C   C317      1.0  0.92721  0.81376  0.34061  1.0000
  C   C318      1.0  0.93211  0.82869  0.39802  1.0000
  C   C319      1.0  0.94562  0.83875  0.38227  1.0000
  H   H193      1.0  0.92583  0.83268  0.45197  1.0000
  H   H194      1.0  0.94892  0.84892  0.42766  1.0000
  H   H195      1.0  0.89405  0.77910  0.51736  1.0000
  N   N64       1.0  0.91770  0.80154  0.52115  1.0000
  O   O31       1.0  0.90975  0.81032  0.57752  1.0000
  O   O32       1.0  0.92369  0.78722  0.55818  1.0000
  C   C320      1.0  0.87843  0.76164  0.39291  1.0000
  H   H196      1.0  0.87982  0.75245  0.44329  1.0000
  C   C321      1.0  0.90668  0.20622  0.38479  1.0000
  C   C322      1.0  0.89436  0.21888  0.37321  1.0000
  H   H197      1.0  0.88940  0.22495  0.42814  1.0000
  C   C323      1.0  0.95498  0.16570  0.35897  1.0000
  C   C324      1.0  0.94957  0.17945  0.42067  1.0000
  C   C325      1.0  0.93593  0.18951  0.40592  1.0000
  H   H198      1.0  0.95566  0.18231  0.47719  1.0000
  C   C326      1.0  0.93012  0.20304  0.47486  1.0000
  C   C327      1.0  0.91264  0.20259  0.47623  1.0000
  H   H199      1.0  0.93405  0.21757  0.45919  1.0000
  H   H200      1.0  0.93426  0.19927  0.54131  1.0000
  H   H201      1.0  0.90861  0.21321  0.52450  1.0000
  H   H202      1.0  0.90879  0.18841  0.49826  1.0000
  C   C328      1.0  0.96899  0.15711  0.37251  1.0000
  H   H203      1.0  0.97605  0.16309  0.41613  1.0000
  C   C329      1.0  0.09358  0.79308  0.38539  1.0000
  C   C330      1.0  0.10588  0.78041  0.37349  1.0000
  H   H204      1.0  0.11084  0.77429  0.42826  1.0000
  C   C331      1.0  0.04548  0.83400  0.36071  1.0000
  C   C332      1.0  0.05082  0.82014  0.42209  1.0000
  C   C333      1.0  0.06440  0.80997  0.40704  1.0000
  H   H205      1.0  0.04471  0.81728  0.47857  1.0000
  C   C334      1.0  0.07015  0.79631  0.47561  1.0000
  C   C335      1.0  0.08763  0.79663  0.47694  1.0000
  H   H206      1.0  0.06616  0.78183  0.45956  1.0000
  H   H207      1.0  0.06603  0.80003  0.54216  1.0000
  H   H208      1.0  0.09162  0.78592  0.52489  1.0000
  H   H209      1.0  0.09155  0.81076  0.49936  1.0000
  C   C336      1.0  0.03149  0.84263  0.37416  1.0000
  H   H210      1.0  0.02432  0.83649  0.41670  1.0000
  C   C337      1.0  0.61164  0.72356  0.38427  1.0000
  C   C338      1.0  0.60384  0.71595  0.45820  1.0000
  C   C339      1.0  0.59142  0.70329  0.44803  1.0000
  C   C340      1.0  0.58674  0.69752  0.36094  1.0000
  C   C341      1.0  0.57339  0.68607  0.34397  1.0000
  C   C342      1.0  0.56843  0.67112  0.40113  1.0000
  C   C343      1.0  0.55492  0.66109  0.38493  1.0000
  H   H211      1.0  0.57468  0.66709  0.45513  1.0000
  H   H212      1.0  0.55158  0.65090  0.43008  1.0000
  H   H213      1.0  0.60675  0.72036  0.52109  1.0000
  N   N65       1.0  0.58298  0.69812  0.52466  1.0000
  O   O33       1.0  0.59086  0.68925  0.58095  1.0000
  O   O34       1.0  0.57707  0.71249  0.56182  1.0000
  C   C344      1.0  0.62239  0.73783  0.39666  1.0000
  H   H214      1.0  0.62086  0.74720  0.44621  1.0000
  C   C345      1.0  0.38885  0.27630  0.38439  1.0000
  C   C346      1.0  0.39663  0.28392  0.45834  1.0000
  C   C347      1.0  0.40899  0.29668  0.44821  1.0000
  C   C348      1.0  0.41363  0.30254  0.36117  1.0000
  C   C349      1.0  0.42699  0.31397  0.34417  1.0000
  C   C350      1.0  0.43203  0.32884  0.40154  1.0000
  C   C351      1.0  0.44559  0.33878  0.38550  1.0000
  H   H215      1.0  0.42581  0.33288  0.45563  1.0000
  H   H216      1.0  0.44898  0.34891  0.43081  1.0000
  H   H217      1.0  0.39376  0.27945  0.52120  1.0000
  N   N66       1.0  0.41742  0.30187  0.52486  1.0000
  O   O35       1.0  0.40950  0.31069  0.58119  1.0000
  O   O36       1.0  0.42339  0.28754  0.56195  1.0000
  C   C352      1.0  0.37816  0.26194  0.39670  1.0000
  H   H218      1.0  0.37971  0.25258  0.44620  1.0000
  C   C353      1.0  0.40628  0.70573  0.38104  1.0000
  C   C354      1.0  0.39394  0.71834  0.36948  1.0000
  H   H219      1.0  0.38897  0.72437  0.42445  1.0000
  C   C355      1.0  0.45487  0.66572  0.35559  1.0000
  C   C356      1.0  0.44933  0.67939  0.41724  1.0000
  C   C357      1.0  0.43563  0.68930  0.40235  1.0000
  H   H220      1.0  0.45538  0.68231  0.47389  1.0000
  C   C358      1.0  0.42971  0.70275  0.47132  1.0000
  C   C359      1.0  0.41223  0.70210  0.47251  1.0000
  H   H221      1.0  0.43354  0.71733  0.45580  1.0000
  H   H222      1.0  0.43385  0.69900  0.53779  1.0000
  H   H223      1.0  0.40811  0.71264  0.52090  1.0000
  H   H224      1.0  0.40847  0.68787  0.49429  1.0000
  C   C360      1.0  0.46892  0.65725  0.36950  1.0000
  H   H225      1.0  0.47594  0.66336  0.41294  1.0000
  C   C361      1.0  0.59398  0.29353  0.38146  1.0000
  C   C362      1.0  0.60632  0.28092  0.36956  1.0000
  H   H226      1.0  0.61129  0.27482  0.42437  1.0000
  C   C363      1.0  0.54560  0.33394  0.35724  1.0000
  C   C364      1.0  0.55106  0.32015  0.41857  1.0000
  C   C365      1.0  0.56470  0.31012  0.40332  1.0000
  H   H227      1.0  0.54501  0.31724  0.47519  1.0000
  C   C366      1.0  0.57056  0.29655  0.47191  1.0000
  C   C367      1.0  0.58805  0.29708  0.47304  1.0000
  H   H228      1.0  0.56668  0.28201  0.45599  1.0000
  H   H229      1.0  0.56644  0.30023  0.53849  1.0000
  H   H230      1.0  0.59213  0.28645  0.52112  1.0000
  H   H231      1.0  0.59187  0.31126  0.49520  1.0000
  C   C368      1.0  0.53157  0.34245  0.37112  1.0000
  H   H232      1.0  0.52444  0.33619  0.41345  1.0000
  C   C369      1.0  0.37591  0.09141  0.36330  1.0000
  C   C370      1.0  0.38239  0.07306  0.35066  1.0000
  H   H233      1.0  0.38550  0.06512  0.40522  1.0000
  C   C371      1.0  0.35524  0.16003  0.34745  1.0000
  C   C372      1.0  0.35333  0.14463  0.40791  1.0000
  C   C373      1.0  0.35902  0.12606  0.38886  1.0000
  H   H234      1.0  0.34785  0.14695  0.46709  1.0000
  C   C374      1.0  0.35802  0.11049  0.45677  1.0000
  C   C375      1.0  0.37267  0.09828  0.45557  1.0000
  H   H235      1.0  0.34835  0.10132  0.44096  1.0000
  H   H236      1.0  0.35638  0.11626  0.52390  1.0000
  H   H237      1.0  0.37130  0.08627  0.50203  1.0000
  H   H238      1.0  0.38217  0.10703  0.47851  1.0000
  C   C376      1.0  0.34901  0.17791  0.36606  1.0000
  H   H239      1.0  0.33994  0.17855  0.40510  1.0000
  C   C377      1.0  0.62495  0.90846  0.36498  1.0000
  C   C378      1.0  0.61867  0.92693  0.35205  1.0000
  H   H240      1.0  0.61559  0.93492  0.40649  1.0000
  C   C379      1.0  0.64527  0.83966  0.34937  1.0000
  C   C380      1.0  0.64721  0.85503  0.40997  1.0000
  C   C381      1.0  0.64157  0.87363  0.39102  1.0000
  H   H241      1.0  0.65268  0.85267  0.46915  1.0000
  C   C382      1.0  0.64260  0.88918  0.45900  1.0000
  C   C383      1.0  0.62804  0.90155  0.45735  1.0000
  H   H242      1.0  0.65236  0.89823  0.44359  1.0000
  H   H243      1.0  0.64413  0.88337  0.52617  1.0000
  H   H244      1.0  0.62944  0.91354  0.50389  1.0000
  H   H245      1.0  0.61846  0.89291  0.47991  1.0000
  C   C384      1.0  0.65149  0.82175  0.36775  1.0000
  H   H246      1.0  0.66052  0.82106  0.40714  1.0000
  C   C385      1.0  0.61534  0.06542  0.38847  1.0000
  C   C386      1.0  0.61923  0.07629  0.46437  1.0000
  C   C387      1.0  0.62586  0.09477  0.45711  1.0000
  C   C388      1.0  0.62816  0.10308  0.37118  1.0000
  C   C389      1.0  0.63432  0.12209  0.35687  1.0000
  C   C390      1.0  0.63127  0.13776  0.41459  1.0000
  C   C391      1.0  0.63702  0.15624  0.39774  1.0000
  H   H247      1.0  0.62435  0.13618  0.46842  1.0000
  H   H248      1.0  0.63472  0.16698  0.44246  1.0000
  H   H249      1.0  0.61741  0.07062  0.52652  1.0000
  N   N67       1.0  0.63098  0.10415  0.53541  1.0000
  O   O37       1.0  0.62046  0.10701  0.59016  1.0000
  O   O38       1.0  0.64124  0.09479  0.57370  1.0000
  C   C392      1.0  0.60788  0.04804  0.39788  1.0000
  H   H250      1.0  0.60009  0.04688  0.44546  1.0000
  C   C393      1.0  0.38248  0.93478  0.39117  1.0000
  C   C394      1.0  0.37857  0.92374  0.46650  1.0000
  C   C395      1.0  0.37223  0.90511  0.45834  1.0000
  C   C396      1.0  0.37023  0.89684  0.37207  1.0000
  C   C397      1.0  0.36454  0.87763  0.35686  1.0000
  C   C398      1.0  0.36783  0.86202  0.41443  1.0000
  C   C399      1.0  0.36253  0.84336  0.39681  1.0000
  H   H251      1.0  0.37461  0.86380  0.46877  1.0000
  H   H252      1.0  0.36497  0.83267  0.44153  1.0000
  H   H253      1.0  0.38024  0.92934  0.52894  1.0000
  N   N68       1.0  0.36713  0.89549  0.53607  1.0000
  O   O39       1.0  0.37760  0.89285  0.59139  1.0000
  O   O40       1.0  0.35666  0.90454  0.57397  1.0000
  C   C400      1.0  0.38997  0.95213  0.40165  1.0000
  H   H254      1.0  0.39752  0.95324  0.45067  1.0000
  C   C401      1.0  0.87563  0.59150  0.36455  1.0000
  C   C402      1.0  0.88223  0.57320  0.35229  1.0000
  H   H255      1.0  0.88540  0.56534  0.40700  1.0000
  C   C403      1.0  0.85468  0.65996  0.34729  1.0000
  C   C404      1.0  0.85283  0.64460  0.40808  1.0000
  C   C405      1.0  0.85858  0.62605  0.38941  1.0000
  H   H256      1.0  0.84737  0.64697  0.46730  1.0000
  C   C406      1.0  0.85767  0.61055  0.45768  1.0000
  C   C407      1.0  0.87237  0.59844  0.45668  1.0000
  H   H257      1.0  0.84803  0.60130  0.44217  1.0000
  H   H258      1.0  0.85602  0.61638  0.52470  1.0000
  H   H259      1.0  0.87106  0.58646  0.50338  1.0000
  H   H260      1.0  0.88184  0.60727  0.47941  1.0000
  C   C408      1.0  0.84847  0.67786  0.36577  1.0000
  H   H261      1.0  0.83937  0.67854  0.40460  1.0000
  C   C409      1.0  0.12505  0.40840  0.36664  1.0000
  C   C410      1.0  0.11877  0.42687  0.35379  1.0000
  H   H262      1.0  0.11568  0.43484  0.40824  1.0000
  C   C411      1.0  0.14540  0.33959  0.35035  1.0000
  C   C412      1.0  0.14730  0.35493  0.41121  1.0000
  C   C413      1.0  0.14165  0.37353  0.39251  1.0000
  H   H263      1.0  0.15275  0.35253  0.47042  1.0000
  C   C414      1.0  0.14266  0.38904  0.46072  1.0000
  C   C415      1.0  0.12812  0.40145  0.45898  1.0000
  H   H264      1.0  0.15244  0.39807  0.44564  1.0000
  H   H265      1.0  0.14414  0.38318  0.52783  1.0000
  H   H266      1.0  0.12953  0.41342  0.50561  1.0000
  H   H267      1.0  0.11852  0.39283  0.48141  1.0000
  C   C416      1.0  0.15159  0.32166  0.36864  1.0000
  H   H268      1.0  0.16050  0.32088  0.40896  1.0000
  C   C417      1.0  0.11548  0.56545  0.38770  1.0000
  C   C418      1.0  0.11943  0.57624  0.46372  1.0000
  C   C419      1.0  0.12614  0.59468  0.45668  1.0000
  C   C420      1.0  0.12848  0.60303  0.37085  1.0000
  C   C421      1.0  0.13471  0.62201  0.35679  1.0000
  C   C422      1.0  0.13173  0.63765  0.41474  1.0000
  C   C423      1.0  0.13755  0.65611  0.39810  1.0000
  H   H269      1.0  0.12480  0.63608  0.46854  1.0000
  H   H270      1.0  0.13527  0.66684  0.44291  1.0000
  H   H271      1.0  0.11758  0.57055  0.52581  1.0000
  N   N69       1.0  0.13131  0.60398  0.53509  1.0000
  O   O41       1.0  0.12080  0.60687  0.58990  1.0000
  O   O42       1.0  0.14153  0.59452  0.57321  1.0000
  C   C424      1.0  0.10795  0.54812  0.39695  1.0000
  H   H272      1.0  0.10013  0.54700  0.44437  1.0000
  C   C425      1.0  0.88243  0.43479  0.39046  1.0000
  C   C426      1.0  0.87847  0.42382  0.46593  1.0000
  C   C427      1.0  0.87204  0.40524  0.45802  1.0000
  C   C428      1.0  0.87000  0.39693  0.37186  1.0000
  C   C429      1.0  0.86422  0.37775  0.35692  1.0000
  C   C430      1.0  0.86744  0.36216  0.41469  1.0000
  C   C431      1.0  0.86206  0.34352  0.39732  1.0000
  H   H273      1.0  0.87423  0.36391  0.46897  1.0000
  H   H274      1.0  0.86448  0.33283  0.44211  1.0000
  H   H275      1.0  0.88017  0.42944  0.52830  1.0000
  N   N70       1.0  0.86691  0.39570  0.53589  1.0000
  O   O43       1.0  0.87738  0.39301  0.59120  1.0000
  O   O44       1.0  0.85648  0.40484  0.57371  1.0000
  C   C432      1.0  0.88998  0.45210  0.40076  1.0000
  H   H276      1.0  0.89756  0.45316  0.44962  1.0000
  C   C433      1.0  0.51743  0.99922  0.38623  1.0000
  C   C434      1.0  0.53314  0.00200  0.37828  1.0000
  H   H277      1.0  0.53965  0.00262  0.43467  1.0000
  C   C435      1.0  0.46026  0.99295  0.35485  1.0000
  C   C436      1.0  0.47095  0.98557  0.41584  1.0000
  C   C437      1.0  0.48661  0.98760  0.40083  1.0000
  H   H278      1.0  0.46732  0.97877  0.47255  1.0000
  C   C438      1.0  0.49762  0.98121  0.46974  1.0000
  C   C439      1.0  0.51072  0.99592  0.47615  1.0000
  H   H279      1.0  0.50208  0.96713  0.45065  1.0000
  H   H280      1.0  0.49236  0.97979  0.53536  1.0000
  H   H281      1.0  0.51907  0.99045  0.52347  1.0000
  H   H282      1.0  0.50646  0.00962  0.50177  1.0000
  C   C440      1.0  0.44495  0.99018  0.36997  1.0000
  H   H283      1.0  0.44174  0.97962  0.41059  1.0000
  C   C441      1.0  0.01746  0.49921  0.38564  1.0000
  C   C442      1.0  0.03318  0.50199  0.37779  1.0000
  H   H284      1.0  0.03968  0.50257  0.43422  1.0000
  C   C443      1.0  0.96030  0.49286  0.35391  1.0000
  C   C444      1.0  0.97099  0.48545  0.41481  1.0000
  C   C445      1.0  0.98665  0.48755  0.39994  1.0000
  H   H285      1.0  0.96736  0.47860  0.47138  1.0000
  C   C446      1.0  0.99765  0.48112  0.46877  1.0000
  C   C447      1.0  0.01074  0.49584  0.47548  1.0000
  H   H286      1.0  0.00213  0.46705  0.44947  1.0000
  H   H287      1.0  0.99239  0.47964  0.53436  1.0000
  H   H288      1.0  0.01910  0.49034  0.52276  1.0000
  H   H289      1.0  0.00647  0.50952  0.50129  1.0000
  C   C448      1.0  0.94499  0.49005  0.36893  1.0000
  H   H290      1.0  0.94178  0.47941  0.40911  1.0000
  C   C449      1.0  0.21060  0.25921  0.38325  1.0000
  C   C450      1.0  0.21990  0.25698  0.45872  1.0000
  C   C451      1.0  0.23544  0.25251  0.45087  1.0000
  C   C452      1.0  0.24213  0.25097  0.36464  1.0000
  C   C453      1.0  0.25797  0.24710  0.34989  1.0000
  C   C454      1.0  0.26948  0.25425  0.40647  1.0000
  C   C455      1.0  0.28480  0.25032  0.39031  1.0000
  H   H291      1.0  0.26696  0.26288  0.45941  1.0000
  H   H292      1.0  0.29261  0.25539  0.43475  1.0000
  H   H293      1.0  0.21530  0.25836  0.52109  1.0000
  N   N71       1.0  0.24382  0.24836  0.52904  1.0000
  O   O45       1.0  0.24393  0.26228  0.58266  1.0000
  O   O46       1.0  0.23883  0.23376  0.56879  1.0000
  C   C456      1.0  0.19573  0.26490  0.39362  1.0000
  H   H294      1.0  0.19340  0.27468  0.44023  1.0000
  C   C457      1.0  0.78995  0.74087  0.38404  1.0000
  C   C458      1.0  0.78062  0.74311  0.45937  1.0000
  C   C459      1.0  0.76508  0.74755  0.45127  1.0000
  C   C460      1.0  0.75841  0.74905  0.36494  1.0000
  C   C461      1.0  0.74257  0.75283  0.34992  1.0000
  C   C462      1.0  0.73106  0.74565  0.40640  1.0000
  C   C463      1.0  0.71574  0.74950  0.39003  1.0000
  H   H295      1.0  0.73359  0.73704  0.45943  1.0000
  H   H296      1.0  0.70793  0.74442  0.43444  1.0000
  H   H297      1.0  0.78519  0.74176  0.52182  1.0000
  N   N72       1.0  0.75665  0.75171  0.52930  1.0000
  O   O47       1.0  0.75654  0.73781  0.58302  1.0000
  O   O48       1.0  0.76161  0.76633  0.56901  1.0000
  C   C464      1.0  0.80481  0.73516  0.39464  1.0000
  H   H298      1.0  0.80712  0.72543  0.44153  1.0000
  C   C465      1.0  0.76802  0.25124  0.37966  1.0000
  C   C466      1.0  0.78352  0.25536  0.36931  1.0000
  H   H299      1.0  0.79017  0.25671  0.42480  1.0000
  C   C467      1.0  0.71106  0.23985  0.35552  1.0000
  C   C468      1.0  0.72239  0.23370  0.41550  1.0000
  C   C469      1.0  0.73783  0.23736  0.39906  1.0000
  H   H300      1.0  0.71941  0.22634  0.47205  1.0000
  C   C470      1.0  0.74941  0.23188  0.46638  1.0000
  C   C471      1.0  0.76187  0.24749  0.47060  1.0000
  H   H301      1.0  0.75438  0.21810  0.44701  1.0000
  H   H302      1.0  0.74449  0.23020  0.53280  1.0000
  H   H303      1.0  0.77068  0.24263  0.51652  1.0000
  H   H304      1.0  0.75715  0.26088  0.49691  1.0000
  C   C472      1.0  0.69609  0.23468  0.37042  1.0000
  H   H305      1.0  0.69394  0.22462  0.41601  1.0000
  C   C473      1.0  0.23218  0.74803  0.37951  1.0000
  C   C474      1.0  0.21668  0.74390  0.36906  1.0000
  H   H306      1.0  0.21002  0.74254  0.42451  1.0000
  C   C475      1.0  0.28915  0.75937  0.35587  1.0000
  C   C476      1.0  0.27780  0.76554  0.41572  1.0000
  C   C477      1.0  0.26236  0.76190  0.39912  1.0000
  H   H307      1.0  0.28077  0.77290  0.47227  1.0000
  C   C478      1.0  0.25077  0.76740  0.46630  1.0000
  C   C479      1.0  0.23830  0.75179  0.47048  1.0000
  H   H308      1.0  0.24580  0.78118  0.44679  1.0000
  H   H309      1.0  0.25567  0.76911  0.53276  1.0000
  H   H310      1.0  0.22949  0.75667  0.51629  1.0000
  H   H311      1.0  0.24302  0.73842  0.49690  1.0000
  C   C480      1.0  0.30411  0.76454  0.37082  1.0000
  H   H312      1.0  0.30624  0.77464  0.41631  1.0000
