data_image0
_chemical_formula_structural       C4HOCHNC2HC3H3CNHC4HOCHNC2HC3H3CNHC3HOCOHNCH4C2H2CNC3H3C3HOCOHNCH4C2H2CNC3H3C5HC4NHCNHC4HC3NCH3C3NCH2C5HC4NHCNHC4HC3NCH3C3NCH2C4OHC3OHCOCNHCNHC2H3C2H2C3NCH3C3NCH3C4OHC3OHCOCNHCNHC2H3C2H2C3NCH3C3NCH3C4HOC4OHC4HOC4OHC4HOC4OHCNHCNHCNHCNHCNHCNHC4H4C4H4C4H4C3NCH3C3NCH3C3NCH3C3NCH3C3NCH3C3NCH3C4HOC4OHC4HOC4OHC4HOC4OHCNHCNHCNHCNHCNHCNHC4H4C4H4C4H4C3NCH3C3NCH3C3NCH3C3NCH3C3NCH3C3NCH3
_chemical_formula_sum              "C264 H168 O24 N48"
_cell_length_a       46.4792
_cell_length_b       46.4792
_cell_length_c       14.8193
_cell_angle_alpha    90
_cell_angle_beta     90
_cell_angle_gamma    120

_space_group_name_H-M_alt    "P 1"
_space_group_IT_number       1

loop_
  _space_group_symop_operation_xyz
  'x, y, z'

loop_
  _atom_site_type_symbol
  _atom_site_label
  _atom_site_symmetry_multiplicity
  _atom_site_fract_x
  _atom_site_fract_y
  _atom_site_fract_z
  _atom_site_occupancy
  C   C1        1.0  0.02721  0.26515  0.34568  1.0000
  C   C2        1.0  0.04644  0.30075  0.34512  1.0000
  C   C3        1.0  0.08157  0.31888  0.34242  1.0000
  C   C4        1.0  0.09895  0.30118  0.34294  1.0000
  H   H1        1.0  0.03527  0.31478  0.34506  1.0000
  O   O1        1.0  0.13287  0.31822  0.34483  1.0000
  C   C5        1.0  0.11826  0.25283  0.25931  1.0000
  H   H2        1.0  0.11151  0.25924  0.20024  1.0000
  N   N1        1.0  0.11840  0.36714  0.26244  1.0000
  C   C6        1.0  0.08176  0.26609  0.34296  1.0000
  C   C7        1.0  0.04661  0.24895  0.34467  1.0000
  H   H3        1.0  0.03556  0.22376  0.34435  1.0000
  C   C8        1.0  0.11505  0.24563  0.42023  1.0000
  C   C9        1.0  0.10050  0.24958  0.33990  1.0000
  C   C10       1.0  0.10226  0.24463  0.51235  1.0000
  H   H4        1.0  0.07809  0.24314  0.51221  1.0000
  H   H5        1.0  0.11977  0.26689  0.54934  1.0000
  H   H6        1.0  0.09957  0.22285  0.54786  1.0000
  C   C11       1.0  0.10006  0.35390  0.33841  1.0000
  N   N2        1.0  0.11389  0.37055  0.41632  1.0000
  H   H7        1.0  0.13530  0.41612  0.54811  1.0000
  C   C12       1.0  0.02721  0.76514  0.34568  1.0000
  C   C13       1.0  0.04644  0.80075  0.34512  1.0000
  C   C14       1.0  0.08156  0.81888  0.34242  1.0000
  C   C15       1.0  0.09895  0.80118  0.34294  1.0000
  H   H8        1.0  0.03527  0.81477  0.34506  1.0000
  O   O2        1.0  0.13287  0.81822  0.34483  1.0000
  C   C16       1.0  0.11826  0.75283  0.25931  1.0000
  H   H9        1.0  0.11151  0.75924  0.20024  1.0000
  N   N3        1.0  0.11840  0.86714  0.26244  1.0000
  C   C17       1.0  0.08176  0.76609  0.34296  1.0000
  C   C18       1.0  0.04661  0.74895  0.34467  1.0000
  H   H10       1.0  0.03556  0.72376  0.34435  1.0000
  C   C19       1.0  0.11505  0.74563  0.42023  1.0000
  C   C20       1.0  0.10049  0.74958  0.33990  1.0000
  C   C21       1.0  0.10226  0.74463  0.51235  1.0000
  H   H11       1.0  0.07809  0.74314  0.51221  1.0000
  H   H12       1.0  0.11977  0.76689  0.54934  1.0000
  H   H13       1.0  0.09957  0.72285  0.54786  1.0000
  C   C22       1.0  0.10006  0.85391  0.33841  1.0000
  N   N4        1.0  0.11388  0.87055  0.41632  1.0000
  H   H14       1.0  0.13529  0.91612  0.54811  1.0000
  C   C23       1.0  0.21444  0.24868  0.34439  1.0000
  C   C24       1.0  0.19632  0.26569  0.34223  1.0000
  C   C25       1.0  0.21402  0.30076  0.34310  1.0000
  H   H15       1.0  0.20042  0.22348  0.34358  1.0000
  O   O3        1.0  0.19698  0.31764  0.34502  1.0000
  C   C26       1.0  0.21440  0.41633  0.34292  1.0000
  O   O4        1.0  0.19750  0.38240  0.34480  1.0000
  H   H16       1.0  0.22656  0.03223  0.34366  1.0000
  N   N5        1.0  0.14802  0.25406  0.26133  1.0000
  C   C27       1.0  0.14687  0.39696  0.26018  1.0000
  H   H17       1.0  0.16007  0.40347  0.20118  1.0000
  H   H18       1.0  0.13899  0.32172  0.40907  1.0000
  H   H19       1.0  0.19355  0.32032  0.40927  1.0000
  H   H20       1.0  0.22678  0.19736  0.34466  1.0000
  C   C28       1.0  0.19651  0.43353  0.34321  1.0000
  C   C29       1.0  0.21455  0.46869  0.34529  1.0000
  H   H21       1.0  0.19483  0.37627  0.40904  1.0000
  H   H22       1.0  0.20043  0.47975  0.34573  1.0000
  C   C30       1.0  0.16129  0.24916  0.33743  1.0000
  N   N6        1.0  0.14487  0.24665  0.41559  1.0000
  C   C31       1.0  0.14264  0.40041  0.42089  1.0000
  C   C32       1.0  0.16126  0.41486  0.34074  1.0000
  C   C33       1.0  0.15439  0.41335  0.51290  1.0000
  H   H23       1.0  0.17709  0.43750  0.51258  1.0000
  H   H24       1.0  0.15910  0.39589  0.55028  1.0000
  H   H25       1.0  0.22585  0.13219  0.54812  1.0000
  C   C34       1.0  0.21444  0.74868  0.34439  1.0000
  C   C35       1.0  0.19632  0.76569  0.34223  1.0000
  C   C36       1.0  0.21402  0.80076  0.34310  1.0000
  H   H26       1.0  0.20042  0.72348  0.34358  1.0000
  O   O5        1.0  0.19698  0.81764  0.34502  1.0000
  C   C37       1.0  0.21440  0.91633  0.34292  1.0000
  O   O6        1.0  0.19751  0.88240  0.34480  1.0000
  H   H27       1.0  0.22656  0.53223  0.34366  1.0000
  N   N7        1.0  0.14802  0.75406  0.26133  1.0000
  C   C38       1.0  0.14686  0.89696  0.26018  1.0000
  H   H28       1.0  0.16007  0.90348  0.20118  1.0000
  H   H29       1.0  0.13899  0.82172  0.40907  1.0000
  H   H30       1.0  0.19355  0.82032  0.40927  1.0000
  H   H31       1.0  0.22678  0.69736  0.34466  1.0000
  C   C39       1.0  0.19651  0.93353  0.34321  1.0000
  C   C40       1.0  0.21455  0.96869  0.34529  1.0000
  H   H32       1.0  0.19483  0.87627  0.40904  1.0000
  H   H33       1.0  0.20043  0.97975  0.34573  1.0000
  C   C41       1.0  0.16129  0.74916  0.33743  1.0000
  N   N8        1.0  0.14487  0.74665  0.41559  1.0000
  C   C42       1.0  0.14264  0.90041  0.42089  1.0000
  C   C43       1.0  0.16126  0.91486  0.34074  1.0000
  C   C44       1.0  0.15439  0.91335  0.51290  1.0000
  H   H34       1.0  0.17709  0.93750  0.51258  1.0000
  H   H35       1.0  0.15910  0.89589  0.55028  1.0000
  H   H36       1.0  0.22585  0.63219  0.54812  1.0000
  C   C45       1.0  0.25005  0.26504  0.34534  1.0000
  C   C46       1.0  0.26816  0.24709  0.34537  1.0000
  C   C47       1.0  0.25014  0.48806  0.34572  1.0000
  C   C48       1.0  0.26650  0.46881  0.34456  1.0000
  C   C49       1.0  0.24947  0.43368  0.34221  1.0000
  H   H37       1.0  0.29169  0.47997  0.34364  1.0000
  C   C50       1.0  0.26810  0.02413  0.34568  1.0000
  C   C51       1.0  0.26878  0.07851  0.34190  1.0000
  C   C52       1.0  0.25175  0.04339  0.34451  1.0000
  C   C53       1.0  0.26225  0.36826  0.25977  1.0000
  N   N9        1.0  0.26100  0.39678  0.26145  1.0000
  H   H38       1.0  0.25588  0.35510  0.20068  1.0000
  C   C54       1.0  0.25596  0.14393  0.25950  1.0000
  N   N10       1.0  0.25724  0.11542  0.26120  1.0000
  H   H39       1.0  0.26235  0.15712  0.20047  1.0000
  C   C55       1.0  0.24911  0.31867  0.34308  1.0000
  C   C56       1.0  0.26624  0.30064  0.34482  1.0000
  C   C57       1.0  0.25197  0.21150  0.34474  1.0000
  C   C58       1.0  0.26910  0.19347  0.34319  1.0000
  H   H40       1.0  0.29143  0.31477  0.34497  1.0000
  C   C59       1.0  0.26965  0.37257  0.42048  1.0000
  C   C60       1.0  0.26568  0.35392  0.34053  1.0000
  C   C61       1.0  0.26595  0.41514  0.33720  1.0000
  N   N11       1.0  0.26856  0.40132  0.41547  1.0000
  C   C62       1.0  0.27055  0.36082  0.51272  1.0000
  H   H41       1.0  0.27200  0.33812  0.51277  1.0000
  H   H42       1.0  0.24826  0.35611  0.54948  1.0000
  H   H43       1.0  0.29231  0.37992  0.54831  1.0000
  C   C63       1.0  0.24857  0.13960  0.42038  1.0000
  C   C64       1.0  0.25256  0.15822  0.34035  1.0000
  C   C65       1.0  0.25230  0.09705  0.33694  1.0000
  N   N12       1.0  0.24968  0.11085  0.41525  1.0000
  C   C66       1.0  0.24762  0.15130  0.51263  1.0000
  H   H44       1.0  0.24615  0.17400  0.51271  1.0000
  H   H45       1.0  0.26990  0.15601  0.54946  1.0000
  C   C67       1.0  0.25005  0.76504  0.34534  1.0000
  C   C68       1.0  0.26816  0.74709  0.34537  1.0000
  C   C69       1.0  0.25014  0.98806  0.34572  1.0000
  C   C70       1.0  0.26650  0.96881  0.34456  1.0000
  C   C71       1.0  0.24947  0.93368  0.34221  1.0000
  H   H46       1.0  0.29169  0.97997  0.34364  1.0000
  C   C72       1.0  0.26810  0.52413  0.34568  1.0000
  C   C73       1.0  0.26878  0.57852  0.34190  1.0000
  C   C74       1.0  0.25175  0.54339  0.34451  1.0000
  C   C75       1.0  0.26225  0.86826  0.25977  1.0000
  N   N13       1.0  0.26100  0.89678  0.26145  1.0000
  H   H47       1.0  0.25588  0.85510  0.20068  1.0000
  C   C76       1.0  0.25596  0.64393  0.25950  1.0000
  N   N14       1.0  0.25724  0.61542  0.26120  1.0000
  H   H48       1.0  0.26235  0.65712  0.20047  1.0000
  C   C77       1.0  0.24911  0.81867  0.34308  1.0000
  C   C78       1.0  0.26624  0.80064  0.34482  1.0000
  C   C79       1.0  0.25197  0.71150  0.34474  1.0000
  C   C80       1.0  0.26910  0.69347  0.34319  1.0000
  H   H49       1.0  0.29143  0.81477  0.34497  1.0000
  C   C81       1.0  0.26965  0.87257  0.42048  1.0000
  C   C82       1.0  0.26568  0.85392  0.34053  1.0000
  C   C83       1.0  0.26595  0.91515  0.33720  1.0000
  N   N15       1.0  0.26856  0.90132  0.41547  1.0000
  C   C84       1.0  0.27055  0.86082  0.51272  1.0000
  H   H50       1.0  0.27200  0.83812  0.51277  1.0000
  H   H51       1.0  0.24826  0.85611  0.54948  1.0000
  H   H52       1.0  0.29231  0.87992  0.54831  1.0000
  C   C85       1.0  0.24857  0.63960  0.42038  1.0000
  C   C86       1.0  0.25256  0.65822  0.34035  1.0000
  C   C87       1.0  0.25230  0.59705  0.33694  1.0000
  N   N16       1.0  0.24968  0.61085  0.41525  1.0000
  C   C88       1.0  0.24762  0.65130  0.51263  1.0000
  H   H53       1.0  0.24615  0.67400  0.51271  1.0000
  H   H54       1.0  0.26990  0.65602  0.54946  1.0000
  C   C89       1.0  0.49114  0.24703  0.34568  1.0000
  C   C90       1.0  0.41941  0.21100  0.34296  1.0000
  C   C91       1.0  0.43678  0.19330  0.34241  1.0000
  C   C92       1.0  0.47191  0.21142  0.34510  1.0000
  O   O7        1.0  0.38548  0.19396  0.34487  1.0000
  H   H55       1.0  0.48307  0.19739  0.34495  1.0000
  C   C93       1.0  0.30419  0.21138  0.34339  1.0000
  C   C94       1.0  0.32189  0.24645  0.34247  1.0000
  C   C95       1.0  0.30377  0.26346  0.34458  1.0000
  O   O8        1.0  0.32123  0.19449  0.34545  1.0000
  H   H56       1.0  0.31779  0.28865  0.34393  1.0000
  C   C96       1.0  0.30386  0.09587  0.34250  1.0000
  O   O9        1.0  0.32075  0.12979  0.34422  1.0000
  C   C97       1.0  0.39998  0.25926  0.25960  1.0000
  N   N17       1.0  0.37020  0.25799  0.26205  1.0000
  H   H57       1.0  0.40661  0.25276  0.20047  1.0000
  C   C98       1.0  0.37149  0.11527  0.26003  1.0000
  N   N18       1.0  0.39998  0.14506  0.26235  1.0000
  H   H58       1.0  0.35833  0.10877  0.20097  1.0000
  C   C99       1.0  0.47175  0.26323  0.34472  1.0000
  C   C100      1.0  0.43659  0.24609  0.34298  1.0000
  H   H59       1.0  0.37936  0.19051  0.40912  1.0000
  H   H60       1.0  0.48280  0.28841  0.34443  1.0000
  H   H61       1.0  0.32470  0.19187  0.40972  1.0000
  C   C101      1.0  0.30369  0.04351  0.34520  1.0000
  C   C102      1.0  0.32174  0.07866  0.34298  1.0000
  H   H62       1.0  0.32347  0.13596  0.40844  1.0000
  H   H63       1.0  0.31781  0.03244  0.34573  1.0000
  C   C103      1.0  0.40345  0.26668  0.42036  1.0000
  C   C104      1.0  0.41787  0.26262  0.33997  1.0000
  C   C105      1.0  0.35690  0.26294  0.33812  1.0000
  N   N19       1.0  0.37360  0.26560  0.41588  1.0000
  C   C106      1.0  0.41636  0.26781  0.51240  1.0000
  H   H64       1.0  0.44054  0.26932  0.51209  1.0000
  H   H65       1.0  0.39891  0.24558  0.54961  1.0000
  H   H66       1.0  0.41906  0.28962  0.54778  1.0000
  C   C107      1.0  0.37559  0.11179  0.42067  1.0000
  C   C108      1.0  0.35698  0.09732  0.34047  1.0000
  C   C109      1.0  0.41828  0.15827  0.33838  1.0000
  N   N20       1.0  0.40438  0.14162  0.41623  1.0000
  C   C110      1.0  0.36380  0.09886  0.51267  1.0000
  H   H67       1.0  0.34110  0.07472  0.51234  1.0000
  H   H68       1.0  0.35910  0.11634  0.54999  1.0000
  H   H69       1.0  0.38288  0.09608  0.54797  1.0000
  C   C111      1.0  0.49114  0.74703  0.34568  1.0000
  C   C112      1.0  0.41940  0.71100  0.34296  1.0000
  C   C113      1.0  0.43678  0.69330  0.34241  1.0000
  C   C114      1.0  0.47191  0.71142  0.34510  1.0000
  O   O10       1.0  0.38548  0.69397  0.34487  1.0000
  H   H70       1.0  0.48308  0.69740  0.34495  1.0000
  C   C115      1.0  0.30419  0.71138  0.34339  1.0000
  C   C116      1.0  0.32189  0.74645  0.34247  1.0000
  C   C117      1.0  0.30377  0.76346  0.34458  1.0000
  O   O11       1.0  0.32123  0.69449  0.34545  1.0000
  H   H71       1.0  0.31779  0.78866  0.34393  1.0000
  C   C118      1.0  0.30386  0.59587  0.34250  1.0000
  O   O12       1.0  0.32075  0.62979  0.34422  1.0000
  C   C119      1.0  0.39998  0.75926  0.25960  1.0000
  N   N21       1.0  0.37021  0.75799  0.26205  1.0000
  H   H72       1.0  0.40661  0.75276  0.20047  1.0000
  C   C120      1.0  0.37149  0.61527  0.26003  1.0000
  N   N22       1.0  0.39998  0.64506  0.26235  1.0000
  H   H73       1.0  0.35832  0.60877  0.20097  1.0000
  C   C121      1.0  0.47175  0.76323  0.34472  1.0000
  C   C122      1.0  0.43659  0.74609  0.34298  1.0000
  H   H74       1.0  0.37936  0.69051  0.40912  1.0000
  H   H75       1.0  0.48280  0.78841  0.34443  1.0000
  H   H76       1.0  0.32470  0.69187  0.40972  1.0000
  C   C123      1.0  0.30369  0.54351  0.34520  1.0000
  C   C124      1.0  0.32174  0.57866  0.34298  1.0000
  H   H77       1.0  0.32346  0.63596  0.40844  1.0000
  H   H78       1.0  0.31781  0.53244  0.34573  1.0000
  C   C125      1.0  0.40345  0.76668  0.42036  1.0000
  C   C126      1.0  0.41788  0.76262  0.33997  1.0000
  C   C127      1.0  0.35690  0.76294  0.33812  1.0000
  N   N23       1.0  0.37360  0.76560  0.41588  1.0000
  C   C128      1.0  0.41636  0.76781  0.51240  1.0000
  H   H79       1.0  0.44054  0.76932  0.51209  1.0000
  H   H80       1.0  0.39891  0.74558  0.54961  1.0000
  H   H81       1.0  0.41906  0.78962  0.54778  1.0000
  C   C129      1.0  0.37559  0.61179  0.42067  1.0000
  C   C130      1.0  0.35698  0.59732  0.34047  1.0000
  C   C131      1.0  0.41828  0.65827  0.33838  1.0000
  N   N24       1.0  0.40438  0.64162  0.41623  1.0000
  C   C132      1.0  0.36380  0.59886  0.51267  1.0000
  H   H82       1.0  0.34110  0.57472  0.51234  1.0000
  H   H83       1.0  0.35909  0.61634  0.54999  1.0000
  H   H84       1.0  0.38288  0.59608  0.54797  1.0000
  C   C133      1.0  0.52721  0.26515  0.34568  1.0000
  C   C134      1.0  0.54644  0.30075  0.34512  1.0000
  C   C135      1.0  0.58156  0.31888  0.34242  1.0000
  C   C136      1.0  0.59894  0.30118  0.34294  1.0000
  H   H85       1.0  0.53527  0.31478  0.34506  1.0000
  O   O13       1.0  0.63287  0.31822  0.34483  1.0000
  C   C137      1.0  0.99114  0.24703  0.34568  1.0000
  C   C138      1.0  0.91941  0.21100  0.34296  1.0000
  C   C139      1.0  0.93678  0.19330  0.34241  1.0000
  C   C140      1.0  0.97191  0.21142  0.34510  1.0000
  O   O14       1.0  0.88548  0.19396  0.34487  1.0000
  H   H86       1.0  0.98307  0.19739  0.34495  1.0000
  C   C141      1.0  0.75005  0.26504  0.34534  1.0000
  C   C142      1.0  0.71444  0.24868  0.34439  1.0000
  C   C143      1.0  0.69632  0.26569  0.34223  1.0000
  C   C144      1.0  0.71402  0.30076  0.34310  1.0000
  H   H87       1.0  0.70042  0.22348  0.34358  1.0000
  O   O15       1.0  0.69698  0.31764  0.34502  1.0000
  C   C145      1.0  0.76816  0.24709  0.34537  1.0000
  C   C146      1.0  0.80420  0.21138  0.34339  1.0000
  C   C147      1.0  0.82189  0.24645  0.34247  1.0000
  C   C148      1.0  0.80377  0.26346  0.34458  1.0000
  O   O16       1.0  0.82123  0.19449  0.34545  1.0000
  H   H88       1.0  0.81780  0.28865  0.34393  1.0000
  C   C149      1.0  0.75014  0.48806  0.34572  1.0000
  C   C150      1.0  0.76650  0.46881  0.34456  1.0000
  C   C151      1.0  0.74947  0.43368  0.34221  1.0000
  C   C152      1.0  0.71440  0.41633  0.34292  1.0000
  H   H89       1.0  0.79169  0.47997  0.34364  1.0000
  O   O17       1.0  0.69751  0.38240  0.34480  1.0000
  C   C153      1.0  0.76810  0.02413  0.34568  1.0000
  C   C154      1.0  0.80386  0.09587  0.34250  1.0000
  C   C155      1.0  0.76878  0.07851  0.34190  1.0000
  C   C156      1.0  0.75175  0.04339  0.34451  1.0000
  O   O18       1.0  0.82075  0.12979  0.34422  1.0000
  H   H90       1.0  0.72656  0.03223  0.34366  1.0000
  C   C157      1.0  0.61826  0.25283  0.25931  1.0000
  N   N25       1.0  0.64802  0.25406  0.26133  1.0000
  H   H91       1.0  0.61151  0.25924  0.20024  1.0000
  C   C158      1.0  0.76225  0.36826  0.25977  1.0000
  N   N26       1.0  0.76100  0.39678  0.26145  1.0000
  H   H92       1.0  0.75588  0.35510  0.20068  1.0000
  C   C159      1.0  0.64687  0.39696  0.26018  1.0000
  N   N27       1.0  0.61840  0.36714  0.26244  1.0000
  H   H93       1.0  0.66007  0.40347  0.20118  1.0000
  C   C160      1.0  0.89998  0.25926  0.25960  1.0000
  N   N28       1.0  0.87020  0.25799  0.26205  1.0000
  H   H94       1.0  0.90662  0.25276  0.20047  1.0000
  C   C161      1.0  0.75596  0.14393  0.25950  1.0000
  N   N29       1.0  0.75723  0.11542  0.26120  1.0000
  H   H95       1.0  0.76235  0.15712  0.20047  1.0000
  C   C162      1.0  0.87149  0.11527  0.26003  1.0000
  N   N30       1.0  0.89998  0.14506  0.26235  1.0000
  H   H96       1.0  0.85833  0.10877  0.20097  1.0000
  C   C163      1.0  0.58176  0.26609  0.34296  1.0000
  C   C164      1.0  0.54661  0.24895  0.34467  1.0000
  C   C165      1.0  0.97175  0.26323  0.34472  1.0000
  C   C166      1.0  0.93659  0.24609  0.34298  1.0000
  H   H97       1.0  0.63899  0.32172  0.40907  1.0000
  H   H98       1.0  0.87936  0.19051  0.40912  1.0000
  H   H99       1.0  0.53556  0.22376  0.34435  1.0000
  H   H100      1.0  0.98280  0.28841  0.34443  1.0000
  C   C167      1.0  0.74912  0.31867  0.34308  1.0000
  C   C168      1.0  0.76624  0.30064  0.34482  1.0000
  C   C169      1.0  0.75197  0.21150  0.34474  1.0000
  C   C170      1.0  0.76910  0.19347  0.34319  1.0000
  H   H101      1.0  0.69355  0.32032  0.40927  1.0000
  H   H102      1.0  0.82470  0.19187  0.40972  1.0000
  H   H103      1.0  0.79143  0.31477  0.34497  1.0000
  H   H104      1.0  0.72678  0.19736  0.34466  1.0000
  C   C171      1.0  0.69651  0.43353  0.34321  1.0000
  C   C172      1.0  0.71455  0.46869  0.34529  1.0000
  C   C173      1.0  0.80370  0.04351  0.34520  1.0000
  C   C174      1.0  0.82174  0.07866  0.34298  1.0000
  H   H105      1.0  0.69483  0.37627  0.40904  1.0000
  H   H106      1.0  0.82347  0.13596  0.40844  1.0000
  H   H107      1.0  0.70043  0.47975  0.34573  1.0000
  H   H108      1.0  0.81781  0.03244  0.34573  1.0000
  C   C175      1.0  0.61505  0.24563  0.42023  1.0000
  C   C176      1.0  0.60050  0.24958  0.33990  1.0000
  C   C177      1.0  0.66129  0.24916  0.33743  1.0000
  N   N31       1.0  0.64487  0.24665  0.41559  1.0000
  C   C178      1.0  0.60226  0.24463  0.51235  1.0000
  H   H109      1.0  0.57809  0.24314  0.51221  1.0000
  H   H110      1.0  0.61977  0.26689  0.54934  1.0000
  H   H111      1.0  0.59957  0.22285  0.54786  1.0000
  C   C179      1.0  0.76965  0.37257  0.42048  1.0000
  C   C180      1.0  0.76568  0.35392  0.34053  1.0000
  C   C181      1.0  0.76595  0.41514  0.33720  1.0000
  N   N32       1.0  0.76856  0.40132  0.41547  1.0000
  C   C182      1.0  0.77055  0.36082  0.51272  1.0000
  H   H112      1.0  0.77200  0.33812  0.51277  1.0000
  H   H113      1.0  0.74826  0.35611  0.54948  1.0000
  H   H114      1.0  0.79231  0.37992  0.54831  1.0000
  C   C183      1.0  0.64264  0.40041  0.42089  1.0000
  C   C184      1.0  0.66126  0.41486  0.34074  1.0000
  C   C185      1.0  0.60006  0.35390  0.33841  1.0000
  N   N33       1.0  0.61388  0.37055  0.41632  1.0000
  C   C186      1.0  0.65439  0.41335  0.51290  1.0000
  H   H115      1.0  0.67709  0.43750  0.51258  1.0000
  H   H116      1.0  0.65911  0.39589  0.55028  1.0000
  H   H117      1.0  0.63530  0.41612  0.54811  1.0000
  C   C187      1.0  0.90345  0.26668  0.42036  1.0000
  C   C188      1.0  0.91788  0.26262  0.33997  1.0000
  C   C189      1.0  0.85690  0.26294  0.33812  1.0000
  N   N34       1.0  0.87360  0.26560  0.41588  1.0000
  C   C190      1.0  0.91636  0.26781  0.51240  1.0000
  H   H118      1.0  0.94054  0.26932  0.51209  1.0000
  H   H119      1.0  0.89891  0.24558  0.54961  1.0000
  H   H120      1.0  0.91906  0.28962  0.54778  1.0000
  C   C191      1.0  0.74857  0.13960  0.42038  1.0000
  C   C192      1.0  0.75256  0.15822  0.34035  1.0000
  C   C193      1.0  0.75230  0.09705  0.33694  1.0000
  N   N35       1.0  0.74967  0.11085  0.41525  1.0000
  C   C194      1.0  0.74762  0.15130  0.51263  1.0000
  H   H121      1.0  0.74615  0.17400  0.51271  1.0000
  H   H122      1.0  0.76990  0.15601  0.54946  1.0000
  H   H123      1.0  0.72585  0.13219  0.54812  1.0000
  C   C195      1.0  0.87559  0.11179  0.42067  1.0000
  C   C196      1.0  0.85698  0.09732  0.34047  1.0000
  C   C197      1.0  0.91828  0.15827  0.33838  1.0000
  N   N36       1.0  0.90438  0.14162  0.41623  1.0000
  C   C198      1.0  0.86381  0.09886  0.51267  1.0000
  H   H124      1.0  0.84110  0.07472  0.51234  1.0000
  H   H125      1.0  0.85910  0.11634  0.54999  1.0000
  H   H126      1.0  0.88288  0.09608  0.54797  1.0000
  C   C199      1.0  0.52721  0.76514  0.34568  1.0000
  C   C200      1.0  0.54644  0.80075  0.34512  1.0000
  C   C201      1.0  0.58157  0.81888  0.34242  1.0000
  C   C202      1.0  0.59895  0.80118  0.34294  1.0000
  H   H127      1.0  0.53527  0.81477  0.34506  1.0000
  O   O19       1.0  0.63287  0.81822  0.34483  1.0000
  C   C203      1.0  0.99114  0.74703  0.34568  1.0000
  C   C204      1.0  0.91941  0.71100  0.34296  1.0000
  C   C205      1.0  0.93678  0.69330  0.34241  1.0000
  C   C206      1.0  0.97191  0.71142  0.34510  1.0000
  O   O20       1.0  0.88548  0.69397  0.34487  1.0000
  H   H128      1.0  0.98307  0.69740  0.34495  1.0000
  C   C207      1.0  0.75005  0.76504  0.34534  1.0000
  C   C208      1.0  0.71444  0.74868  0.34439  1.0000
  C   C209      1.0  0.69632  0.76569  0.34223  1.0000
  C   C210      1.0  0.71402  0.80076  0.34310  1.0000
  H   H129      1.0  0.70042  0.72348  0.34358  1.0000
  O   O21       1.0  0.69698  0.81764  0.34502  1.0000
  C   C211      1.0  0.76816  0.74709  0.34537  1.0000
  C   C212      1.0  0.80420  0.71138  0.34339  1.0000
  C   C213      1.0  0.82189  0.74645  0.34247  1.0000
  C   C214      1.0  0.80377  0.76346  0.34458  1.0000
  O   O22       1.0  0.82123  0.69449  0.34545  1.0000
  H   H130      1.0  0.81780  0.78866  0.34393  1.0000
  C   C215      1.0  0.75014  0.98806  0.34572  1.0000
  C   C216      1.0  0.76650  0.96881  0.34456  1.0000
  C   C217      1.0  0.74947  0.93368  0.34221  1.0000
  C   C218      1.0  0.71440  0.91633  0.34292  1.0000
  H   H131      1.0  0.79169  0.97997  0.34364  1.0000
  O   O23       1.0  0.69751  0.88240  0.34480  1.0000
  C   C219      1.0  0.76810  0.52413  0.34568  1.0000
  C   C220      1.0  0.80386  0.59587  0.34250  1.0000
  C   C221      1.0  0.76878  0.57852  0.34190  1.0000
  C   C222      1.0  0.75175  0.54339  0.34451  1.0000
  O   O24       1.0  0.82075  0.62979  0.34422  1.0000
  H   H132      1.0  0.72656  0.53223  0.34366  1.0000
  C   C223      1.0  0.61825  0.75283  0.25931  1.0000
  N   N37       1.0  0.64802  0.75406  0.26133  1.0000
  H   H133      1.0  0.61151  0.75924  0.20024  1.0000
  C   C224      1.0  0.76225  0.86826  0.25977  1.0000
  N   N38       1.0  0.76100  0.89678  0.26145  1.0000
  H   H134      1.0  0.75588  0.85510  0.20068  1.0000
  C   C225      1.0  0.64687  0.89696  0.26018  1.0000
  N   N39       1.0  0.61840  0.86714  0.26244  1.0000
  H   H135      1.0  0.66007  0.90348  0.20118  1.0000
  C   C226      1.0  0.89998  0.75926  0.25960  1.0000
  N   N40       1.0  0.87020  0.75799  0.26205  1.0000
  H   H136      1.0  0.90661  0.75276  0.20047  1.0000
  C   C227      1.0  0.75596  0.64393  0.25950  1.0000
  N   N41       1.0  0.75724  0.61542  0.26120  1.0000
  H   H137      1.0  0.76235  0.65712  0.20047  1.0000
  C   C228      1.0  0.87149  0.61527  0.26003  1.0000
  N   N42       1.0  0.89998  0.64506  0.26235  1.0000
  H   H138      1.0  0.85832  0.60877  0.20097  1.0000
  C   C229      1.0  0.58176  0.76609  0.34296  1.0000
  C   C230      1.0  0.54661  0.74895  0.34467  1.0000
  C   C231      1.0  0.97175  0.76323  0.34472  1.0000
  C   C232      1.0  0.93659  0.74609  0.34298  1.0000
  H   H139      1.0  0.63899  0.82172  0.40907  1.0000
  H   H140      1.0  0.87936  0.69051  0.40912  1.0000
  H   H141      1.0  0.53556  0.72376  0.34435  1.0000
  H   H142      1.0  0.98280  0.78841  0.34443  1.0000
  C   C233      1.0  0.74912  0.81867  0.34308  1.0000
  C   C234      1.0  0.76624  0.80064  0.34482  1.0000
  C   C235      1.0  0.75197  0.71150  0.34474  1.0000
  C   C236      1.0  0.76910  0.69347  0.34319  1.0000
  H   H143      1.0  0.69355  0.82032  0.40927  1.0000
  H   H144      1.0  0.82470  0.69187  0.40972  1.0000
  H   H145      1.0  0.79143  0.81477  0.34497  1.0000
  H   H146      1.0  0.72678  0.69736  0.34466  1.0000
  C   C237      1.0  0.69651  0.93353  0.34321  1.0000
  C   C238      1.0  0.71455  0.96869  0.34529  1.0000
  C   C239      1.0  0.80369  0.54351  0.34520  1.0000
  C   C240      1.0  0.82174  0.57866  0.34298  1.0000
  H   H147      1.0  0.69483  0.87627  0.40904  1.0000
  H   H148      1.0  0.82347  0.63596  0.40844  1.0000
  H   H149      1.0  0.70043  0.97975  0.34573  1.0000
  H   H150      1.0  0.81781  0.53244  0.34573  1.0000
  C   C241      1.0  0.61505  0.74563  0.42023  1.0000
  C   C242      1.0  0.60050  0.74958  0.33990  1.0000
  C   C243      1.0  0.66129  0.74916  0.33743  1.0000
  N   N43       1.0  0.64487  0.74665  0.41559  1.0000
  C   C244      1.0  0.60226  0.74463  0.51235  1.0000
  H   H151      1.0  0.57809  0.74314  0.51221  1.0000
  H   H152      1.0  0.61977  0.76689  0.54934  1.0000
  H   H153      1.0  0.59957  0.72285  0.54786  1.0000
  C   C245      1.0  0.76965  0.87257  0.42048  1.0000
  C   C246      1.0  0.76568  0.85392  0.34053  1.0000
  C   C247      1.0  0.76595  0.91515  0.33720  1.0000
  N   N44       1.0  0.76856  0.90132  0.41547  1.0000
  C   C248      1.0  0.77055  0.86082  0.51272  1.0000
  H   H154      1.0  0.77200  0.83812  0.51277  1.0000
  H   H155      1.0  0.74826  0.85611  0.54948  1.0000
  H   H156      1.0  0.79231  0.87992  0.54831  1.0000
  C   C249      1.0  0.64264  0.90041  0.42089  1.0000
  C   C250      1.0  0.66126  0.91486  0.34074  1.0000
  C   C251      1.0  0.60006  0.85391  0.33841  1.0000
  N   N45       1.0  0.61388  0.87055  0.41632  1.0000
  C   C252      1.0  0.65439  0.91335  0.51290  1.0000
  H   H157      1.0  0.67709  0.93750  0.51258  1.0000
  H   H158      1.0  0.65911  0.89589  0.55028  1.0000
  H   H159      1.0  0.63530  0.91612  0.54811  1.0000
  C   C253      1.0  0.90345  0.76668  0.42036  1.0000
  C   C254      1.0  0.91788  0.76262  0.33997  1.0000
  C   C255      1.0  0.85690  0.76294  0.33812  1.0000
  N   N46       1.0  0.87360  0.76560  0.41588  1.0000
  C   C256      1.0  0.91636  0.76781  0.51240  1.0000
  H   H160      1.0  0.94054  0.76932  0.51209  1.0000
  H   H161      1.0  0.89891  0.74558  0.54961  1.0000
  H   H162      1.0  0.91906  0.78962  0.54778  1.0000
  C   C257      1.0  0.74857  0.63960  0.42038  1.0000
  C   C258      1.0  0.75256  0.65822  0.34035  1.0000
  C   C259      1.0  0.75230  0.59705  0.33694  1.0000
  N   N47       1.0  0.74967  0.61085  0.41525  1.0000
  C   C260      1.0  0.74762  0.65130  0.51263  1.0000
  H   H163      1.0  0.74615  0.67400  0.51271  1.0000
  H   H164      1.0  0.76990  0.65602  0.54946  1.0000
  H   H165      1.0  0.72585  0.63219  0.54812  1.0000
  C   C261      1.0  0.87559  0.61179  0.42067  1.0000
  C   C262      1.0  0.85698  0.59732  0.34047  1.0000
  C   C263      1.0  0.91828  0.65827  0.33838  1.0000
  N   N48       1.0  0.90438  0.64162  0.41623  1.0000
  C   C264      1.0  0.86380  0.59886  0.51267  1.0000
  H   H166      1.0  0.84110  0.57472  0.51234  1.0000
  H   H167      1.0  0.85910  0.61634  0.54999  1.0000
  H   H168      1.0  0.88288  0.59608  0.54797  1.0000
