data_image0
_chemical_formula_structural       CHCH3CNHC2NHCH4C4NH5C6N2H6C6N2H6C2H2C2H2C2H2C2H2C2H2C2H2C2H2C2H2C2H2C2H2C2H2C2H2C3HNC2NH2C3HNC3NH3C3HNC3NH3C4NC2NC2HC4NC2NC2H2C4NC2NC2HC4NC2NC2H2C4NC2NC2H2C4NC2NC2H2C4NH5C6N2H6C6N2H6C2H2C2H2C2H2C2H2C2H2C2H2C2H2C2H2C2H2C2H2C2H2C2H2C3HNC2NH2C3HNC3NH3C3HNC3NH3C4NC2NC2HC4NC2NC2H2C4NC2NC2HC4NC2NC2H2C4NC2NC2H2C4NC2NC2H2C6N2H5C6N2H6C6N2H6C2H2C2H2C2H2C2H2C2H2C2H2C2H2C2H2C2H2C2H2C2H2C2H2C3HNC3NH3C3HNC3NH3C3HNC3NH3C4NC2NC2H2C4NC2NC2H2C4NC2NC2H2C4NC2NC2H2C4NC2NC2H2C4NC2NC2H2C6N2H5C6N2H6C6N2H6C2H2C2H2C2H2C2H2C2H2C2H2C2H2C2H2C2H2C2H2C2H2C2H2C3HNC3NH3C3HNC3NH3C3HNC3NH3C4NC2NC2H2C4NC2NC2H2C4NC2NC2H2C4NC2NC2H2C4NC2NC2H2C4NC2NC2H2
_chemical_formula_sum              "C432 H264 N96"
_cell_length_a       46.1521
_cell_length_b       46.1521
_cell_length_c       14.959
_cell_angle_alpha    90
_cell_angle_beta     90
_cell_angle_gamma    120

_space_group_name_H-M_alt    "P 1"
_space_group_IT_number       1

loop_
  _space_group_symop_operation_xyz
  'x, y, z'

loop_
  _atom_site_type_symbol
  _atom_site_label
  _atom_site_symmetry_multiplicity
  _atom_site_fract_x
  _atom_site_fract_y
  _atom_site_fract_z
  _atom_site_occupancy
  C   C1        1.0  0.02011  0.26052  0.30903  1.0000
  H   H1        1.0  0.02643  0.21848  0.33590  1.0000
  C   C2        1.0  0.02011  0.76052  0.30903  1.0000
  H   H2        1.0  0.02643  0.71847  0.33590  1.0000
  H   H3        1.0  0.01004  0.30063  0.20580  1.0000
  H   H4        1.0  0.01004  0.80063  0.20580  1.0000
  C   C3        1.0  0.04015  0.29625  0.29829  1.0000
  N   N1        1.0  0.02904  0.31284  0.24554  1.0000
  H   H5        1.0  0.04195  0.33682  0.23604  1.0000
  C   C4        1.0  0.03818  0.24386  0.33040  1.0000
  C   C5        1.0  0.04015  0.79625  0.29829  1.0000
  N   N2        1.0  0.02904  0.81284  0.24554  1.0000
  H   H6        1.0  0.04195  0.83681  0.23604  1.0000
  C   C6        1.0  0.03819  0.74386  0.33040  1.0000
  H   H7        1.0  0.05615  0.20932  0.65020  1.0000
  H   H8        1.0  0.04840  0.34286  0.63328  1.0000
  H   H9        1.0  0.05615  0.70932  0.65020  1.0000
  H   H10       1.0  0.04840  0.84286  0.63328  1.0000
  C   C7        1.0  0.48391  0.24201  0.30901  1.0000
  C   C8        1.0  0.43109  0.18830  0.33681  1.0000
  C   C9        1.0  0.46383  0.20628  0.29804  1.0000
  C   C10       1.0  0.07273  0.31424  0.33794  1.0000
  N   N3        1.0  0.47506  0.18968  0.24575  1.0000
  H   H11       1.0  0.99400  0.20193  0.20588  1.0000
  H   H12       1.0  0.46196  0.16575  0.23571  1.0000
  H   H13       1.0  0.51004  0.30063  0.20580  1.0000
  H   H14       1.0  0.12785  0.33349  0.43509  1.0000
  H   H15       1.0  0.37530  0.16884  0.43113  1.0000
  C   C11       1.0  0.26123  0.24244  0.30821  1.0000
  C   C12       1.0  0.31487  0.24365  0.33905  1.0000
  C   C13       1.0  0.29697  0.25810  0.29808  1.0000
  C   C14       1.0  0.24279  0.26020  0.30850  1.0000
  C   C15       1.0  0.20705  0.24458  0.29860  1.0000
  C   C16       1.0  0.18923  0.25907  0.33981  1.0000
  N   N4        1.0  0.31362  0.28566  0.24490  1.0000
  N   N5        1.0  0.19033  0.21700  0.24550  1.0000
  H   H16       1.0  0.30148  0.29237  0.20465  1.0000
  H   H17       1.0  0.33764  0.29680  0.23600  1.0000
  H   H18       1.0  0.16632  0.20597  0.23662  1.0000
  H   H19       1.0  0.20243  0.21033  0.20499  1.0000
  H   H20       1.0  0.17073  0.29418  0.44266  1.0000
  H   H21       1.0  0.33346  0.20847  0.44104  1.0000
  C   C17       1.0  0.26097  0.01941  0.30838  1.0000
  C   C18       1.0  0.25988  0.07188  0.33968  1.0000
  C   C19       1.0  0.24538  0.03957  0.29844  1.0000
  C   C20       1.0  0.24318  0.48322  0.30831  1.0000
  C   C21       1.0  0.25876  0.46306  0.29791  1.0000
  C   C22       1.0  0.24415  0.43059  0.33827  1.0000
  N   N6        1.0  0.21780  0.02873  0.24536  1.0000
  N   N7        1.0  0.28641  0.47403  0.24507  1.0000
  H   H22       1.0  0.21120  0.50996  0.20483  1.0000
  H   H23       1.0  0.20684  0.04174  0.23615  1.0000
  H   H24       1.0  0.29724  0.46091  0.23537  1.0000
  H   H25       1.0  0.29297  0.99280  0.20462  1.0000
  H   H26       1.0  0.20833  0.37572  0.43733  1.0000
  H   H27       1.0  0.29525  0.12599  0.44177  1.0000
  C   C23       1.0  0.11222  0.25608  0.26285  1.0000
  C   C24       1.0  0.14239  0.25554  0.25829  1.0000
  H   H28       1.0  0.15794  0.26721  0.20517  1.0000
  H   H29       1.0  0.10716  0.26783  0.21213  1.0000
  C   C25       1.0  0.08992  0.19997  0.05589  1.0000
  C   C26       1.0  0.11991  0.19900  0.05135  1.0000
  H   H30       1.0  0.07692  0.19452  0.11465  1.0000
  H   H31       1.0  0.12849  0.19272  0.10671  1.0000
  C   C27       1.0  0.24717  0.35645  0.26270  1.0000
  C   C28       1.0  0.24778  0.38718  0.25746  1.0000
  H   H32       1.0  0.23616  0.39095  0.20402  1.0000
  H   H33       1.0  0.23541  0.33948  0.21233  1.0000
  C   C29       1.0  0.30366  0.39139  0.05536  1.0000
  C   C30       1.0  0.30459  0.42232  0.05027  1.0000
  H   H34       1.0  0.30922  0.38401  0.11423  1.0000
  H   H35       1.0  0.31099  0.43734  0.10533  1.0000
  C   C31       1.0  0.14677  0.39143  0.26263  1.0000
  C   C32       1.0  0.11599  0.36134  0.25728  1.0000
  H   H36       1.0  0.11219  0.34595  0.20383  1.0000
  H   H37       1.0  0.16367  0.39659  0.21211  1.0000
  C   C33       1.0  0.11209  0.41274  0.05548  1.0000
  C   C34       1.0  0.08114  0.38278  0.05036  1.0000
  H   H38       1.0  0.11951  0.42565  0.11441  1.0000
  H   H39       1.0  0.06614  0.37412  0.10547  1.0000
  C   C35       1.0  0.39195  0.24679  0.26198  1.0000
  C   C36       1.0  0.36177  0.24730  0.25733  1.0000
  H   H40       1.0  0.34629  0.23568  0.20406  1.0000
  H   H41       1.0  0.39705  0.23507  0.21127  1.0000
  C   C37       1.0  0.41400  0.30266  0.05514  1.0000
  C   C38       1.0  0.38402  0.30364  0.05052  1.0000
  H   H42       1.0  0.42698  0.30811  0.11394  1.0000
  H   H43       1.0  0.37543  0.30993  0.10586  1.0000
  C   C39       1.0  0.25698  0.14596  0.26295  1.0000
  C   C40       1.0  0.25641  0.11523  0.25845  1.0000
  H   H44       1.0  0.26808  0.11135  0.20533  1.0000
  H   H45       1.0  0.26874  0.16277  0.21225  1.0000
  C   C41       1.0  0.20061  0.11214  0.05573  1.0000
  C   C42       1.0  0.19972  0.08122  0.05132  1.0000
  H   H46       1.0  0.19513  0.11969  0.11444  1.0000
  H   H47       1.0  0.19344  0.06637  0.10673  1.0000
  C   C43       1.0  0.35698  0.11090  0.26265  1.0000
  C   C44       1.0  0.38773  0.14099  0.25665  1.0000
  H   H48       1.0  0.39139  0.15622  0.20291  1.0000
  H   H49       1.0  0.33992  0.10555  0.21245  1.0000
  C   C45       1.0  0.39285  0.09060  0.05542  1.0000
  C   C46       1.0  0.42377  0.12057  0.04966  1.0000
  H   H50       1.0  0.38560  0.07778  0.11449  1.0000
  H   H51       1.0  0.43893  0.12931  0.10443  1.0000
  C   C47       1.0  0.46589  0.25872  0.33049  1.0000
  C   C48       1.0  0.43195  0.24172  0.35475  1.0000
  C   C49       1.0  0.41592  0.20669  0.36944  1.0000
  H   H52       1.0  0.47767  0.28411  0.33600  1.0000
  N   N8        1.0  0.38612  0.19191  0.41403  1.0000
  C   C50       1.0  0.08787  0.29586  0.37084  1.0000
  C   C51       1.0  0.07207  0.26089  0.35539  1.0000
  N   N9        1.0  0.11740  0.31056  0.41665  1.0000
  H   H53       1.0  0.12392  0.29713  0.45133  1.0000
  H   H54       1.0  0.38011  0.20545  0.45009  1.0000
  C   C52       1.0  0.24453  0.20766  0.32909  1.0000
  C   C53       1.0  0.26152  0.19087  0.35518  1.0000
  C   C54       1.0  0.29640  0.21016  0.37216  1.0000
  H   H55       1.0  0.21913  0.19396  0.33373  1.0000
  N   N10       1.0  0.31098  0.19554  0.41957  1.0000
  C   C55       1.0  0.20775  0.29247  0.37350  1.0000
  C   C56       1.0  0.24262  0.31173  0.35632  1.0000
  C   C57       1.0  0.25953  0.29498  0.32933  1.0000
  N   N11       1.0  0.19328  0.30704  0.42158  1.0000
  H   H56       1.0  0.28494  0.30869  0.33369  1.0000
  H   H57       1.0  0.20714  0.32681  0.45665  1.0000
  H   H58       1.0  0.29722  0.17554  0.45383  1.0000
  C   C58       1.0  0.29573  0.03742  0.32945  1.0000
  C   C59       1.0  0.31242  0.07100  0.35726  1.0000
  C   C60       1.0  0.29315  0.08661  0.37415  1.0000
  H   H59       1.0  0.30941  0.02569  0.33388  1.0000
  N   N12       1.0  0.30764  0.11552  0.42266  1.0000
  C   C61       1.0  0.21080  0.41574  0.37218  1.0000
  C   C62       1.0  0.19165  0.43151  0.35615  1.0000
  C   C63       1.0  0.20843  0.46523  0.32959  1.0000
  N   N13       1.0  0.19614  0.38653  0.41941  1.0000
  H   H60       1.0  0.19476  0.47697  0.33401  1.0000
  H   H61       1.0  0.17657  0.38059  0.45543  1.0000
  H   H62       1.0  0.32725  0.12139  0.45849  1.0000
  C   C64       1.0  0.15388  0.24470  0.33167  1.0000
  C   C65       1.0  0.13271  0.23214  0.40772  1.0000
  C   C66       1.0  0.10216  0.23286  0.41228  1.0000
  C   C67       1.0  0.09188  0.24564  0.34044  1.0000
  N   N14       1.0  0.08539  0.22507  0.49146  1.0000
  C   C68       1.0  0.09582  0.21598  0.56557  1.0000
  C   C69       1.0  0.12607  0.21513  0.56109  1.0000
  N   N15       1.0  0.14331  0.22359  0.48295  1.0000
  C   C70       1.0  0.07784  0.20847  0.64639  1.0000
  C   C71       1.0  0.13808  0.20667  0.63750  1.0000
  H   H63       1.0  0.15999  0.20619  0.63494  1.0000
  C   C72       1.0  0.25862  0.40970  0.33040  1.0000
  C   C73       1.0  0.27111  0.40124  0.40692  1.0000
  C   C74       1.0  0.27038  0.36997  0.41219  1.0000
  C   C75       1.0  0.25750  0.34672  0.34079  1.0000
  N   N16       1.0  0.27828  0.36120  0.49150  1.0000
  C   C76       1.0  0.28743  0.38089  0.56526  1.0000
  C   C77       1.0  0.28822  0.41195  0.56023  1.0000
  N   N17       1.0  0.27970  0.42055  0.48188  1.0000
  C   C78       1.0  0.29506  0.37062  0.64624  1.0000
  C   C79       1.0  0.29678  0.43261  0.63628  1.0000
  H   H64       1.0  0.29425  0.34811  0.65041  1.0000
  H   H65       1.0  0.29726  0.45499  0.63332  1.0000
  C   C80       1.0  0.09343  0.34963  0.33021  1.0000
  C   C81       1.0  0.10205  0.37059  0.40675  1.0000
  C   C82       1.0  0.13336  0.40108  0.41201  1.0000
  C   C83       1.0  0.15663  0.41155  0.34062  1.0000
  N   N18       1.0  0.14218  0.41768  0.49144  1.0000
  C   C84       1.0  0.12252  0.40711  0.56525  1.0000
  C   C85       1.0  0.09143  0.37688  0.56018  1.0000
  N   N19       1.0  0.08277  0.35982  0.48174  1.0000
  C   C86       1.0  0.13284  0.42495  0.64632  1.0000
  C   C87       1.0  0.07079  0.36474  0.63627  1.0000
  H   H66       1.0  0.15537  0.44663  0.65053  1.0000
  C   C88       1.0  0.35020  0.25804  0.33068  1.0000
  C   C89       1.0  0.37134  0.27060  0.40681  1.0000
  C   C90       1.0  0.40187  0.26983  0.41148  1.0000
  C   C91       1.0  0.41224  0.25708  0.33973  1.0000
  N   N20       1.0  0.41859  0.27758  0.49073  1.0000
  C   C92       1.0  0.40814  0.28665  0.56482  1.0000
  C   C93       1.0  0.37791  0.28752  0.56027  1.0000
  N   N21       1.0  0.36071  0.27912  0.48205  1.0000
  C   C94       1.0  0.42609  0.29414  0.64570  1.0000
  C   C95       1.0  0.36587  0.29599  0.63663  1.0000
  H   H67       1.0  0.44778  0.29329  0.64956  1.0000
  H   H68       1.0  0.34398  0.29649  0.63399  1.0000
  C   C96       1.0  0.24549  0.09283  0.33173  1.0000
  C   C97       1.0  0.23296  0.10151  0.40775  1.0000
  C   C98       1.0  0.23362  0.13275  0.41222  1.0000
  C   C99       1.0  0.24645  0.15582  0.34043  1.0000
  N   N22       1.0  0.22576  0.14172  0.49130  1.0000
  C   C100      1.0  0.21666  0.12222  0.56544  1.0000
  C   C101      1.0  0.21590  0.09116  0.56109  1.0000
  N   N23       1.0  0.22440  0.08238  0.48301  1.0000
  C   C102      1.0  0.20910  0.13269  0.64618  1.0000
  C   C103      1.0  0.20744  0.07071  0.63755  1.0000
  H   H69       1.0  0.20990  0.15521  0.64989  1.0000
  H   H70       1.0  0.20701  0.04835  0.63510  1.0000
  C   C104      1.0  0.41041  0.15290  0.32923  1.0000
  C   C105      1.0  0.40204  0.13221  0.40630  1.0000
  C   C106      1.0  0.37077  0.10171  0.41231  1.0000
  C   C107      1.0  0.34739  0.09111  0.34122  1.0000
  N   N24       1.0  0.36215  0.08525  0.49194  1.0000
  C   C108      1.0  0.38199  0.09599  0.56539  1.0000
  C   C109      1.0  0.41304  0.12624  0.55968  1.0000
  N   N25       1.0  0.42149  0.14314  0.48100  1.0000
  C   C110      1.0  0.37189  0.07827  0.64667  1.0000
  C   C111      1.0  0.43388  0.13850  0.63537  1.0000
  H   H71       1.0  0.34939  0.05657  0.65131  1.0000
  H   H72       1.0  0.45626  0.16038  0.63193  1.0000
  C   C112      1.0  0.48391  0.74201  0.30901  1.0000
  C   C113      1.0  0.43108  0.68829  0.33681  1.0000
  C   C114      1.0  0.46383  0.70628  0.29804  1.0000
  C   C115      1.0  0.07273  0.81424  0.33794  1.0000
  N   N26       1.0  0.47506  0.68968  0.24575  1.0000
  H   H73       1.0  0.99400  0.70193  0.20588  1.0000
  H   H74       1.0  0.46196  0.66575  0.23571  1.0000
  H   H75       1.0  0.51004  0.80063  0.20580  1.0000
  H   H76       1.0  0.12784  0.83348  0.43510  1.0000
  H   H77       1.0  0.37530  0.66884  0.43113  1.0000
  C   C116      1.0  0.26123  0.74244  0.30821  1.0000
  C   C117      1.0  0.31487  0.74365  0.33905  1.0000
  C   C118      1.0  0.29697  0.75810  0.29808  1.0000
  C   C119      1.0  0.24279  0.76020  0.30850  1.0000
  C   C120      1.0  0.20705  0.74458  0.29860  1.0000
  C   C121      1.0  0.18922  0.75907  0.33981  1.0000
  N   N27       1.0  0.31362  0.78566  0.24490  1.0000
  N   N28       1.0  0.19032  0.71700  0.24550  1.0000
  H   H78       1.0  0.30148  0.79237  0.20465  1.0000
  H   H79       1.0  0.33763  0.79679  0.23600  1.0000
  H   H80       1.0  0.16632  0.70597  0.23662  1.0000
  H   H81       1.0  0.20243  0.71033  0.20499  1.0000
  H   H82       1.0  0.17073  0.79418  0.44265  1.0000
  H   H83       1.0  0.33346  0.70847  0.44104  1.0000
  C   C122      1.0  0.26097  0.51941  0.30838  1.0000
  C   C123      1.0  0.25988  0.57188  0.33968  1.0000
  C   C124      1.0  0.24538  0.53957  0.29844  1.0000
  C   C125      1.0  0.24318  0.98322  0.30831  1.0000
  C   C126      1.0  0.25876  0.96306  0.29791  1.0000
  C   C127      1.0  0.24415  0.93059  0.33827  1.0000
  N   N29       1.0  0.21780  0.52873  0.24536  1.0000
  N   N30       1.0  0.28641  0.97403  0.24507  1.0000
  H   H84       1.0  0.21120  0.00996  0.20483  1.0000
  H   H85       1.0  0.20684  0.54174  0.23615  1.0000
  H   H86       1.0  0.29724  0.96091  0.23537  1.0000
  H   H87       1.0  0.29297  0.49280  0.20462  1.0000
  H   H88       1.0  0.20833  0.87572  0.43732  1.0000
  H   H89       1.0  0.29525  0.62599  0.44177  1.0000
  C   C128      1.0  0.11222  0.75608  0.26285  1.0000
  C   C129      1.0  0.14239  0.75554  0.25829  1.0000
  H   H90       1.0  0.15794  0.76721  0.20517  1.0000
  H   H91       1.0  0.10715  0.76782  0.21213  1.0000
  C   C130      1.0  0.08992  0.69997  0.05589  1.0000
  C   C131      1.0  0.11991  0.69900  0.05135  1.0000
  H   H92       1.0  0.07692  0.69451  0.11465  1.0000
  H   H93       1.0  0.12849  0.69272  0.10671  1.0000
  C   C132      1.0  0.24717  0.85645  0.26270  1.0000
  C   C133      1.0  0.24778  0.88718  0.25745  1.0000
  H   H94       1.0  0.23616  0.89095  0.20402  1.0000
  H   H95       1.0  0.23541  0.83948  0.21233  1.0000
  C   C134      1.0  0.30366  0.89139  0.05536  1.0000
  C   C135      1.0  0.30459  0.92232  0.05027  1.0000
  H   H96       1.0  0.30922  0.88401  0.11423  1.0000
  H   H97       1.0  0.31099  0.93734  0.10533  1.0000
  C   C136      1.0  0.14677  0.89143  0.26263  1.0000
  C   C137      1.0  0.11599  0.86134  0.25728  1.0000
  H   H98       1.0  0.11219  0.84595  0.20383  1.0000
  H   H99       1.0  0.16367  0.89659  0.21211  1.0000
  C   C138      1.0  0.11209  0.91274  0.05548  1.0000
  C   C139      1.0  0.08114  0.88278  0.05036  1.0000
  H   H100      1.0  0.11951  0.92565  0.11441  1.0000
  H   H101      1.0  0.06614  0.87412  0.10547  1.0000
  C   C140      1.0  0.39195  0.74679  0.26198  1.0000
  C   C141      1.0  0.36177  0.74730  0.25733  1.0000
  H   H102      1.0  0.34629  0.73568  0.20406  1.0000
  H   H103      1.0  0.39705  0.73507  0.21127  1.0000
  C   C142      1.0  0.41399  0.80266  0.05514  1.0000
  C   C143      1.0  0.38402  0.80364  0.05052  1.0000
  H   H104      1.0  0.42698  0.80811  0.11394  1.0000
  H   H105      1.0  0.37543  0.80993  0.10586  1.0000
  C   C144      1.0  0.25697  0.64596  0.26295  1.0000
  C   C145      1.0  0.25640  0.61523  0.25845  1.0000
  H   H106      1.0  0.26808  0.61135  0.20533  1.0000
  H   H107      1.0  0.26874  0.66277  0.21225  1.0000
  C   C146      1.0  0.20061  0.61214  0.05573  1.0000
  C   C147      1.0  0.19972  0.58122  0.05132  1.0000
  H   H108      1.0  0.19513  0.61969  0.11444  1.0000
  H   H109      1.0  0.19344  0.56637  0.10673  1.0000
  C   C148      1.0  0.35698  0.61089  0.26265  1.0000
  C   C149      1.0  0.38773  0.64099  0.25665  1.0000
  H   H110      1.0  0.39139  0.65622  0.20291  1.0000
  H   H111      1.0  0.33992  0.60555  0.21245  1.0000
  C   C150      1.0  0.39285  0.59060  0.05542  1.0000
  C   C151      1.0  0.42377  0.62057  0.04966  1.0000
  H   H112      1.0  0.38560  0.57777  0.11449  1.0000
  H   H113      1.0  0.43893  0.62931  0.10443  1.0000
  C   C152      1.0  0.46589  0.75872  0.33049  1.0000
  C   C153      1.0  0.43195  0.74172  0.35475  1.0000
  C   C154      1.0  0.41592  0.70669  0.36944  1.0000
  H   H114      1.0  0.47767  0.78411  0.33600  1.0000
  N   N31       1.0  0.38612  0.69190  0.41403  1.0000
  C   C155      1.0  0.08787  0.79586  0.37084  1.0000
  C   C156      1.0  0.07207  0.76089  0.35539  1.0000
  N   N32       1.0  0.11740  0.81056  0.41665  1.0000
  H   H115      1.0  0.12392  0.79713  0.45134  1.0000
  H   H116      1.0  0.38011  0.70545  0.45009  1.0000
  C   C157      1.0  0.24453  0.70766  0.32909  1.0000
  C   C158      1.0  0.26151  0.69087  0.35518  1.0000
  C   C159      1.0  0.29640  0.71016  0.37216  1.0000
  H   H117      1.0  0.21913  0.69396  0.33373  1.0000
  N   N33       1.0  0.31098  0.69554  0.41957  1.0000
  C   C160      1.0  0.20775  0.79247  0.37350  1.0000
  C   C161      1.0  0.24262  0.81173  0.35632  1.0000
  C   C162      1.0  0.25953  0.79498  0.32933  1.0000
  N   N34       1.0  0.19328  0.80704  0.42158  1.0000
  H   H118      1.0  0.28494  0.80869  0.33369  1.0000
  H   H119      1.0  0.20714  0.82681  0.45665  1.0000
  H   H120      1.0  0.29721  0.67554  0.45383  1.0000
  C   C163      1.0  0.29573  0.53742  0.32945  1.0000
  C   C164      1.0  0.31242  0.57100  0.35726  1.0000
  C   C165      1.0  0.29315  0.58661  0.37415  1.0000
  H   H121      1.0  0.30941  0.52569  0.33388  1.0000
  N   N35       1.0  0.30764  0.61552  0.42266  1.0000
  C   C166      1.0  0.21080  0.91574  0.37218  1.0000
  C   C167      1.0  0.19164  0.93151  0.35615  1.0000
  C   C168      1.0  0.20842  0.96522  0.32959  1.0000
  N   N36       1.0  0.19614  0.88653  0.41941  1.0000
  H   H122      1.0  0.19476  0.97697  0.33401  1.0000
  H   H123      1.0  0.17656  0.88058  0.45543  1.0000
  H   H124      1.0  0.32725  0.62139  0.45849  1.0000
  C   C169      1.0  0.15388  0.74470  0.33167  1.0000
  C   C170      1.0  0.13271  0.73214  0.40772  1.0000
  C   C171      1.0  0.10216  0.73286  0.41228  1.0000
  C   C172      1.0  0.09188  0.74564  0.34044  1.0000
  N   N37       1.0  0.08539  0.72507  0.49146  1.0000
  C   C173      1.0  0.09582  0.71598  0.56557  1.0000
  C   C174      1.0  0.12607  0.71513  0.56109  1.0000
  N   N38       1.0  0.14331  0.72359  0.48295  1.0000
  C   C175      1.0  0.07784  0.70848  0.64639  1.0000
  C   C176      1.0  0.13808  0.70667  0.63750  1.0000
  H   H125      1.0  0.15998  0.70619  0.63494  1.0000
  C   C177      1.0  0.25862  0.90970  0.33040  1.0000
  C   C178      1.0  0.27111  0.90124  0.40692  1.0000
  C   C179      1.0  0.27038  0.86998  0.41219  1.0000
  C   C180      1.0  0.25750  0.84672  0.34079  1.0000
  N   N39       1.0  0.27828  0.86120  0.49150  1.0000
  C   C181      1.0  0.28743  0.88089  0.56526  1.0000
  C   C182      1.0  0.28822  0.91195  0.56023  1.0000
  N   N40       1.0  0.27970  0.92055  0.48188  1.0000
  C   C183      1.0  0.29505  0.87062  0.64624  1.0000
  C   C184      1.0  0.29678  0.93261  0.63628  1.0000
  H   H126      1.0  0.29424  0.84810  0.65041  1.0000
  H   H127      1.0  0.29726  0.95499  0.63332  1.0000
  C   C185      1.0  0.09344  0.84964  0.33022  1.0000
  C   C186      1.0  0.10205  0.87059  0.40675  1.0000
  C   C187      1.0  0.13336  0.90108  0.41201  1.0000
  C   C188      1.0  0.15663  0.91155  0.34062  1.0000
  N   N41       1.0  0.14218  0.91768  0.49144  1.0000
  C   C189      1.0  0.12251  0.90711  0.56525  1.0000
  C   C190      1.0  0.09143  0.87688  0.56018  1.0000
  N   N42       1.0  0.08277  0.85982  0.48174  1.0000
  C   C191      1.0  0.13284  0.92495  0.64632  1.0000
  C   C192      1.0  0.07079  0.86474  0.63627  1.0000
  H   H128      1.0  0.15537  0.94663  0.65053  1.0000
  C   C193      1.0  0.35020  0.75804  0.33068  1.0000
  C   C194      1.0  0.37134  0.77060  0.40681  1.0000
  C   C195      1.0  0.40187  0.76984  0.41148  1.0000
  C   C196      1.0  0.41224  0.75708  0.33973  1.0000
  N   N43       1.0  0.41859  0.77758  0.49073  1.0000
  C   C197      1.0  0.40814  0.78665  0.56482  1.0000
  C   C198      1.0  0.37791  0.78753  0.56027  1.0000
  N   N44       1.0  0.36071  0.77911  0.48205  1.0000
  C   C199      1.0  0.42609  0.79414  0.64570  1.0000
  C   C200      1.0  0.36587  0.79599  0.63663  1.0000
  H   H129      1.0  0.44778  0.79329  0.64956  1.0000
  H   H130      1.0  0.34398  0.79649  0.63399  1.0000
  C   C201      1.0  0.24549  0.59283  0.33173  1.0000
  C   C202      1.0  0.23296  0.60151  0.40775  1.0000
  C   C203      1.0  0.23362  0.63275  0.41222  1.0000
  C   C204      1.0  0.24645  0.65582  0.34043  1.0000
  N   N45       1.0  0.22576  0.64172  0.49130  1.0000
  C   C205      1.0  0.21666  0.62222  0.56544  1.0000
  C   C206      1.0  0.21589  0.59116  0.56109  1.0000
  N   N46       1.0  0.22440  0.58237  0.48301  1.0000
  C   C207      1.0  0.20910  0.63269  0.64618  1.0000
  C   C208      1.0  0.20744  0.57071  0.63755  1.0000
  H   H131      1.0  0.20990  0.65521  0.64989  1.0000
  H   H132      1.0  0.20701  0.54835  0.63510  1.0000
  C   C209      1.0  0.41041  0.65290  0.32923  1.0000
  C   C210      1.0  0.40204  0.63221  0.40630  1.0000
  C   C211      1.0  0.37077  0.60171  0.41231  1.0000
  C   C212      1.0  0.34738  0.59111  0.34122  1.0000
  N   N47       1.0  0.36215  0.58525  0.49194  1.0000
  C   C213      1.0  0.38199  0.59599  0.56539  1.0000
  C   C214      1.0  0.41304  0.62624  0.55968  1.0000
  N   N48       1.0  0.42149  0.64314  0.48100  1.0000
  C   C215      1.0  0.37189  0.57827  0.64667  1.0000
  C   C216      1.0  0.43387  0.63850  0.63537  1.0000
  H   H133      1.0  0.34939  0.55657  0.65131  1.0000
  H   H134      1.0  0.45626  0.66038  0.63193  1.0000
  C   C217      1.0  0.98391  0.24201  0.30901  1.0000
  C   C218      1.0  0.93108  0.18830  0.33681  1.0000
  C   C219      1.0  0.96383  0.20628  0.29804  1.0000
  C   C220      1.0  0.52011  0.26052  0.30903  1.0000
  C   C221      1.0  0.54015  0.29625  0.29829  1.0000
  C   C222      1.0  0.57273  0.31424  0.33794  1.0000
  N   N49       1.0  0.97506  0.18968  0.24575  1.0000
  N   N50       1.0  0.52904  0.31284  0.24554  1.0000
  H   H135      1.0  0.49400  0.20193  0.20588  1.0000
  H   H136      1.0  0.96196  0.16575  0.23571  1.0000
  H   H137      1.0  0.54195  0.33682  0.23604  1.0000
  H   H138      1.0  0.62784  0.33349  0.43509  1.0000
  H   H139      1.0  0.87530  0.16884  0.43113  1.0000
  C   C223      1.0  0.76123  0.24244  0.30821  1.0000
  C   C224      1.0  0.81487  0.24365  0.33905  1.0000
  C   C225      1.0  0.79697  0.25810  0.29808  1.0000
  C   C226      1.0  0.74279  0.26020  0.30850  1.0000
  C   C227      1.0  0.70705  0.24458  0.29860  1.0000
  C   C228      1.0  0.68923  0.25907  0.33981  1.0000
  N   N51       1.0  0.81362  0.28566  0.24490  1.0000
  N   N52       1.0  0.69032  0.21700  0.24550  1.0000
  H   H140      1.0  0.80148  0.29237  0.20465  1.0000
  H   H141      1.0  0.83763  0.29680  0.23600  1.0000
  H   H142      1.0  0.66632  0.20597  0.23662  1.0000
  H   H143      1.0  0.70243  0.21033  0.20499  1.0000
  H   H144      1.0  0.67073  0.29418  0.44266  1.0000
  H   H145      1.0  0.83346  0.20847  0.44104  1.0000
  C   C229      1.0  0.76097  0.01941  0.30838  1.0000
  C   C230      1.0  0.75988  0.07188  0.33968  1.0000
  C   C231      1.0  0.74538  0.03957  0.29844  1.0000
  C   C232      1.0  0.74318  0.48322  0.30831  1.0000
  C   C233      1.0  0.75876  0.46306  0.29791  1.0000
  C   C234      1.0  0.74415  0.43059  0.33827  1.0000
  N   N53       1.0  0.71780  0.02873  0.24536  1.0000
  N   N54       1.0  0.78641  0.47403  0.24507  1.0000
  H   H146      1.0  0.71120  0.50996  0.20483  1.0000
  H   H147      1.0  0.70684  0.04174  0.23615  1.0000
  H   H148      1.0  0.79724  0.46091  0.23537  1.0000
  H   H149      1.0  0.79297  0.99280  0.20462  1.0000
  H   H150      1.0  0.70833  0.37572  0.43733  1.0000
  H   H151      1.0  0.79525  0.12599  0.44177  1.0000
  C   C235      1.0  0.61222  0.25608  0.26285  1.0000
  C   C236      1.0  0.64239  0.25554  0.25829  1.0000
  H   H152      1.0  0.65794  0.26721  0.20517  1.0000
  H   H153      1.0  0.60716  0.26783  0.21213  1.0000
  C   C237      1.0  0.58992  0.19997  0.05589  1.0000
  C   C238      1.0  0.61991  0.19900  0.05135  1.0000
  H   H154      1.0  0.57692  0.19452  0.11465  1.0000
  H   H155      1.0  0.62849  0.19272  0.10671  1.0000
  C   C239      1.0  0.74717  0.35645  0.26270  1.0000
  C   C240      1.0  0.74778  0.38718  0.25746  1.0000
  H   H156      1.0  0.73616  0.39095  0.20402  1.0000
  H   H157      1.0  0.73541  0.33948  0.21233  1.0000
  C   C241      1.0  0.80366  0.39139  0.05536  1.0000
  C   C242      1.0  0.80460  0.42232  0.05027  1.0000
  H   H158      1.0  0.80922  0.38401  0.11423  1.0000
  H   H159      1.0  0.81099  0.43734  0.10533  1.0000
  C   C243      1.0  0.64677  0.39143  0.26263  1.0000
  C   C244      1.0  0.61599  0.36134  0.25728  1.0000
  H   H160      1.0  0.61219  0.34595  0.20383  1.0000
  H   H161      1.0  0.66367  0.39659  0.21211  1.0000
  C   C245      1.0  0.61209  0.41274  0.05548  1.0000
  C   C246      1.0  0.58114  0.38278  0.05036  1.0000
  H   H162      1.0  0.61951  0.42565  0.11441  1.0000
  H   H163      1.0  0.56614  0.37412  0.10547  1.0000
  C   C247      1.0  0.89195  0.24679  0.26198  1.0000
  C   C248      1.0  0.86177  0.24730  0.25733  1.0000
  H   H164      1.0  0.84629  0.23568  0.20406  1.0000
  H   H165      1.0  0.89706  0.23507  0.21127  1.0000
  C   C249      1.0  0.91400  0.30266  0.05514  1.0000
  C   C250      1.0  0.88402  0.30364  0.05052  1.0000
  H   H166      1.0  0.92698  0.30811  0.11394  1.0000
  H   H167      1.0  0.87543  0.30993  0.10586  1.0000
  C   C251      1.0  0.75697  0.14596  0.26295  1.0000
  C   C252      1.0  0.75641  0.11523  0.25845  1.0000
  H   H168      1.0  0.76808  0.11135  0.20533  1.0000
  H   H169      1.0  0.76874  0.16277  0.21225  1.0000
  C   C253      1.0  0.70061  0.11214  0.05573  1.0000
  C   C254      1.0  0.69972  0.08122  0.05132  1.0000
  H   H170      1.0  0.69513  0.11969  0.11444  1.0000
  H   H171      1.0  0.69344  0.06637  0.10673  1.0000
  C   C255      1.0  0.85698  0.11090  0.26265  1.0000
  C   C256      1.0  0.88773  0.14099  0.25665  1.0000
  H   H172      1.0  0.89139  0.15622  0.20291  1.0000
  H   H173      1.0  0.83992  0.10555  0.21245  1.0000
  C   C257      1.0  0.89285  0.09060  0.05542  1.0000
  C   C258      1.0  0.92377  0.12057  0.04966  1.0000
  H   H174      1.0  0.88560  0.07778  0.11449  1.0000
  H   H175      1.0  0.93893  0.12931  0.10443  1.0000
  C   C259      1.0  0.96589  0.25872  0.33049  1.0000
  C   C260      1.0  0.93195  0.24172  0.35475  1.0000
  C   C261      1.0  0.91593  0.20669  0.36944  1.0000
  H   H176      1.0  0.97767  0.28411  0.33600  1.0000
  N   N55       1.0  0.88612  0.19191  0.41403  1.0000
  C   C262      1.0  0.58787  0.29586  0.37084  1.0000
  C   C263      1.0  0.57207  0.26089  0.35539  1.0000
  C   C264      1.0  0.53818  0.24386  0.33040  1.0000
  N   N56       1.0  0.61740  0.31056  0.41665  1.0000
  H   H177      1.0  0.52643  0.21848  0.33590  1.0000
  H   H178      1.0  0.62392  0.29713  0.45133  1.0000
  H   H179      1.0  0.88011  0.20545  0.45009  1.0000
  C   C265      1.0  0.74453  0.20766  0.32909  1.0000
  C   C266      1.0  0.76151  0.19087  0.35518  1.0000
  C   C267      1.0  0.79640  0.21016  0.37216  1.0000
  H   H180      1.0  0.71913  0.19396  0.33373  1.0000
  N   N57       1.0  0.81098  0.19554  0.41957  1.0000
  C   C268      1.0  0.70775  0.29247  0.37350  1.0000
  C   C269      1.0  0.74262  0.31173  0.35632  1.0000
  C   C270      1.0  0.75953  0.29498  0.32933  1.0000
  N   N58       1.0  0.69328  0.30704  0.42158  1.0000
  H   H181      1.0  0.78494  0.30869  0.33369  1.0000
  H   H182      1.0  0.70714  0.32681  0.45665  1.0000
  H   H183      1.0  0.79721  0.17554  0.45383  1.0000
  C   C271      1.0  0.79573  0.03742  0.32945  1.0000
  C   C272      1.0  0.81242  0.07100  0.35726  1.0000
  C   C273      1.0  0.79315  0.08661  0.37415  1.0000
  H   H184      1.0  0.80941  0.02569  0.33388  1.0000
  N   N59       1.0  0.80764  0.11552  0.42266  1.0000
  C   C274      1.0  0.71080  0.41574  0.37218  1.0000
  C   C275      1.0  0.69164  0.43151  0.35615  1.0000
  C   C276      1.0  0.70843  0.46523  0.32959  1.0000
  N   N60       1.0  0.69614  0.38653  0.41941  1.0000
  H   H185      1.0  0.69476  0.47697  0.33401  1.0000
  H   H186      1.0  0.67656  0.38059  0.45543  1.0000
  H   H187      1.0  0.82725  0.12139  0.45849  1.0000
  C   C277      1.0  0.65388  0.24470  0.33167  1.0000
  C   C278      1.0  0.63271  0.23214  0.40772  1.0000
  C   C279      1.0  0.60216  0.23286  0.41228  1.0000
  C   C280      1.0  0.59188  0.24564  0.34044  1.0000
  N   N61       1.0  0.58539  0.22507  0.49146  1.0000
  C   C281      1.0  0.59582  0.21598  0.56557  1.0000
  C   C282      1.0  0.62607  0.21513  0.56109  1.0000
  N   N62       1.0  0.64331  0.22359  0.48295  1.0000
  C   C283      1.0  0.57784  0.20847  0.64639  1.0000
  C   C284      1.0  0.63808  0.20667  0.63750  1.0000
  H   H188      1.0  0.55615  0.20932  0.65020  1.0000
  H   H189      1.0  0.65998  0.20619  0.63494  1.0000
  C   C285      1.0  0.75862  0.40970  0.33040  1.0000
  C   C286      1.0  0.77111  0.40124  0.40692  1.0000
  C   C287      1.0  0.77038  0.36997  0.41219  1.0000
  C   C288      1.0  0.75750  0.34672  0.34079  1.0000
  N   N63       1.0  0.77828  0.36120  0.49150  1.0000
  C   C289      1.0  0.78743  0.38089  0.56526  1.0000
  C   C290      1.0  0.78822  0.41195  0.56023  1.0000
  N   N64       1.0  0.77970  0.42055  0.48188  1.0000
  C   C291      1.0  0.79506  0.37062  0.64624  1.0000
  C   C292      1.0  0.79678  0.43261  0.63628  1.0000
  H   H190      1.0  0.79424  0.34811  0.65041  1.0000
  H   H191      1.0  0.79726  0.45499  0.63332  1.0000
  C   C293      1.0  0.59344  0.34963  0.33021  1.0000
  C   C294      1.0  0.60205  0.37059  0.40675  1.0000
  C   C295      1.0  0.63336  0.40108  0.41201  1.0000
  C   C296      1.0  0.65664  0.41155  0.34062  1.0000
  N   N65       1.0  0.64218  0.41768  0.49144  1.0000
  C   C297      1.0  0.62251  0.40711  0.56525  1.0000
  C   C298      1.0  0.59143  0.37688  0.56018  1.0000
  N   N66       1.0  0.58277  0.35982  0.48174  1.0000
  C   C299      1.0  0.63284  0.42495  0.64632  1.0000
  C   C300      1.0  0.57079  0.36474  0.63627  1.0000
  H   H192      1.0  0.65537  0.44663  0.65053  1.0000
  H   H193      1.0  0.54840  0.34286  0.63328  1.0000
  C   C301      1.0  0.85020  0.25804  0.33068  1.0000
  C   C302      1.0  0.87134  0.27060  0.40681  1.0000
  C   C303      1.0  0.90187  0.26983  0.41148  1.0000
  C   C304      1.0  0.91224  0.25708  0.33973  1.0000
  N   N67       1.0  0.91859  0.27758  0.49073  1.0000
  C   C305      1.0  0.90814  0.28665  0.56482  1.0000
  C   C306      1.0  0.87791  0.28752  0.56027  1.0000
  N   N68       1.0  0.86071  0.27912  0.48205  1.0000
  C   C307      1.0  0.92609  0.29414  0.64570  1.0000
  C   C308      1.0  0.86587  0.29599  0.63663  1.0000
  H   H194      1.0  0.94778  0.29329  0.64956  1.0000
  H   H195      1.0  0.84398  0.29649  0.63399  1.0000
  C   C309      1.0  0.74549  0.09283  0.33173  1.0000
  C   C310      1.0  0.73296  0.10151  0.40775  1.0000
  C   C311      1.0  0.73362  0.13275  0.41222  1.0000
  C   C312      1.0  0.74645  0.15582  0.34043  1.0000
  N   N69       1.0  0.72576  0.14172  0.49130  1.0000
  C   C313      1.0  0.71666  0.12222  0.56544  1.0000
  C   C314      1.0  0.71590  0.09116  0.56109  1.0000
  N   N70       1.0  0.72440  0.08238  0.48301  1.0000
  C   C315      1.0  0.70910  0.13269  0.64618  1.0000
  C   C316      1.0  0.70744  0.07071  0.63755  1.0000
  H   H196      1.0  0.70990  0.15521  0.64989  1.0000
  H   H197      1.0  0.70701  0.04835  0.63510  1.0000
  C   C317      1.0  0.91041  0.15290  0.32923  1.0000
  C   C318      1.0  0.90204  0.13221  0.40630  1.0000
  C   C319      1.0  0.87077  0.10171  0.41231  1.0000
  C   C320      1.0  0.84738  0.09111  0.34122  1.0000
  N   N71       1.0  0.86215  0.08525  0.49194  1.0000
  C   C321      1.0  0.88199  0.09599  0.56539  1.0000
  C   C322      1.0  0.91304  0.12624  0.55968  1.0000
  N   N72       1.0  0.92149  0.14314  0.48100  1.0000
  C   C323      1.0  0.87189  0.07827  0.64667  1.0000
  C   C324      1.0  0.93387  0.13850  0.63537  1.0000
  H   H198      1.0  0.84939  0.05657  0.65131  1.0000
  H   H199      1.0  0.95626  0.16038  0.63193  1.0000
  C   C325      1.0  0.98391  0.74201  0.30901  1.0000
  C   C326      1.0  0.93108  0.68829  0.33681  1.0000
  C   C327      1.0  0.96383  0.70628  0.29804  1.0000
  C   C328      1.0  0.52010  0.76052  0.30903  1.0000
  C   C329      1.0  0.54015  0.79625  0.29829  1.0000
  C   C330      1.0  0.57273  0.81424  0.33794  1.0000
  N   N73       1.0  0.97506  0.68968  0.24575  1.0000
  N   N74       1.0  0.52904  0.81284  0.24554  1.0000
  H   H200      1.0  0.49400  0.70193  0.20588  1.0000
  H   H201      1.0  0.96196  0.66575  0.23571  1.0000
  H   H202      1.0  0.54195  0.83681  0.23604  1.0000
  H   H203      1.0  0.62784  0.83348  0.43510  1.0000
  H   H204      1.0  0.87530  0.66884  0.43113  1.0000
  C   C331      1.0  0.76123  0.74244  0.30821  1.0000
  C   C332      1.0  0.81486  0.74365  0.33905  1.0000
  C   C333      1.0  0.79697  0.75810  0.29808  1.0000
  C   C334      1.0  0.74279  0.76020  0.30850  1.0000
  C   C335      1.0  0.70705  0.74458  0.29860  1.0000
  C   C336      1.0  0.68922  0.75907  0.33981  1.0000
  N   N75       1.0  0.81362  0.78566  0.24490  1.0000
  N   N76       1.0  0.69032  0.71700  0.24550  1.0000
  H   H205      1.0  0.80148  0.79237  0.20465  1.0000
  H   H206      1.0  0.83763  0.79679  0.23600  1.0000
  H   H207      1.0  0.66632  0.70597  0.23662  1.0000
  H   H208      1.0  0.70243  0.71033  0.20499  1.0000
  H   H209      1.0  0.67073  0.79418  0.44265  1.0000
  H   H210      1.0  0.83346  0.70847  0.44104  1.0000
  C   C337      1.0  0.76096  0.51941  0.30838  1.0000
  C   C338      1.0  0.75988  0.57188  0.33968  1.0000
  C   C339      1.0  0.74538  0.53957  0.29844  1.0000
  C   C340      1.0  0.74318  0.98322  0.30831  1.0000
  C   C341      1.0  0.75876  0.96306  0.29791  1.0000
  C   C342      1.0  0.74415  0.93059  0.33827  1.0000
  N   N77       1.0  0.71780  0.52873  0.24536  1.0000
  N   N78       1.0  0.78641  0.97403  0.24507  1.0000
  H   H211      1.0  0.71120  0.00996  0.20483  1.0000
  H   H212      1.0  0.70684  0.54174  0.23615  1.0000
  H   H213      1.0  0.79724  0.96091  0.23537  1.0000
  H   H214      1.0  0.79297  0.49280  0.20462  1.0000
  H   H215      1.0  0.70833  0.87572  0.43732  1.0000
  H   H216      1.0  0.79525  0.62599  0.44177  1.0000
  C   C343      1.0  0.61222  0.75608  0.26285  1.0000
  C   C344      1.0  0.64239  0.75554  0.25829  1.0000
  H   H217      1.0  0.65794  0.76721  0.20517  1.0000
  H   H218      1.0  0.60716  0.76782  0.21213  1.0000
  C   C345      1.0  0.58992  0.69997  0.05589  1.0000
  C   C346      1.0  0.61991  0.69900  0.05135  1.0000
  H   H219      1.0  0.57692  0.69451  0.11465  1.0000
  H   H220      1.0  0.62849  0.69272  0.10671  1.0000
  C   C347      1.0  0.74717  0.85645  0.26270  1.0000
  C   C348      1.0  0.74778  0.88718  0.25745  1.0000
  H   H221      1.0  0.73616  0.89095  0.20402  1.0000
  H   H222      1.0  0.73541  0.83948  0.21233  1.0000
  C   C349      1.0  0.80365  0.89139  0.05536  1.0000
  C   C350      1.0  0.80459  0.92232  0.05027  1.0000
  H   H223      1.0  0.80922  0.88401  0.11423  1.0000
  H   H224      1.0  0.81099  0.93734  0.10533  1.0000
  C   C351      1.0  0.64677  0.89143  0.26263  1.0000
  C   C352      1.0  0.61599  0.86134  0.25728  1.0000
  H   H225      1.0  0.61219  0.84595  0.20383  1.0000
  H   H226      1.0  0.66367  0.89659  0.21211  1.0000
  C   C353      1.0  0.61209  0.91274  0.05548  1.0000
  C   C354      1.0  0.58114  0.88278  0.05036  1.0000
  H   H227      1.0  0.61951  0.92565  0.11441  1.0000
  H   H228      1.0  0.56614  0.87412  0.10547  1.0000
  C   C355      1.0  0.89195  0.74679  0.26198  1.0000
  C   C356      1.0  0.86177  0.74730  0.25733  1.0000
  H   H229      1.0  0.84629  0.73568  0.20406  1.0000
  H   H230      1.0  0.89705  0.73507  0.21127  1.0000
  C   C357      1.0  0.91399  0.80266  0.05514  1.0000
  C   C358      1.0  0.88402  0.80364  0.05052  1.0000
  H   H231      1.0  0.92698  0.80811  0.11394  1.0000
  H   H232      1.0  0.87543  0.80993  0.10586  1.0000
  C   C359      1.0  0.75697  0.64596  0.26295  1.0000
  C   C360      1.0  0.75641  0.61523  0.25845  1.0000
  H   H233      1.0  0.76807  0.61135  0.20533  1.0000
  H   H234      1.0  0.76874  0.66277  0.21225  1.0000
  C   C361      1.0  0.70061  0.61214  0.05573  1.0000
  C   C362      1.0  0.69972  0.58122  0.05132  1.0000
  H   H235      1.0  0.69513  0.61969  0.11444  1.0000
  H   H236      1.0  0.69344  0.56637  0.10673  1.0000
  C   C363      1.0  0.85698  0.61089  0.26265  1.0000
  C   C364      1.0  0.88773  0.64099  0.25665  1.0000
  H   H237      1.0  0.89139  0.65622  0.20291  1.0000
  H   H238      1.0  0.83992  0.60555  0.21245  1.0000
  C   C365      1.0  0.89285  0.59060  0.05542  1.0000
  C   C366      1.0  0.92377  0.62057  0.04966  1.0000
  H   H239      1.0  0.88560  0.57777  0.11449  1.0000
  H   H240      1.0  0.93893  0.62931  0.10443  1.0000
  C   C367      1.0  0.96589  0.75872  0.33049  1.0000
  C   C368      1.0  0.93195  0.74172  0.35475  1.0000
  C   C369      1.0  0.91592  0.70669  0.36944  1.0000
  H   H241      1.0  0.97767  0.78411  0.33600  1.0000
  N   N79       1.0  0.88612  0.69190  0.41403  1.0000
  C   C370      1.0  0.58787  0.79586  0.37084  1.0000
  C   C371      1.0  0.57207  0.76089  0.35539  1.0000
  C   C372      1.0  0.53818  0.74386  0.33040  1.0000
  N   N80       1.0  0.61740  0.81056  0.41665  1.0000
  H   H242      1.0  0.52643  0.71847  0.33590  1.0000
  H   H243      1.0  0.62392  0.79713  0.45134  1.0000
  H   H244      1.0  0.88011  0.70545  0.45009  1.0000
  C   C373      1.0  0.74453  0.70766  0.32909  1.0000
  C   C374      1.0  0.76151  0.69087  0.35518  1.0000
  C   C375      1.0  0.79640  0.71016  0.37216  1.0000
  H   H245      1.0  0.71913  0.69396  0.33373  1.0000
  N   N81       1.0  0.81098  0.69554  0.41957  1.0000
  C   C376      1.0  0.70775  0.79247  0.37350  1.0000
  C   C377      1.0  0.74262  0.81173  0.35632  1.0000
  C   C378      1.0  0.75953  0.79498  0.32933  1.0000
  N   N82       1.0  0.69328  0.80704  0.42158  1.0000
  H   H246      1.0  0.78494  0.80869  0.33369  1.0000
  H   H247      1.0  0.70714  0.82681  0.45665  1.0000
  H   H248      1.0  0.79721  0.67554  0.45383  1.0000
  C   C379      1.0  0.79573  0.53742  0.32945  1.0000
  C   C380      1.0  0.81242  0.57100  0.35726  1.0000
  C   C381      1.0  0.79315  0.58661  0.37415  1.0000
  H   H249      1.0  0.80941  0.52569  0.33388  1.0000
  N   N83       1.0  0.80764  0.61552  0.42266  1.0000
  C   C382      1.0  0.71080  0.91574  0.37218  1.0000
  C   C383      1.0  0.69164  0.93151  0.35615  1.0000
  C   C384      1.0  0.70842  0.96522  0.32959  1.0000
  N   N84       1.0  0.69614  0.88653  0.41941  1.0000
  H   H250      1.0  0.69476  0.97697  0.33401  1.0000
  H   H251      1.0  0.67656  0.88058  0.45543  1.0000
  H   H252      1.0  0.82725  0.62139  0.45849  1.0000
  C   C385      1.0  0.65388  0.74470  0.33167  1.0000
  C   C386      1.0  0.63271  0.73214  0.40772  1.0000
  C   C387      1.0  0.60216  0.73286  0.41228  1.0000
  C   C388      1.0  0.59188  0.74564  0.34044  1.0000
  N   N85       1.0  0.58539  0.72507  0.49146  1.0000
  C   C389      1.0  0.59582  0.71598  0.56557  1.0000
  C   C390      1.0  0.62607  0.71513  0.56109  1.0000
  N   N86       1.0  0.64331  0.72359  0.48295  1.0000
  C   C391      1.0  0.57784  0.70848  0.64639  1.0000
  C   C392      1.0  0.63808  0.70667  0.63750  1.0000
  H   H253      1.0  0.55615  0.70932  0.65020  1.0000
  H   H254      1.0  0.65998  0.70619  0.63494  1.0000
  C   C393      1.0  0.75862  0.90970  0.33040  1.0000
  C   C394      1.0  0.77111  0.90124  0.40692  1.0000
  C   C395      1.0  0.77038  0.86998  0.41219  1.0000
  C   C396      1.0  0.75750  0.84672  0.34079  1.0000
  N   N87       1.0  0.77828  0.86120  0.49150  1.0000
  C   C397      1.0  0.78743  0.88089  0.56526  1.0000
  C   C398      1.0  0.78822  0.91195  0.56023  1.0000
  N   N88       1.0  0.77970  0.92055  0.48188  1.0000
  C   C399      1.0  0.79505  0.87062  0.64624  1.0000
  C   C400      1.0  0.79678  0.93261  0.63628  1.0000
  H   H255      1.0  0.79424  0.84810  0.65041  1.0000
  H   H256      1.0  0.79726  0.95499  0.63332  1.0000
  C   C401      1.0  0.59344  0.84964  0.33022  1.0000
  C   C402      1.0  0.60205  0.87059  0.40675  1.0000
  C   C403      1.0  0.63336  0.90108  0.41201  1.0000
  C   C404      1.0  0.65663  0.91155  0.34062  1.0000
  N   N89       1.0  0.64218  0.91768  0.49144  1.0000
  C   C405      1.0  0.62251  0.90711  0.56525  1.0000
  C   C406      1.0  0.59143  0.87688  0.56018  1.0000
  N   N90       1.0  0.58277  0.85982  0.48174  1.0000
  C   C407      1.0  0.63284  0.92495  0.64632  1.0000
  C   C408      1.0  0.57079  0.86474  0.63627  1.0000
  H   H257      1.0  0.65537  0.94663  0.65053  1.0000
  H   H258      1.0  0.54840  0.84286  0.63328  1.0000
  C   C409      1.0  0.85020  0.75804  0.33068  1.0000
  C   C410      1.0  0.87134  0.77060  0.40681  1.0000
  C   C411      1.0  0.90187  0.76984  0.41148  1.0000
  C   C412      1.0  0.91224  0.75708  0.33973  1.0000
  N   N91       1.0  0.91859  0.77758  0.49073  1.0000
  C   C413      1.0  0.90814  0.78665  0.56482  1.0000
  C   C414      1.0  0.87791  0.78753  0.56027  1.0000
  N   N92       1.0  0.86071  0.77911  0.48205  1.0000
  C   C415      1.0  0.92609  0.79414  0.64570  1.0000
  C   C416      1.0  0.86587  0.79599  0.63663  1.0000
  H   H259      1.0  0.94778  0.79329  0.64956  1.0000
  H   H260      1.0  0.84398  0.79649  0.63399  1.0000
  C   C417      1.0  0.74549  0.59283  0.33173  1.0000
  C   C418      1.0  0.73296  0.60151  0.40775  1.0000
  C   C419      1.0  0.73362  0.63275  0.41222  1.0000
  C   C420      1.0  0.74645  0.65582  0.34043  1.0000
  N   N93       1.0  0.72575  0.64172  0.49130  1.0000
  C   C421      1.0  0.71666  0.62222  0.56544  1.0000
  C   C422      1.0  0.71589  0.59116  0.56109  1.0000
  N   N94       1.0  0.72440  0.58237  0.48301  1.0000
  C   C423      1.0  0.70910  0.63269  0.64618  1.0000
  C   C424      1.0  0.70744  0.57071  0.63755  1.0000
  H   H261      1.0  0.70990  0.65521  0.64989  1.0000
  H   H262      1.0  0.70701  0.54835  0.63510  1.0000
  C   C425      1.0  0.91041  0.65290  0.32923  1.0000
  C   C426      1.0  0.90204  0.63221  0.40630  1.0000
  C   C427      1.0  0.87077  0.60171  0.41231  1.0000
  C   C428      1.0  0.84738  0.59111  0.34122  1.0000
  N   N95       1.0  0.86215  0.58525  0.49194  1.0000
  C   C429      1.0  0.88199  0.59599  0.56539  1.0000
  C   C430      1.0  0.91304  0.62624  0.55968  1.0000
  N   N96       1.0  0.92149  0.64314  0.48100  1.0000
  C   C431      1.0  0.87189  0.57827  0.64667  1.0000
  C   C432      1.0  0.93387  0.63850  0.63537  1.0000
  H   H263      1.0  0.84939  0.55657  0.65131  1.0000
  H   H264      1.0  0.95626  0.66038  0.63193  1.0000
