data_image0
_chemical_formula_structural       C18H11C3NCH4C7H5CNHC3NCNHCH2C18H11C3NCH4C7H5CNHC3NCNHCH2C18H11C3NCH4C7H5CNHC3NCNHCH2C18H11C3NCH4C7H5CNHC3NCNHCH2C18H11C3NCH4C7H5CNHC3NCNHCH2C18H11C3NCH4C7H5CNHC3NCNHCH2C18H11C3NCH4C7H5CNHC3NCNHCH2C18H11C3NCH4C7H5CNHC3NCNHCH2C18H11C3NCH4C7H5CNHC3NCNHCH2
_chemical_formula_sum              "C315 H216 N36"
_cell_length_a       36.2059
_cell_length_b       36.2065
_cell_length_c       15.0893
_cell_angle_alpha    90
_cell_angle_beta     90
_cell_angle_gamma    89.9298

_space_group_name_H-M_alt    "P 1"
_space_group_IT_number       1

loop_
  _space_group_symop_operation_xyz
  'x, y, z'

loop_
  _atom_site_type_symbol
  _atom_site_label
  _atom_site_symmetry_multiplicity
  _atom_site_fract_x
  _atom_site_fract_y
  _atom_site_fract_z
  _atom_site_occupancy
  C   C1        1.0  0.99750  0.24570  0.30881  1.0000
  C   C2        1.0  0.03136  0.25866  0.27449  1.0000
  C   C3        1.0  0.03166  0.28572  0.20770  1.0000
  C   C4        1.0  0.99838  0.30062  0.17290  1.0000
  C   C5        1.0  0.29879  0.29185  0.21983  1.0000
  C   C6        1.0  0.29817  0.26487  0.28647  1.0000
  C   C7        1.0  0.99803  0.99676  0.10079  1.0000
  C   C8        1.0  0.99454  0.03059  0.15996  1.0000
  C   C9        1.0  0.29302  0.04622  0.18162  1.0000
  C   C10       1.0  0.29015  0.07708  0.23738  1.0000
  C   C11       1.0  0.98904  0.09345  0.27209  1.0000
  C   C12       1.0  0.02341  0.07588  0.26004  1.0000
  C   C13       1.0  0.02576  0.04424  0.20680  1.0000
  C   C14       1.0  0.03172  0.99704  0.04009  1.0000
  C   C15       1.0  0.30087  0.32703  0.03125  1.0000
  C   C16       1.0  0.28066  0.29419  0.01522  1.0000
  C   C17       1.0  0.04499  0.29740  0.00011  1.0000
  C   C18       1.0  0.04673  0.03062  0.00768  1.0000
  H   H1        1.0  0.28564  0.27084  0.05121  1.0000
  H   H2        1.0  0.03378  0.27248  0.01710  1.0000
  H   H3        1.0  0.03677  0.05557  0.02842  1.0000
  H   H4        1.0  0.05132  0.03296  0.19679  1.0000
  H   H5        1.0  0.04735  0.08800  0.28150  1.0000
  H   H6        1.0  0.26517  0.09023  0.24252  1.0000
  H   H7        1.0  0.26928  0.03639  0.15376  1.0000
  H   H8        1.0  0.27408  0.30300  0.20096  1.0000
  H   H9        1.0  0.05664  0.29283  0.18141  1.0000
  H   H10       1.0  0.05526  0.24420  0.28566  1.0000
  H   H11       1.0  0.27296  0.25515  0.30671  1.0000
  C   C19       1.0  0.31955  0.15606  0.21193  1.0000
  C   C20       1.0  0.32261  0.13181  0.28559  1.0000
  C   C21       1.0  0.32687  0.20734  0.30917  1.0000
  N   N1        1.0  0.32166  0.19254  0.22778  1.0000
  C   C22       1.0  0.31631  0.14632  0.11668  1.0000
  H   H12       1.0  0.31941  0.11696  0.10350  1.0000
  H   H13       1.0  0.00441  0.16056  0.07900  1.0000
  H   H14       1.0  0.28938  0.15518  0.09206  1.0000
  H   H15       1.0  0.18434  0.26119  0.39816  1.0000
  C   C23       1.0  0.29359  0.02373  0.63974  1.0000
  C   C24       1.0  0.26626  0.02203  0.57409  1.0000
  C   C25       1.0  0.24217  0.32472  0.56910  1.0000
  C   C26       1.0  0.25083  0.29361  0.62223  1.0000
  C   C27       1.0  0.07517  0.29767  0.60787  1.0000
  C   C28       1.0  0.09205  0.99799  0.58288  1.0000
  C   C29       1.0  0.07572  0.03118  0.61316  1.0000
  H   H16       1.0  0.26121  0.04532  0.53754  1.0000
  H   H17       1.0  0.30737  0.04814  0.64668  1.0000
  H   H18       1.0  0.23381  0.27115  0.62409  1.0000
  H   H19       1.0  0.08604  0.27291  0.58812  1.0000
  H   H20       1.0  0.08646  0.05634  0.59610  1.0000
  C   C30       1.0  0.99574  0.14742  0.37016  1.0000
  N   N2        1.0  0.99800  0.18469  0.37999  1.0000
  H   H21       1.0  0.99929  0.13097  0.42457  1.0000
  C   C31       1.0  0.18300  0.29963  0.50318  1.0000
  C   C32       1.0  0.20552  0.32914  0.53464  1.0000
  C   C33       1.0  0.18642  0.02841  0.55930  1.0000
  N   N3        1.0  0.14952  0.02817  0.56751  1.0000
  C   C34       1.0  0.12824  0.33208  0.54660  1.0000
  N   N4        1.0  0.14565  0.30174  0.51361  1.0000
  H   H22       1.0  0.19954  0.05072  0.58611  1.0000
  C   C35       1.0  0.19733  0.26527  0.46270  1.0000
  H   H23       1.0  0.22714  0.26624  0.45242  1.0000
  H   H24       1.0  0.19078  0.24170  0.50492  1.0000
  C   C36       1.0  0.99750  0.57903  0.30881  1.0000
  C   C37       1.0  0.03136  0.59200  0.27449  1.0000
  C   C38       1.0  0.03166  0.61905  0.20770  1.0000
  C   C39       1.0  0.99838  0.63395  0.17290  1.0000
  C   C40       1.0  0.29880  0.62518  0.21983  1.0000
  C   C41       1.0  0.29817  0.59820  0.28647  1.0000
  C   C42       1.0  0.99803  0.33009  0.10079  1.0000
  C   C43       1.0  0.99454  0.36393  0.15996  1.0000
  C   C44       1.0  0.29302  0.37956  0.18162  1.0000
  C   C45       1.0  0.29015  0.41041  0.23738  1.0000
  C   C46       1.0  0.98904  0.42679  0.27209  1.0000
  C   C47       1.0  0.02341  0.40922  0.26004  1.0000
  C   C48       1.0  0.02576  0.37757  0.20680  1.0000
  C   C49       1.0  0.03172  0.33037  0.04009  1.0000
  C   C50       1.0  0.30087  0.66036  0.03125  1.0000
  C   C51       1.0  0.28066  0.62752  0.01522  1.0000
  C   C52       1.0  0.04499  0.63073  0.00011  1.0000
  C   C53       1.0  0.04673  0.36396  0.00768  1.0000
  H   H25       1.0  0.28564  0.60418  0.05121  1.0000
  H   H26       1.0  0.03378  0.60581  0.01710  1.0000
  H   H27       1.0  0.03677  0.38890  0.02842  1.0000
  H   H28       1.0  0.05132  0.36629  0.19679  1.0000
  H   H29       1.0  0.04735  0.42134  0.28150  1.0000
  H   H30       1.0  0.26517  0.42356  0.24252  1.0000
  H   H31       1.0  0.26928  0.36972  0.15376  1.0000
  H   H32       1.0  0.27408  0.63633  0.20096  1.0000
  H   H33       1.0  0.05664  0.62616  0.18141  1.0000
  H   H34       1.0  0.05526  0.57754  0.28566  1.0000
  H   H35       1.0  0.27296  0.58849  0.30671  1.0000
  C   C54       1.0  0.31955  0.48939  0.21193  1.0000
  C   C55       1.0  0.32261  0.46514  0.28559  1.0000
  C   C56       1.0  0.32687  0.54067  0.30917  1.0000
  N   N5        1.0  0.32166  0.52587  0.22778  1.0000
  C   C57       1.0  0.31631  0.47966  0.11668  1.0000
  H   H36       1.0  0.31941  0.45029  0.10350  1.0000
  H   H37       1.0  0.00441  0.49389  0.07900  1.0000
  H   H38       1.0  0.28937  0.48852  0.09206  1.0000
  H   H39       1.0  0.18434  0.59453  0.39816  1.0000
  C   C58       1.0  0.29359  0.35706  0.63974  1.0000
  C   C59       1.0  0.26626  0.35536  0.57409  1.0000
  C   C60       1.0  0.24217  0.65805  0.56910  1.0000
  C   C61       1.0  0.25083  0.62695  0.62223  1.0000
  C   C62       1.0  0.07517  0.63101  0.60787  1.0000
  C   C63       1.0  0.09204  0.33132  0.58288  1.0000
  C   C64       1.0  0.07572  0.36451  0.61316  1.0000
  H   H40       1.0  0.26121  0.37865  0.53754  1.0000
  H   H41       1.0  0.30737  0.38147  0.64668  1.0000
  H   H42       1.0  0.23381  0.60448  0.62409  1.0000
  H   H43       1.0  0.08604  0.60624  0.58812  1.0000
  H   H44       1.0  0.08646  0.38968  0.59610  1.0000
  C   C65       1.0  0.99574  0.48075  0.37016  1.0000
  N   N6        1.0  0.99800  0.51803  0.37999  1.0000
  H   H45       1.0  0.99929  0.46431  0.42457  1.0000
  C   C66       1.0  0.18300  0.63297  0.50318  1.0000
  C   C67       1.0  0.20552  0.66248  0.53464  1.0000
  C   C68       1.0  0.18642  0.36175  0.55930  1.0000
  N   N7        1.0  0.14952  0.36151  0.56751  1.0000
  C   C69       1.0  0.12824  0.66541  0.54660  1.0000
  N   N8        1.0  0.14565  0.63508  0.51361  1.0000
  H   H46       1.0  0.19954  0.38406  0.58611  1.0000
  C   C70       1.0  0.19733  0.59860  0.46270  1.0000
  H   H47       1.0  0.22714  0.59957  0.45242  1.0000
  H   H48       1.0  0.19078  0.57503  0.50492  1.0000
  C   C71       1.0  0.99750  0.91237  0.30881  1.0000
  C   C72       1.0  0.03136  0.92533  0.27449  1.0000
  C   C73       1.0  0.03166  0.95239  0.20770  1.0000
  C   C74       1.0  0.99838  0.96729  0.17290  1.0000
  C   C75       1.0  0.29880  0.95851  0.21983  1.0000
  C   C76       1.0  0.29817  0.93154  0.28647  1.0000
  C   C77       1.0  0.99803  0.66342  0.10079  1.0000
  C   C78       1.0  0.99454  0.69726  0.15996  1.0000
  C   C79       1.0  0.29302  0.71289  0.18162  1.0000
  C   C80       1.0  0.29015  0.74375  0.23738  1.0000
  C   C81       1.0  0.98904  0.76012  0.27209  1.0000
  C   C82       1.0  0.02341  0.74255  0.26004  1.0000
  C   C83       1.0  0.02576  0.71090  0.20680  1.0000
  C   C84       1.0  0.03172  0.66371  0.04009  1.0000
  C   C85       1.0  0.30087  0.99369  0.03125  1.0000
  C   C86       1.0  0.28066  0.96085  0.01522  1.0000
  C   C87       1.0  0.04499  0.96407  0.00011  1.0000
  C   C88       1.0  0.04673  0.69729  0.00768  1.0000
  H   H49       1.0  0.28564  0.93751  0.05121  1.0000
  H   H50       1.0  0.03378  0.93914  0.01710  1.0000
  H   H51       1.0  0.03677  0.72224  0.02842  1.0000
  H   H52       1.0  0.05132  0.69963  0.19679  1.0000
  H   H53       1.0  0.04735  0.75467  0.28150  1.0000
  H   H54       1.0  0.26517  0.75690  0.24252  1.0000
  H   H55       1.0  0.26928  0.70305  0.15376  1.0000
  H   H56       1.0  0.27408  0.96966  0.20096  1.0000
  H   H57       1.0  0.05664  0.95949  0.18141  1.0000
  H   H58       1.0  0.05526  0.91087  0.28566  1.0000
  H   H59       1.0  0.27296  0.92182  0.30671  1.0000
  C   C89       1.0  0.31955  0.82273  0.21193  1.0000
  C   C90       1.0  0.32261  0.79847  0.28559  1.0000
  C   C91       1.0  0.32687  0.87400  0.30917  1.0000
  N   N9        1.0  0.32166  0.85921  0.22778  1.0000
  C   C92       1.0  0.31631  0.81299  0.11668  1.0000
  H   H60       1.0  0.31941  0.78363  0.10350  1.0000
  H   H61       1.0  0.00441  0.82723  0.07900  1.0000
  H   H62       1.0  0.28937  0.82185  0.09206  1.0000
  H   H63       1.0  0.18434  0.92786  0.39816  1.0000
  C   C93       1.0  0.29359  0.69040  0.63974  1.0000
  C   C94       1.0  0.26626  0.68869  0.57409  1.0000
  C   C95       1.0  0.24217  0.99138  0.56910  1.0000
  C   C96       1.0  0.25083  0.96028  0.62223  1.0000
  C   C97       1.0  0.07517  0.96434  0.60787  1.0000
  C   C98       1.0  0.09205  0.66465  0.58288  1.0000
  C   C99       1.0  0.07572  0.69785  0.61316  1.0000
  H   H64       1.0  0.26121  0.71198  0.53754  1.0000
  H   H65       1.0  0.30736  0.71480  0.64668  1.0000
  H   H66       1.0  0.23381  0.93781  0.62409  1.0000
  H   H67       1.0  0.08604  0.93958  0.58812  1.0000
  H   H68       1.0  0.08646  0.72301  0.59610  1.0000
  C   C100      1.0  0.99574  0.81409  0.37016  1.0000
  N   N10       1.0  0.99800  0.85136  0.37999  1.0000
  H   H69       1.0  0.99929  0.79764  0.42457  1.0000
  C   C101      1.0  0.18300  0.96630  0.50318  1.0000
  C   C102      1.0  0.20552  0.99581  0.53464  1.0000
  C   C103      1.0  0.18642  0.69508  0.55930  1.0000
  N   N11       1.0  0.14952  0.69484  0.56751  1.0000
  C   C104      1.0  0.12824  0.99874  0.54660  1.0000
  N   N12       1.0  0.14565  0.96841  0.51361  1.0000
  H   H70       1.0  0.19954  0.71739  0.58611  1.0000
  C   C105      1.0  0.19733  0.93194  0.46270  1.0000
  H   H71       1.0  0.22714  0.93290  0.45242  1.0000
  H   H72       1.0  0.19078  0.90837  0.50492  1.0000
  C   C106      1.0  0.33084  0.24570  0.30881  1.0000
  C   C107      1.0  0.36469  0.25866  0.27449  1.0000
  C   C108      1.0  0.36499  0.28572  0.20770  1.0000
  C   C109      1.0  0.33171  0.30062  0.17290  1.0000
  C   C110      1.0  0.63213  0.29185  0.21983  1.0000
  C   C111      1.0  0.63151  0.26487  0.28647  1.0000
  C   C112      1.0  0.33137  0.99676  0.10079  1.0000
  C   C113      1.0  0.32787  0.03059  0.15996  1.0000
  C   C114      1.0  0.62635  0.04622  0.18162  1.0000
  C   C115      1.0  0.62348  0.07708  0.23738  1.0000
  C   C116      1.0  0.32237  0.09345  0.27209  1.0000
  C   C117      1.0  0.35675  0.07588  0.26004  1.0000
  C   C118      1.0  0.35909  0.04424  0.20680  1.0000
  C   C119      1.0  0.36505  0.99704  0.04009  1.0000
  C   C120      1.0  0.63421  0.32703  0.03125  1.0000
  C   C121      1.0  0.61399  0.29419  0.01522  1.0000
  C   C122      1.0  0.37833  0.29740  0.00011  1.0000
  C   C123      1.0  0.38006  0.03062  0.00768  1.0000
  H   H73       1.0  0.61898  0.27084  0.05121  1.0000
  H   H74       1.0  0.36711  0.27248  0.01710  1.0000
  H   H75       1.0  0.37011  0.05557  0.02842  1.0000
  H   H76       1.0  0.38465  0.03296  0.19679  1.0000
  H   H77       1.0  0.38068  0.08800  0.28150  1.0000
  H   H78       1.0  0.59850  0.09023  0.24252  1.0000
  H   H79       1.0  0.60261  0.03639  0.15376  1.0000
  H   H80       1.0  0.60741  0.30300  0.20096  1.0000
  H   H81       1.0  0.38998  0.29283  0.18141  1.0000
  H   H82       1.0  0.38859  0.24420  0.28566  1.0000
  H   H83       1.0  0.60629  0.25515  0.30671  1.0000
  C   C124      1.0  0.65288  0.15606  0.21193  1.0000
  C   C125      1.0  0.65595  0.13181  0.28559  1.0000
  C   C126      1.0  0.66021  0.20734  0.30917  1.0000
  N   N13       1.0  0.65500  0.19254  0.22778  1.0000
  C   C127      1.0  0.64964  0.14632  0.11668  1.0000
  H   H84       1.0  0.65274  0.11696  0.10350  1.0000
  H   H85       1.0  0.33774  0.16056  0.07900  1.0000
  H   H86       1.0  0.62271  0.15518  0.09206  1.0000
  H   H87       1.0  0.51768  0.26119  0.39816  1.0000
  C   C128      1.0  0.62692  0.02373  0.63974  1.0000
  C   C129      1.0  0.59959  0.02203  0.57409  1.0000
  C   C130      1.0  0.57550  0.32472  0.56910  1.0000
  C   C131      1.0  0.58417  0.29361  0.62223  1.0000
  C   C132      1.0  0.40851  0.29767  0.60787  1.0000
  C   C133      1.0  0.42538  0.99799  0.58288  1.0000
  C   C134      1.0  0.40906  0.03118  0.61316  1.0000
  H   H88       1.0  0.59454  0.04532  0.53754  1.0000
  H   H89       1.0  0.64070  0.04814  0.64668  1.0000
  H   H90       1.0  0.56714  0.27115  0.62409  1.0000
  H   H91       1.0  0.41937  0.27291  0.58812  1.0000
  H   H92       1.0  0.41979  0.05634  0.59610  1.0000
  C   C135      1.0  0.32907  0.14742  0.37016  1.0000
  N   N14       1.0  0.33133  0.18469  0.37999  1.0000
  H   H93       1.0  0.33263  0.13097  0.42457  1.0000
  C   C136      1.0  0.51633  0.29963  0.50318  1.0000
  C   C137      1.0  0.53886  0.32914  0.53464  1.0000
  C   C138      1.0  0.51975  0.02841  0.55930  1.0000
  N   N15       1.0  0.48285  0.02817  0.56751  1.0000
  C   C139      1.0  0.46157  0.33208  0.54660  1.0000
  N   N16       1.0  0.47898  0.30174  0.51361  1.0000
  H   H94       1.0  0.53287  0.05072  0.58611  1.0000
  C   C140      1.0  0.53066  0.26527  0.46270  1.0000
  H   H95       1.0  0.56047  0.26624  0.45242  1.0000
  H   H96       1.0  0.52412  0.24170  0.50492  1.0000
  C   C141      1.0  0.33084  0.57903  0.30881  1.0000
  C   C142      1.0  0.36470  0.59200  0.27449  1.0000
  C   C143      1.0  0.36499  0.61905  0.20770  1.0000
  C   C144      1.0  0.33171  0.63395  0.17290  1.0000
  C   C145      1.0  0.63213  0.62518  0.21983  1.0000
  C   C146      1.0  0.63151  0.59820  0.28647  1.0000
  C   C147      1.0  0.33137  0.33009  0.10079  1.0000
  C   C148      1.0  0.32787  0.36393  0.15996  1.0000
  C   C149      1.0  0.62635  0.37956  0.18162  1.0000
  C   C150      1.0  0.62348  0.41041  0.23738  1.0000
  C   C151      1.0  0.32237  0.42679  0.27209  1.0000
  C   C152      1.0  0.35675  0.40922  0.26004  1.0000
  C   C153      1.0  0.35909  0.37757  0.20680  1.0000
  C   C154      1.0  0.36505  0.33037  0.04009  1.0000
  C   C155      1.0  0.63420  0.66036  0.03125  1.0000
  C   C156      1.0  0.61400  0.62752  0.01522  1.0000
  C   C157      1.0  0.37833  0.63073  0.00011  1.0000
  C   C158      1.0  0.38006  0.36396  0.00768  1.0000
  H   H97       1.0  0.61898  0.60418  0.05121  1.0000
  H   H98       1.0  0.36711  0.60581  0.01710  1.0000
  H   H99       1.0  0.37011  0.38890  0.02842  1.0000
  H   H100      1.0  0.38465  0.36629  0.19679  1.0000
  H   H101      1.0  0.38068  0.42134  0.28150  1.0000
  H   H102      1.0  0.59850  0.42356  0.24252  1.0000
  H   H103      1.0  0.60261  0.36972  0.15376  1.0000
  H   H104      1.0  0.60741  0.63633  0.20096  1.0000
  H   H105      1.0  0.38997  0.62616  0.18141  1.0000
  H   H106      1.0  0.38859  0.57754  0.28566  1.0000
  H   H107      1.0  0.60629  0.58849  0.30671  1.0000
  C   C159      1.0  0.65288  0.48939  0.21193  1.0000
  C   C160      1.0  0.65595  0.46514  0.28559  1.0000
  C   C161      1.0  0.66021  0.54067  0.30917  1.0000
  N   N17       1.0  0.65499  0.52587  0.22778  1.0000
  C   C162      1.0  0.64964  0.47966  0.11668  1.0000
  H   H108      1.0  0.65274  0.45029  0.10350  1.0000
  H   H109      1.0  0.33774  0.49389  0.07900  1.0000
  H   H110      1.0  0.62271  0.48852  0.09206  1.0000
  H   H111      1.0  0.51768  0.59453  0.39816  1.0000
  C   C163      1.0  0.62692  0.35706  0.63974  1.0000
  C   C164      1.0  0.59959  0.35536  0.57409  1.0000
  C   C165      1.0  0.57550  0.65805  0.56910  1.0000
  C   C166      1.0  0.58417  0.62695  0.62223  1.0000
  C   C167      1.0  0.40851  0.63101  0.60787  1.0000
  C   C168      1.0  0.42538  0.33132  0.58288  1.0000
  C   C169      1.0  0.40906  0.36451  0.61316  1.0000
  H   H112      1.0  0.59454  0.37865  0.53754  1.0000
  H   H113      1.0  0.64070  0.38147  0.64668  1.0000
  H   H114      1.0  0.56714  0.60448  0.62409  1.0000
  H   H115      1.0  0.41937  0.60624  0.58812  1.0000
  H   H116      1.0  0.41979  0.38968  0.59610  1.0000
  C   C170      1.0  0.32907  0.48075  0.37016  1.0000
  N   N18       1.0  0.33133  0.51803  0.37999  1.0000
  H   H117      1.0  0.33263  0.46431  0.42457  1.0000
  C   C171      1.0  0.51633  0.63297  0.50318  1.0000
  C   C172      1.0  0.53886  0.66248  0.53464  1.0000
  C   C173      1.0  0.51975  0.36175  0.55930  1.0000
  N   N19       1.0  0.48285  0.36151  0.56751  1.0000
  C   C174      1.0  0.46157  0.66541  0.54660  1.0000
  N   N20       1.0  0.47898  0.63508  0.51361  1.0000
  H   H118      1.0  0.53287  0.38406  0.58611  1.0000
  C   C175      1.0  0.53066  0.59860  0.46270  1.0000
  H   H119      1.0  0.56047  0.59957  0.45242  1.0000
  H   H120      1.0  0.52412  0.57503  0.50492  1.0000
  C   C176      1.0  0.33083  0.91237  0.30881  1.0000
  C   C177      1.0  0.36470  0.92533  0.27449  1.0000
  C   C178      1.0  0.36499  0.95239  0.20770  1.0000
  C   C179      1.0  0.33171  0.96729  0.17290  1.0000
  C   C180      1.0  0.63213  0.95851  0.21983  1.0000
  C   C181      1.0  0.63151  0.93154  0.28647  1.0000
  C   C182      1.0  0.33137  0.66342  0.10079  1.0000
  C   C183      1.0  0.32787  0.69726  0.15996  1.0000
  C   C184      1.0  0.62635  0.71289  0.18162  1.0000
  C   C185      1.0  0.62348  0.74375  0.23738  1.0000
  C   C186      1.0  0.32237  0.76012  0.27209  1.0000
  C   C187      1.0  0.35675  0.74255  0.26004  1.0000
  C   C188      1.0  0.35909  0.71090  0.20680  1.0000
  C   C189      1.0  0.36505  0.66371  0.04009  1.0000
  C   C190      1.0  0.63420  0.99369  0.03125  1.0000
  C   C191      1.0  0.61400  0.96085  0.01522  1.0000
  C   C192      1.0  0.37833  0.96407  0.00011  1.0000
  C   C193      1.0  0.38006  0.69729  0.00768  1.0000
  H   H121      1.0  0.61898  0.93751  0.05121  1.0000
  H   H122      1.0  0.36711  0.93914  0.01710  1.0000
  H   H123      1.0  0.37010  0.72224  0.02842  1.0000
  H   H124      1.0  0.38465  0.69963  0.19679  1.0000
  H   H125      1.0  0.38068  0.75467  0.28150  1.0000
  H   H126      1.0  0.59850  0.75690  0.24252  1.0000
  H   H127      1.0  0.60261  0.70305  0.15376  1.0000
  H   H128      1.0  0.60741  0.96966  0.20096  1.0000
  H   H129      1.0  0.38997  0.95949  0.18141  1.0000
  H   H130      1.0  0.38859  0.91087  0.28566  1.0000
  H   H131      1.0  0.60629  0.92182  0.30671  1.0000
  C   C194      1.0  0.65288  0.82273  0.21193  1.0000
  C   C195      1.0  0.65595  0.79847  0.28559  1.0000
  C   C196      1.0  0.66021  0.87400  0.30917  1.0000
  N   N21       1.0  0.65499  0.85921  0.22778  1.0000
  C   C197      1.0  0.64964  0.81299  0.11668  1.0000
  H   H132      1.0  0.65274  0.78363  0.10350  1.0000
  H   H133      1.0  0.33774  0.82723  0.07900  1.0000
  H   H134      1.0  0.62271  0.82185  0.09206  1.0000
  H   H135      1.0  0.51768  0.92786  0.39816  1.0000
  C   C198      1.0  0.62692  0.69040  0.63974  1.0000
  C   C199      1.0  0.59959  0.68869  0.57409  1.0000
  C   C200      1.0  0.57550  0.99138  0.56910  1.0000
  C   C201      1.0  0.58417  0.96028  0.62223  1.0000
  C   C202      1.0  0.40851  0.96434  0.60787  1.0000
  C   C203      1.0  0.42538  0.66465  0.58288  1.0000
  C   C204      1.0  0.40906  0.69785  0.61316  1.0000
  H   H136      1.0  0.59454  0.71198  0.53754  1.0000
  H   H137      1.0  0.64070  0.71480  0.64668  1.0000
  H   H138      1.0  0.56714  0.93781  0.62409  1.0000
  H   H139      1.0  0.41937  0.93958  0.58812  1.0000
  H   H140      1.0  0.41979  0.72301  0.59610  1.0000
  C   C205      1.0  0.32907  0.81409  0.37016  1.0000
  N   N22       1.0  0.33133  0.85136  0.37999  1.0000
  H   H141      1.0  0.33263  0.79764  0.42457  1.0000
  C   C206      1.0  0.51633  0.96630  0.50318  1.0000
  C   C207      1.0  0.53886  0.99581  0.53464  1.0000
  C   C208      1.0  0.51975  0.69508  0.55930  1.0000
  N   N23       1.0  0.48285  0.69484  0.56751  1.0000
  C   C209      1.0  0.46157  0.99874  0.54660  1.0000
  N   N24       1.0  0.47898  0.96841  0.51361  1.0000
  H   H142      1.0  0.53287  0.71739  0.58611  1.0000
  C   C210      1.0  0.53066  0.93194  0.46270  1.0000
  H   H143      1.0  0.56047  0.93290  0.45242  1.0000
  H   H144      1.0  0.52412  0.90837  0.50492  1.0000
  C   C211      1.0  0.66417  0.24570  0.30881  1.0000
  C   C212      1.0  0.69803  0.25866  0.27449  1.0000
  C   C213      1.0  0.69832  0.28572  0.20770  1.0000
  C   C214      1.0  0.66504  0.30062  0.17290  1.0000
  C   C215      1.0  0.96546  0.29185  0.21983  1.0000
  C   C216      1.0  0.96484  0.26487  0.28647  1.0000
  C   C217      1.0  0.66470  0.99676  0.10079  1.0000
  C   C218      1.0  0.66120  0.03059  0.15996  1.0000
  C   C219      1.0  0.95969  0.04622  0.18162  1.0000
  C   C220      1.0  0.95681  0.07708  0.23738  1.0000
  C   C221      1.0  0.65571  0.09345  0.27209  1.0000
  C   C222      1.0  0.69008  0.07588  0.26004  1.0000
  C   C223      1.0  0.69242  0.04424  0.20680  1.0000
  C   C224      1.0  0.69839  0.99704  0.04009  1.0000
  C   C225      1.0  0.96754  0.32703  0.03125  1.0000
  C   C226      1.0  0.94733  0.29419  0.01522  1.0000
  C   C227      1.0  0.71166  0.29740  0.00011  1.0000
  C   C228      1.0  0.71340  0.03062  0.00768  1.0000
  H   H145      1.0  0.95231  0.27084  0.05121  1.0000
  H   H146      1.0  0.70045  0.27248  0.01710  1.0000
  H   H147      1.0  0.70344  0.05557  0.02842  1.0000
  H   H148      1.0  0.71798  0.03296  0.19679  1.0000
  H   H149      1.0  0.71402  0.08800  0.28150  1.0000
  H   H150      1.0  0.93184  0.09023  0.24252  1.0000
  H   H151      1.0  0.93594  0.03639  0.15376  1.0000
  H   H152      1.0  0.94075  0.30300  0.20096  1.0000
  H   H153      1.0  0.72331  0.29283  0.18141  1.0000
  H   H154      1.0  0.72193  0.24420  0.28566  1.0000
  H   H155      1.0  0.93962  0.25515  0.30671  1.0000
  C   C229      1.0  0.98622  0.15606  0.21193  1.0000
  C   C230      1.0  0.98928  0.13181  0.28559  1.0000
  C   C231      1.0  0.99354  0.20734  0.30917  1.0000
  N   N25       1.0  0.98833  0.19254  0.22778  1.0000
  C   C232      1.0  0.98297  0.14632  0.11668  1.0000
  H   H156      1.0  0.98607  0.11696  0.10350  1.0000
  H   H157      1.0  0.67107  0.16056  0.07900  1.0000
  H   H158      1.0  0.95604  0.15518  0.09206  1.0000
  H   H159      1.0  0.85101  0.26119  0.39816  1.0000
  C   C233      1.0  0.96026  0.02373  0.63974  1.0000
  C   C234      1.0  0.93292  0.02203  0.57409  1.0000
  C   C235      1.0  0.90883  0.32472  0.56910  1.0000
  C   C236      1.0  0.91750  0.29361  0.62223  1.0000
  C   C237      1.0  0.74184  0.29767  0.60787  1.0000
  C   C238      1.0  0.75871  0.99799  0.58288  1.0000
  C   C239      1.0  0.74239  0.03118  0.61316  1.0000
  H   H160      1.0  0.92788  0.04532  0.53754  1.0000
  H   H161      1.0  0.97403  0.04814  0.64668  1.0000
  H   H162      1.0  0.90047  0.27115  0.62409  1.0000
  H   H163      1.0  0.75270  0.27291  0.58812  1.0000
  H   H164      1.0  0.75312  0.05634  0.59610  1.0000
  C   C240      1.0  0.66240  0.14742  0.37016  1.0000
  N   N26       1.0  0.66467  0.18469  0.37999  1.0000
  H   H165      1.0  0.66596  0.13097  0.42457  1.0000
  C   C241      1.0  0.84967  0.29963  0.50318  1.0000
  C   C242      1.0  0.87219  0.32914  0.53464  1.0000
  C   C243      1.0  0.85309  0.02841  0.55930  1.0000
  N   N27       1.0  0.81619  0.02817  0.56751  1.0000
  C   C244      1.0  0.79491  0.33208  0.54660  1.0000
  N   N28       1.0  0.81232  0.30174  0.51361  1.0000
  H   H166      1.0  0.86621  0.05072  0.58611  1.0000
  C   C245      1.0  0.86400  0.26527  0.46270  1.0000
  H   H167      1.0  0.89380  0.26624  0.45242  1.0000
  H   H168      1.0  0.85745  0.24170  0.50492  1.0000
  C   C246      1.0  0.66417  0.57903  0.30881  1.0000
  C   C247      1.0  0.69803  0.59200  0.27449  1.0000
  C   C248      1.0  0.69832  0.61905  0.20770  1.0000
  C   C249      1.0  0.66505  0.63395  0.17290  1.0000
  C   C250      1.0  0.96546  0.62518  0.21983  1.0000
  C   C251      1.0  0.96484  0.59820  0.28647  1.0000
  C   C252      1.0  0.66470  0.33009  0.10079  1.0000
  C   C253      1.0  0.66120  0.36393  0.15996  1.0000
  C   C254      1.0  0.95969  0.37956  0.18162  1.0000
  C   C255      1.0  0.95681  0.41041  0.23738  1.0000
  C   C256      1.0  0.65571  0.42679  0.27209  1.0000
  C   C257      1.0  0.69008  0.40922  0.26004  1.0000
  C   C258      1.0  0.69242  0.37757  0.20680  1.0000
  C   C259      1.0  0.69839  0.33037  0.04009  1.0000
  C   C260      1.0  0.96754  0.66036  0.03125  1.0000
  C   C261      1.0  0.94733  0.62752  0.01522  1.0000
  C   C262      1.0  0.71166  0.63073  0.00011  1.0000
  C   C263      1.0  0.71340  0.36396  0.00768  1.0000
  H   H169      1.0  0.95231  0.60418  0.05121  1.0000
  H   H170      1.0  0.70045  0.60581  0.01710  1.0000
  H   H171      1.0  0.70344  0.38890  0.02842  1.0000
  H   H172      1.0  0.71798  0.36629  0.19679  1.0000
  H   H173      1.0  0.71402  0.42134  0.28150  1.0000
  H   H174      1.0  0.93184  0.42356  0.24252  1.0000
  H   H175      1.0  0.93594  0.36972  0.15376  1.0000
  H   H176      1.0  0.94075  0.63633  0.20096  1.0000
  H   H177      1.0  0.72331  0.62616  0.18141  1.0000
  H   H178      1.0  0.72193  0.57754  0.28566  1.0000
  H   H179      1.0  0.93962  0.58849  0.30671  1.0000
  C   C264      1.0  0.98622  0.48939  0.21193  1.0000
  C   C265      1.0  0.98928  0.46514  0.28559  1.0000
  C   C266      1.0  0.99354  0.54067  0.30917  1.0000
  N   N29       1.0  0.98833  0.52587  0.22778  1.0000
  C   C267      1.0  0.98297  0.47966  0.11668  1.0000
  H   H180      1.0  0.98607  0.45029  0.10350  1.0000
  H   H181      1.0  0.67108  0.49389  0.07900  1.0000
  H   H182      1.0  0.95604  0.48852  0.09206  1.0000
  H   H183      1.0  0.85101  0.59453  0.39816  1.0000
  C   C268      1.0  0.96026  0.35706  0.63974  1.0000
  C   C269      1.0  0.93292  0.35536  0.57409  1.0000
  C   C270      1.0  0.90884  0.65805  0.56910  1.0000
  C   C271      1.0  0.91750  0.62695  0.62223  1.0000
  C   C272      1.0  0.74184  0.63101  0.60787  1.0000
  C   C273      1.0  0.75871  0.33132  0.58288  1.0000
  C   C274      1.0  0.74239  0.36451  0.61316  1.0000
  H   H184      1.0  0.92788  0.37865  0.53754  1.0000
  H   H185      1.0  0.97403  0.38147  0.64668  1.0000
  H   H186      1.0  0.90047  0.60448  0.62409  1.0000
  H   H187      1.0  0.75270  0.60624  0.58812  1.0000
  H   H188      1.0  0.75312  0.38968  0.59610  1.0000
  C   C275      1.0  0.66240  0.48075  0.37016  1.0000
  N   N30       1.0  0.66467  0.51803  0.37999  1.0000
  H   H189      1.0  0.66596  0.46431  0.42457  1.0000
  C   C276      1.0  0.84967  0.63297  0.50318  1.0000
  C   C277      1.0  0.87219  0.66248  0.53464  1.0000
  C   C278      1.0  0.85309  0.36175  0.55930  1.0000
  N   N31       1.0  0.81619  0.36151  0.56751  1.0000
  C   C279      1.0  0.79491  0.66541  0.54660  1.0000
  N   N32       1.0  0.81232  0.63508  0.51361  1.0000
  H   H190      1.0  0.86621  0.38406  0.58611  1.0000
  C   C280      1.0  0.86400  0.59860  0.46270  1.0000
  H   H191      1.0  0.89380  0.59957  0.45242  1.0000
  H   H192      1.0  0.85745  0.57503  0.50492  1.0000
  C   C281      1.0  0.66417  0.91237  0.30881  1.0000
  C   C282      1.0  0.69803  0.92533  0.27449  1.0000
  C   C283      1.0  0.69832  0.95239  0.20770  1.0000
  C   C284      1.0  0.66505  0.96729  0.17290  1.0000
  C   C285      1.0  0.96546  0.95851  0.21983  1.0000
  C   C286      1.0  0.96484  0.93154  0.28647  1.0000
  C   C287      1.0  0.66470  0.66342  0.10079  1.0000
  C   C288      1.0  0.66120  0.69726  0.15996  1.0000
  C   C289      1.0  0.95969  0.71289  0.18162  1.0000
  C   C290      1.0  0.95681  0.74375  0.23738  1.0000
  C   C291      1.0  0.65570  0.76012  0.27209  1.0000
  C   C292      1.0  0.69008  0.74255  0.26004  1.0000
  C   C293      1.0  0.69242  0.71090  0.20680  1.0000
  C   C294      1.0  0.69839  0.66371  0.04009  1.0000
  C   C295      1.0  0.96754  0.99369  0.03125  1.0000
  C   C296      1.0  0.94733  0.96085  0.01522  1.0000
  C   C297      1.0  0.71166  0.96407  0.00011  1.0000
  C   C298      1.0  0.71340  0.69729  0.00768  1.0000
  H   H193      1.0  0.95231  0.93751  0.05121  1.0000
  H   H194      1.0  0.70045  0.93914  0.01710  1.0000
  H   H195      1.0  0.70344  0.72224  0.02842  1.0000
  H   H196      1.0  0.71798  0.69963  0.19679  1.0000
  H   H197      1.0  0.71402  0.75467  0.28150  1.0000
  H   H198      1.0  0.93183  0.75690  0.24252  1.0000
  H   H199      1.0  0.93595  0.70305  0.15376  1.0000
  H   H200      1.0  0.94075  0.96966  0.20096  1.0000
  H   H201      1.0  0.72331  0.95949  0.18141  1.0000
  H   H202      1.0  0.72193  0.91087  0.28566  1.0000
  H   H203      1.0  0.93962  0.92182  0.30671  1.0000
  C   C299      1.0  0.98621  0.82273  0.21193  1.0000
  C   C300      1.0  0.98928  0.79847  0.28559  1.0000
  C   C301      1.0  0.99354  0.87400  0.30917  1.0000
  N   N33       1.0  0.98833  0.85921  0.22778  1.0000
  C   C302      1.0  0.98297  0.81299  0.11668  1.0000
  H   H204      1.0  0.98607  0.78363  0.10350  1.0000
  H   H205      1.0  0.67108  0.82723  0.07900  1.0000
  H   H206      1.0  0.95604  0.82185  0.09206  1.0000
  H   H207      1.0  0.85101  0.92786  0.39816  1.0000
  C   C303      1.0  0.96026  0.69040  0.63974  1.0000
  C   C304      1.0  0.93292  0.68869  0.57409  1.0000
  C   C305      1.0  0.90884  0.99138  0.56910  1.0000
  C   C306      1.0  0.91750  0.96028  0.62223  1.0000
  C   C307      1.0  0.74184  0.96434  0.60787  1.0000
  C   C308      1.0  0.75871  0.66465  0.58288  1.0000
  C   C309      1.0  0.74239  0.69785  0.61316  1.0000
  H   H208      1.0  0.92788  0.71198  0.53754  1.0000
  H   H209      1.0  0.97403  0.71480  0.64668  1.0000
  H   H210      1.0  0.90047  0.93781  0.62409  1.0000
  H   H211      1.0  0.75270  0.93958  0.58812  1.0000
  H   H212      1.0  0.75312  0.72301  0.59610  1.0000
  C   C310      1.0  0.66240  0.81409  0.37016  1.0000
  N   N34       1.0  0.66467  0.85136  0.37999  1.0000
  H   H213      1.0  0.66596  0.79764  0.42457  1.0000
  C   C311      1.0  0.84967  0.96630  0.50318  1.0000
  C   C312      1.0  0.87219  0.99581  0.53464  1.0000
  C   C313      1.0  0.85309  0.69508  0.55930  1.0000
  N   N35       1.0  0.81619  0.69484  0.56751  1.0000
  C   C314      1.0  0.79490  0.99874  0.54660  1.0000
  N   N36       1.0  0.81231  0.96841  0.51361  1.0000
  H   H214      1.0  0.86621  0.71739  0.58611  1.0000
  C   C315      1.0  0.86400  0.93194  0.46270  1.0000
  H   H215      1.0  0.89380  0.93290  0.45242  1.0000
  H   H216      1.0  0.85745  0.90837  0.50492  1.0000
