data_image0
_chemical_formula_structural       C2HCHNCH4C4H2CNC2NCNCH2C2HCHNCH4C4H2CNC2NCNCH2C2H2NCH6CH3CHC3H2C2NCNHCH2CNHCH2CNHC2H2NCH6CH3CHC3H2C2NCNHCH2CNHCH2CNHC4HC4HNCHCH4NCH4C4HC3HC4H2C3NCN2CH2C2NCNCNHCH2C2HC4HNCHCH4NCH4C4HC3HC4H2C3NCN2CH2C2NCNCNHCH2C2HNCHCH2NCHCH4C4H2C2NCNCHC2NCNCNHCH2C2HNCHCH2NCHCH4C4H2C2NCNCHC2NCNCNHCH2C2HC2HC2HC2HC2HC2HNCHCH4NCHCH4NCHCH4NCHCH4NCHCH4NCHCH4C4H2C4H2C4H2C4H2C4H2C4H2C2NCNCNHCH2C2NCNCNHCH2C2NCNCNHCH2C2NCNCNHCH2C2NCNCNHCH2C2NCNCNHCH2C2HC2HC2HC2HC2HC2HNCHCH4NCHCH4NCHCH4NCHCH4NCHCH4NCHCH4C4H2C4H2C4H2C4H2C4H2C4H2C2NCNCNHCH2C2NCNCNHCH2C2NCNCNHCH2C2NCNCNHCH2C2NCNCNHCH2C2NCNCNHCH2
_chemical_formula_sum              "C312 H264 N96"
_cell_length_a       46.5032
_cell_length_b       46.5032
_cell_length_c       14.7925
_cell_angle_alpha    90
_cell_angle_beta     90
_cell_angle_gamma    120

_space_group_name_H-M_alt    "P 1"
_space_group_IT_number       1

loop_
  _space_group_symop_operation_xyz
  'x, y, z'

loop_
  _atom_site_type_symbol
  _atom_site_label
  _atom_site_symmetry_multiplicity
  _atom_site_fract_x
  _atom_site_fract_y
  _atom_site_fract_z
  _atom_site_occupancy
  C   C1        1.0  0.04797  0.30188  0.32401  1.0000
  C   C2        1.0  0.08255  0.31985  0.34197  1.0000
  H   H1        1.0  0.03671  0.31582  0.32188  1.0000
  C   C3        1.0  0.11393  0.24113  0.27580  1.0000
  H   H2        1.0  0.10297  0.23794  0.21388  1.0000
  N   N1        1.0  0.11371  0.37382  0.27893  1.0000
  C   C4        1.0  0.11016  0.34648  0.05103  1.0000
  H   H3        1.0  0.13220  0.37047  0.06511  1.0000
  H   H4        1.0  0.10294  0.33238  0.11407  1.0000
  H   H5        1.0  0.09003  0.35066  0.02979  1.0000
  H   H6        1.0  0.08396  0.27943  0.02826  1.0000
  C   C5        1.0  0.02886  0.26623  0.31869  1.0000
  C   C6        1.0  0.09898  0.30154  0.35244  1.0000
  C   C7        1.0  0.08294  0.26694  0.34012  1.0000
  C   C8        1.0  0.04845  0.25014  0.32076  1.0000
  H   H7        1.0  0.12418  0.31423  0.36348  1.0000
  H   H8        1.0  0.03760  0.22507  0.31452  1.0000
  C   C9        1.0  0.10274  0.25179  0.35063  1.0000
  N   N2        1.0  0.12219  0.26021  0.42579  1.0000
  C   C10       1.0  0.10175  0.35480  0.35507  1.0000
  C   C11       1.0  0.12201  0.36756  0.43313  1.0000
  N   N3        1.0  0.11317  0.35041  0.50973  1.0000
  C   C12       1.0  0.13107  0.34660  0.56940  1.0000
  N   N4        1.0  0.11746  0.32814  0.64740  1.0000
  C   C13       1.0  0.09009  0.29347  0.63186  1.0000
  H   H9        1.0  0.09754  0.28082  0.58305  1.0000
  H   H10       1.0  0.06777  0.29304  0.60669  1.0000
  C   C14       1.0  0.04797  0.80188  0.32401  1.0000
  C   C15       1.0  0.08255  0.81985  0.34197  1.0000
  H   H11       1.0  0.03671  0.81582  0.32188  1.0000
  C   C16       1.0  0.11393  0.74113  0.27580  1.0000
  H   H12       1.0  0.10298  0.73794  0.21388  1.0000
  N   N5        1.0  0.11371  0.87382  0.27893  1.0000
  C   C17       1.0  0.11016  0.84648  0.05103  1.0000
  H   H13       1.0  0.13220  0.87047  0.06511  1.0000
  H   H14       1.0  0.10294  0.83238  0.11407  1.0000
  H   H15       1.0  0.09003  0.85066  0.02979  1.0000
  H   H16       1.0  0.08397  0.77943  0.02826  1.0000
  C   C18       1.0  0.02886  0.76623  0.31869  1.0000
  C   C19       1.0  0.09898  0.80154  0.35244  1.0000
  C   C20       1.0  0.08294  0.76694  0.34012  1.0000
  C   C21       1.0  0.04845  0.75014  0.32076  1.0000
  H   H17       1.0  0.12418  0.81423  0.36348  1.0000
  H   H18       1.0  0.03760  0.72507  0.31452  1.0000
  C   C22       1.0  0.10274  0.75179  0.35063  1.0000
  N   N6        1.0  0.12219  0.76021  0.42579  1.0000
  C   C23       1.0  0.10175  0.85480  0.35507  1.0000
  C   C24       1.0  0.12201  0.86756  0.43313  1.0000
  N   N7        1.0  0.11317  0.85041  0.50973  1.0000
  C   C25       1.0  0.13107  0.84660  0.56940  1.0000
  N   N8        1.0  0.11746  0.82815  0.64740  1.0000
  C   C26       1.0  0.09009  0.79347  0.63186  1.0000
  H   H19       1.0  0.09754  0.78082  0.58305  1.0000
  H   H20       1.0  0.06777  0.79304  0.60669  1.0000
  C   C27       1.0  0.21601  0.24966  0.32483  1.0000
  C   C28       1.0  0.19819  0.26626  0.34501  1.0000
  H   H21       1.0  0.20199  0.22449  0.32154  1.0000
  H   H22       1.0  0.22809  0.03317  0.32081  1.0000
  N   N9        1.0  0.14417  0.24294  0.28077  1.0000
  C   C29       1.0  0.17084  0.26826  0.05279  1.0000
  H   H23       1.0  0.14678  0.26622  0.06623  1.0000
  H   H24       1.0  0.18481  0.27530  0.11605  1.0000
  H   H25       1.0  0.16682  0.24396  0.03208  1.0000
  H   H26       1.0  0.23790  0.30930  0.03088  1.0000
  H   H27       1.0  0.24136  0.41250  0.11576  1.0000
  H   H28       1.0  0.20851  0.43277  0.02962  1.0000
  C   C30       1.0  0.14213  0.40409  0.27472  1.0000
  H   H29       1.0  0.15029  0.41481  0.21272  1.0000
  H   H30       1.0  0.24279  0.14661  0.21178  1.0000
  H   H31       1.0  0.22869  0.19836  0.31368  1.0000
  C   C31       1.0  0.21665  0.30098  0.35611  1.0000
  H   H32       1.0  0.20404  0.31353  0.36776  1.0000
  C   C32       1.0  0.21707  0.41911  0.35449  1.0000
  C   C33       1.0  0.19851  0.43508  0.34089  1.0000
  C   C34       1.0  0.21624  0.46952  0.32079  1.0000
  H   H33       1.0  0.20453  0.39394  0.36598  1.0000
  H   H34       1.0  0.20202  0.48034  0.31347  1.0000
  C   C35       1.0  0.16318  0.25066  0.35705  1.0000
  C   C36       1.0  0.15037  0.25849  0.43449  1.0000
  N   N10       1.0  0.16735  0.26699  0.51140  1.0000
  C   C37       1.0  0.17093  0.28876  0.57061  1.0000
  N   N11       1.0  0.18925  0.29381  0.64901  1.0000
  H   H35       1.0  0.16003  0.30223  0.56206  1.0000
  C   C38       1.0  0.22400  0.30123  0.63428  1.0000
  H   H36       1.0  0.23669  0.32128  0.58534  1.0000
  H   H37       1.0  0.22459  0.27937  0.60967  1.0000
  C   C39       1.0  0.22876  0.38612  0.56937  1.0000
  N   N12       1.0  0.22356  0.39924  0.64782  1.0000
  H   H38       1.0  0.21487  0.36184  0.55971  1.0000
  C   C40       1.0  0.21674  0.42698  0.63322  1.0000
  H   H39       1.0  0.19700  0.42010  0.58352  1.0000
  H   H40       1.0  0.23893  0.44935  0.60961  1.0000
  C   C41       1.0  0.16354  0.41523  0.35052  1.0000
  N   N13       1.0  0.15201  0.39570  0.42541  1.0000
  H   H41       1.0  0.15547  0.35744  0.56153  1.0000
  C   C42       1.0  0.21601  0.74966  0.32483  1.0000
  C   C43       1.0  0.19819  0.76626  0.34501  1.0000
  H   H42       1.0  0.20199  0.72449  0.32154  1.0000
  H   H43       1.0  0.22809  0.53317  0.32081  1.0000
  N   N14       1.0  0.14417  0.74294  0.28077  1.0000
  C   C44       1.0  0.17085  0.76827  0.05279  1.0000
  H   H44       1.0  0.14678  0.76622  0.06623  1.0000
  H   H45       1.0  0.18481  0.77530  0.11605  1.0000
  H   H46       1.0  0.16682  0.74396  0.03208  1.0000
  H   H47       1.0  0.23790  0.80930  0.03088  1.0000
  H   H48       1.0  0.24136  0.91250  0.11576  1.0000
  H   H49       1.0  0.20851  0.93276  0.02962  1.0000
  C   C45       1.0  0.14213  0.90409  0.27472  1.0000
  H   H50       1.0  0.15029  0.91482  0.21272  1.0000
  H   H51       1.0  0.24279  0.64661  0.21178  1.0000
  H   H52       1.0  0.22870  0.69836  0.31368  1.0000
  C   C46       1.0  0.21665  0.80099  0.35611  1.0000
  H   H53       1.0  0.20404  0.81354  0.36776  1.0000
  C   C47       1.0  0.21707  0.91911  0.35449  1.0000
  C   C48       1.0  0.19851  0.93508  0.34089  1.0000
  C   C49       1.0  0.21624  0.96952  0.32079  1.0000
  H   H54       1.0  0.20453  0.89394  0.36598  1.0000
  H   H55       1.0  0.20202  0.98034  0.31347  1.0000
  C   C50       1.0  0.16318  0.75065  0.35705  1.0000
  C   C51       1.0  0.15037  0.75849  0.43449  1.0000
  N   N15       1.0  0.16735  0.76699  0.51140  1.0000
  C   C52       1.0  0.17093  0.78876  0.57061  1.0000
  N   N16       1.0  0.18924  0.79381  0.64901  1.0000
  H   H56       1.0  0.16002  0.80223  0.56206  1.0000
  C   C53       1.0  0.22400  0.80124  0.63428  1.0000
  H   H57       1.0  0.23669  0.82128  0.58534  1.0000
  H   H58       1.0  0.22459  0.77938  0.60967  1.0000
  C   C54       1.0  0.22876  0.88612  0.56937  1.0000
  N   N17       1.0  0.22356  0.89924  0.64782  1.0000
  H   H59       1.0  0.21487  0.86184  0.55971  1.0000
  C   C55       1.0  0.21674  0.92699  0.63322  1.0000
  H   H60       1.0  0.19700  0.92010  0.58352  1.0000
  H   H61       1.0  0.23893  0.94935  0.60961  1.0000
  C   C56       1.0  0.16354  0.91523  0.35052  1.0000
  N   N18       1.0  0.15201  0.89571  0.42541  1.0000
  H   H62       1.0  0.15548  0.85745  0.56153  1.0000
  C   C57       1.0  0.24513  0.13836  0.27388  1.0000
  C   C58       1.0  0.24513  0.63836  0.27388  1.0000
  C   C59       1.0  0.32343  0.24801  0.34272  1.0000
  C   C60       1.0  0.30556  0.26469  0.32426  1.0000
  H   H63       1.0  0.31955  0.28988  0.32216  1.0000
  C   C61       1.0  0.26985  0.07893  0.34237  1.0000
  C   C62       1.0  0.25327  0.04439  0.32390  1.0000
  C   C63       1.0  0.26843  0.46999  0.32501  1.0000
  C   C64       1.0  0.25182  0.43550  0.34428  1.0000
  H   H64       1.0  0.29361  0.48119  0.32210  1.0000
  N   N19       1.0  0.27516  0.40458  0.28127  1.0000
  C   C65       1.0  0.27719  0.37626  0.27700  1.0000
  H   H65       1.0  0.27999  0.36820  0.21512  1.0000
  C   C66       1.0  0.24858  0.40568  0.05263  1.0000
  H   H66       1.0  0.25016  0.38338  0.06576  1.0000
  H   H67       1.0  0.27315  0.42581  0.03312  1.0000
  H   H68       1.0  0.33563  0.23783  0.11460  1.0000
  H   H69       1.0  0.28259  0.20482  0.02832  1.0000
  N   N20       1.0  0.24710  0.11002  0.27850  1.0000
  C   C67       1.0  0.27068  0.10692  0.05074  1.0000
  H   H70       1.0  0.26882  0.12903  0.06446  1.0000
  H   H71       1.0  0.27752  0.09975  0.11392  1.0000
  H   H72       1.0  0.24633  0.08681  0.02962  1.0000
  H   H73       1.0  0.31132  0.08045  0.02860  1.0000
  C   C68       1.0  0.26991  0.24822  0.31860  1.0000
  C   C69       1.0  0.25376  0.21254  0.32025  1.0000
  C   C70       1.0  0.27048  0.19477  0.33961  1.0000
  C   C71       1.0  0.30504  0.21325  0.35270  1.0000
  H   H74       1.0  0.31765  0.20067  0.36373  1.0000
  C   C72       1.0  0.25165  0.26613  0.31909  1.0000
  C   C73       1.0  0.25117  0.31953  0.34235  1.0000
  C   C74       1.0  0.26780  0.30180  0.32137  1.0000
  H   H75       1.0  0.29283  0.31600  0.31379  1.0000
  C   C75       1.0  0.26981  0.02528  0.31876  1.0000
  C   C76       1.0  0.30548  0.04487  0.32119  1.0000
  C   C77       1.0  0.32315  0.07932  0.34110  1.0000
  C   C78       1.0  0.30457  0.09534  0.35345  1.0000
  H   H76       1.0  0.31972  0.03403  0.31501  1.0000
  H   H77       1.0  0.31706  0.12051  0.36482  1.0000
  C   C79       1.0  0.25191  0.48910  0.31896  1.0000
  C   C80       1.0  0.26753  0.41625  0.35699  1.0000
  C   C81       1.0  0.26635  0.35450  0.35207  1.0000
  N   N21       1.0  0.25797  0.36583  0.42671  1.0000
  C   C82       1.0  0.25973  0.39576  0.43475  1.0000
  N   N22       1.0  0.25112  0.40428  0.51141  1.0000
  N   N23       1.0  0.33120  0.21990  0.64684  1.0000
  C   C83       1.0  0.29663  0.21301  0.63196  1.0000
  H   H78       1.0  0.28384  0.19321  0.58238  1.0000
  H   H79       1.0  0.29642  0.23514  0.60807  1.0000
  C   C84       1.0  0.25406  0.09812  0.35492  1.0000
  C   C85       1.0  0.25527  0.15981  0.34960  1.0000
  N   N24       1.0  0.26320  0.14837  0.42478  1.0000
  C   C86       1.0  0.26139  0.11840  0.43287  1.0000
  N   N25       1.0  0.26960  0.10963  0.50972  1.0000
  C   C87       1.0  0.29151  0.12756  0.56893  1.0000
  N   N26       1.0  0.29630  0.11403  0.64719  1.0000
  H   H80       1.0  0.30534  0.15191  0.56039  1.0000
  C   C88       1.0  0.30344  0.08654  0.63207  1.0000
  H   H81       1.0  0.32354  0.09385  0.58330  1.0000
  H   H82       1.0  0.28151  0.06424  0.60705  1.0000
  C   C89       1.0  0.32343  0.74801  0.34272  1.0000
  C   C90       1.0  0.30556  0.76469  0.32426  1.0000
  H   H83       1.0  0.31955  0.78988  0.32216  1.0000
  C   C91       1.0  0.26985  0.57893  0.34237  1.0000
  C   C92       1.0  0.25327  0.54440  0.32390  1.0000
  C   C93       1.0  0.26843  0.96999  0.32501  1.0000
  C   C94       1.0  0.25182  0.93551  0.34428  1.0000
  H   H84       1.0  0.29361  0.98119  0.32210  1.0000
  N   N27       1.0  0.27516  0.90458  0.28127  1.0000
  C   C95       1.0  0.27719  0.87626  0.27700  1.0000
  H   H85       1.0  0.27999  0.86820  0.21512  1.0000
  C   C96       1.0  0.24858  0.90568  0.05263  1.0000
  H   H86       1.0  0.25016  0.88338  0.06576  1.0000
  H   H87       1.0  0.27315  0.92581  0.03312  1.0000
  H   H88       1.0  0.33563  0.73783  0.11460  1.0000
  H   H89       1.0  0.28259  0.70482  0.02832  1.0000
  N   N28       1.0  0.24710  0.61002  0.27850  1.0000
  C   C97       1.0  0.27068  0.60692  0.05074  1.0000
  H   H90       1.0  0.26882  0.62903  0.06446  1.0000
  H   H91       1.0  0.27752  0.59976  0.11392  1.0000
  H   H92       1.0  0.24634  0.58681  0.02962  1.0000
  H   H93       1.0  0.31132  0.58045  0.02860  1.0000
  C   C98       1.0  0.26991  0.74822  0.31860  1.0000
  C   C99       1.0  0.25376  0.71254  0.32025  1.0000
  C   C100      1.0  0.27048  0.69477  0.33961  1.0000
  C   C101      1.0  0.30504  0.71325  0.35270  1.0000
  H   H94       1.0  0.31766  0.70067  0.36373  1.0000
  C   C102      1.0  0.25165  0.76614  0.31909  1.0000
  C   C103      1.0  0.25118  0.81953  0.34235  1.0000
  C   C104      1.0  0.26781  0.80180  0.32137  1.0000
  H   H95       1.0  0.29283  0.81600  0.31379  1.0000
  C   C105      1.0  0.26981  0.52528  0.31876  1.0000
  C   C106      1.0  0.30548  0.54487  0.32119  1.0000
  C   C107      1.0  0.32315  0.57932  0.34110  1.0000
  C   C108      1.0  0.30457  0.59534  0.35345  1.0000
  H   H96       1.0  0.31972  0.53403  0.31501  1.0000
  H   H97       1.0  0.31705  0.62051  0.36482  1.0000
  C   C109      1.0  0.25191  0.98910  0.31896  1.0000
  C   C110      1.0  0.26753  0.91625  0.35699  1.0000
  C   C111      1.0  0.26634  0.85450  0.35207  1.0000
  N   N29       1.0  0.25797  0.86583  0.42671  1.0000
  C   C112      1.0  0.25973  0.89576  0.43475  1.0000
  N   N30       1.0  0.25112  0.90428  0.51141  1.0000
  N   N31       1.0  0.33120  0.71990  0.64684  1.0000
  C   C113      1.0  0.29664  0.71301  0.63196  1.0000
  H   H98       1.0  0.28384  0.69321  0.58238  1.0000
  H   H99       1.0  0.29642  0.73515  0.60807  1.0000
  C   C114      1.0  0.25406  0.59812  0.35492  1.0000
  C   C115      1.0  0.25527  0.65981  0.34960  1.0000
  N   N32       1.0  0.26320  0.64837  0.42478  1.0000
  C   C116      1.0  0.26139  0.61840  0.43287  1.0000
  N   N33       1.0  0.26960  0.60963  0.50972  1.0000
  C   C117      1.0  0.29151  0.62756  0.56893  1.0000
  N   N34       1.0  0.29630  0.61404  0.64719  1.0000
  H   H100      1.0  0.30534  0.65190  0.56039  1.0000
  C   C118      1.0  0.30344  0.58654  0.63207  1.0000
  H   H101      1.0  0.32354  0.59385  0.58330  1.0000
  H   H102      1.0  0.28151  0.56424  0.60705  1.0000
  C   C119      1.0  0.43913  0.19446  0.34562  1.0000
  C   C120      1.0  0.47356  0.21229  0.32552  1.0000
  H   H103      1.0  0.48475  0.19830  0.32266  1.0000
  N   N35       1.0  0.37764  0.27131  0.27986  1.0000
  C   C121      1.0  0.40790  0.27314  0.27592  1.0000
  H   H104      1.0  0.41903  0.27625  0.21429  1.0000
  C   C122      1.0  0.34972  0.24501  0.05153  1.0000
  H   H105      1.0  0.37360  0.24663  0.06493  1.0000
  H   H106      1.0  0.35413  0.26954  0.03175  1.0000
  N   N36       1.0  0.40841  0.14047  0.28214  1.0000
  C   C123      1.0  0.38001  0.11021  0.27703  1.0000
  H   H107      1.0  0.37225  0.09948  0.21487  1.0000
  C   C124      1.0  0.40988  0.16738  0.05379  1.0000
  H   H108      1.0  0.38793  0.14328  0.06735  1.0000
  H   H109      1.0  0.41680  0.18138  0.11699  1.0000
  H   H110      1.0  0.43021  0.16345  0.03301  1.0000
  H   H111      1.0  0.43566  0.23439  0.03154  1.0000
  C   C125      1.0  0.49268  0.24792  0.31926  1.0000
  C   C126      1.0  0.47310  0.26401  0.32102  1.0000
  C   C127      1.0  0.43875  0.24738  0.34214  1.0000
  C   C128      1.0  0.42283  0.21288  0.35642  1.0000
  H   H112      1.0  0.48388  0.28902  0.31300  1.0000
  H   H113      1.0  0.39768  0.20025  0.36806  1.0000
  C   C129      1.0  0.35840  0.26369  0.35564  1.0000
  C   C130      1.0  0.41886  0.26249  0.35129  1.0000
  N   N37       1.0  0.39912  0.25412  0.42589  1.0000
  C   C131      1.0  0.37090  0.25582  0.43363  1.0000
  N   N38       1.0  0.35370  0.24726  0.51018  1.0000
  C   C132      1.0  0.34959  0.22505  0.56855  1.0000
  H   H114      1.0  0.36014  0.21128  0.55938  1.0000
  C   C133      1.0  0.41980  0.15949  0.35846  1.0000
  C   C134      1.0  0.35809  0.09912  0.35172  1.0000
  N   N39       1.0  0.36911  0.11854  0.42690  1.0000
  C   C135      1.0  0.39907  0.14666  0.43570  1.0000
  N   N40       1.0  0.40751  0.16371  0.51248  1.0000
  C   C136      1.0  0.38932  0.16728  0.57167  1.0000
  N   N41       1.0  0.40258  0.18566  0.64997  1.0000
  H   H115      1.0  0.36493  0.15627  0.56327  1.0000
  C   C137      1.0  0.42982  0.22045  0.63502  1.0000
  H   H116      1.0  0.42236  0.23305  0.58605  1.0000
  H   H117      1.0  0.45230  0.22111  0.61033  1.0000
  C   C138      1.0  0.43913  0.69446  0.34562  1.0000
  C   C139      1.0  0.47356  0.71229  0.32552  1.0000
  H   H118      1.0  0.48475  0.69830  0.32266  1.0000
  N   N42       1.0  0.37764  0.77131  0.27986  1.0000
  C   C140      1.0  0.40790  0.77314  0.27592  1.0000
  H   H119      1.0  0.41903  0.77625  0.21429  1.0000
  C   C141      1.0  0.34972  0.74501  0.05153  1.0000
  H   H120      1.0  0.37360  0.74664  0.06493  1.0000
  H   H121      1.0  0.35413  0.76954  0.03175  1.0000
  N   N43       1.0  0.40841  0.64047  0.28214  1.0000
  C   C142      1.0  0.38001  0.61021  0.27703  1.0000
  H   H122      1.0  0.37225  0.59948  0.21487  1.0000
  C   C143      1.0  0.40988  0.66738  0.05379  1.0000
  H   H123      1.0  0.38793  0.64328  0.06735  1.0000
  H   H124      1.0  0.41680  0.68138  0.11699  1.0000
  H   H125      1.0  0.43022  0.66345  0.03301  1.0000
  H   H126      1.0  0.43566  0.73440  0.03154  1.0000
  C   C144      1.0  0.49268  0.74792  0.31926  1.0000
  C   C145      1.0  0.47310  0.76401  0.32102  1.0000
  C   C146      1.0  0.43875  0.74738  0.34214  1.0000
  C   C147      1.0  0.42283  0.71288  0.35642  1.0000
  H   H127      1.0  0.48388  0.78902  0.31300  1.0000
  H   H128      1.0  0.39768  0.70025  0.36806  1.0000
  C   C148      1.0  0.35840  0.76369  0.35564  1.0000
  C   C149      1.0  0.41886  0.76249  0.35129  1.0000
  N   N44       1.0  0.39912  0.75413  0.42589  1.0000
  C   C150      1.0  0.37090  0.75582  0.43363  1.0000
  N   N45       1.0  0.35370  0.74726  0.51018  1.0000
  C   C151      1.0  0.34959  0.72505  0.56855  1.0000
  H   H129      1.0  0.36014  0.71128  0.55938  1.0000
  C   C152      1.0  0.41980  0.65949  0.35846  1.0000
  C   C153      1.0  0.35809  0.59912  0.35172  1.0000
  N   N46       1.0  0.36911  0.61854  0.42690  1.0000
  C   C154      1.0  0.39907  0.64666  0.43570  1.0000
  N   N47       1.0  0.40751  0.66371  0.51248  1.0000
  C   C155      1.0  0.38932  0.66729  0.57167  1.0000
  N   N48       1.0  0.40259  0.68567  0.64997  1.0000
  H   H130      1.0  0.36493  0.65628  0.56327  1.0000
  C   C156      1.0  0.42982  0.72045  0.63502  1.0000
  H   H131      1.0  0.42236  0.73305  0.58605  1.0000
  H   H132      1.0  0.45230  0.72111  0.61033  1.0000
  C   C157      1.0  0.93913  0.19446  0.34562  1.0000
  C   C158      1.0  0.97356  0.21229  0.32552  1.0000
  H   H133      1.0  0.98475  0.19830  0.32266  1.0000
  C   C159      1.0  0.54797  0.30188  0.32401  1.0000
  C   C160      1.0  0.58255  0.31985  0.34197  1.0000
  H   H134      1.0  0.53671  0.31582  0.32188  1.0000
  C   C161      1.0  0.82343  0.24801  0.34272  1.0000
  C   C162      1.0  0.80556  0.26469  0.32426  1.0000
  H   H135      1.0  0.81955  0.28988  0.32216  1.0000
  C   C163      1.0  0.71601  0.24966  0.32483  1.0000
  C   C164      1.0  0.69819  0.26626  0.34501  1.0000
  H   H136      1.0  0.70199  0.22449  0.32154  1.0000
  C   C165      1.0  0.76985  0.07893  0.34237  1.0000
  C   C166      1.0  0.75327  0.04439  0.32390  1.0000
  H   H137      1.0  0.72809  0.03317  0.32081  1.0000
  C   C167      1.0  0.76843  0.46999  0.32501  1.0000
  C   C168      1.0  0.75182  0.43550  0.34428  1.0000
  H   H138      1.0  0.79361  0.48119  0.32210  1.0000
  N   N49       1.0  0.64417  0.24294  0.28077  1.0000
  C   C169      1.0  0.61393  0.24113  0.27580  1.0000
  H   H139      1.0  0.60297  0.23794  0.21388  1.0000
  C   C170      1.0  0.67085  0.26826  0.05279  1.0000
  H   H140      1.0  0.64678  0.26622  0.06623  1.0000
  H   H141      1.0  0.68481  0.27530  0.11605  1.0000
  H   H142      1.0  0.66682  0.24396  0.03208  1.0000
  H   H143      1.0  0.73790  0.30930  0.03088  1.0000
  N   N50       1.0  0.77516  0.40458  0.28127  1.0000
  C   C171      1.0  0.77719  0.37626  0.27700  1.0000
  H   H144      1.0  0.77999  0.36820  0.21512  1.0000
  C   C172      1.0  0.74858  0.40568  0.05263  1.0000
  H   H145      1.0  0.75016  0.38338  0.06576  1.0000
  H   H146      1.0  0.74136  0.41250  0.11576  1.0000
  H   H147      1.0  0.77315  0.42581  0.03312  1.0000
  H   H148      1.0  0.70851  0.43277  0.02962  1.0000
  N   N51       1.0  0.61372  0.37382  0.27893  1.0000
  C   C173      1.0  0.64213  0.40409  0.27472  1.0000
  H   H149      1.0  0.65029  0.41481  0.21272  1.0000
  C   C174      1.0  0.61016  0.34648  0.05103  1.0000
  H   H150      1.0  0.63220  0.37047  0.06511  1.0000
  H   H151      1.0  0.60294  0.33238  0.11407  1.0000
  H   H152      1.0  0.59003  0.35066  0.02979  1.0000
  H   H153      1.0  0.58396  0.27943  0.02826  1.0000
  N   N52       1.0  0.87764  0.27131  0.27986  1.0000
  C   C175      1.0  0.90790  0.27314  0.27592  1.0000
  H   H154      1.0  0.91903  0.27625  0.21429  1.0000
  C   C176      1.0  0.84972  0.24501  0.05153  1.0000
  H   H155      1.0  0.87360  0.24663  0.06493  1.0000
  H   H156      1.0  0.83563  0.23783  0.11460  1.0000
  H   H157      1.0  0.85413  0.26954  0.03175  1.0000
  H   H158      1.0  0.78259  0.20482  0.02832  1.0000
  N   N53       1.0  0.74709  0.11002  0.27850  1.0000
  C   C177      1.0  0.74513  0.13836  0.27388  1.0000
  H   H159      1.0  0.74279  0.14661  0.21178  1.0000
  C   C178      1.0  0.77068  0.10692  0.05074  1.0000
  H   H160      1.0  0.76882  0.12903  0.06446  1.0000
  H   H161      1.0  0.77752  0.09975  0.11392  1.0000
  H   H162      1.0  0.74633  0.08681  0.02962  1.0000
  H   H163      1.0  0.81132  0.08045  0.02860  1.0000
  N   N54       1.0  0.90841  0.14047  0.28214  1.0000
  C   C179      1.0  0.88001  0.11021  0.27703  1.0000
  H   H164      1.0  0.87225  0.09948  0.21487  1.0000
  C   C180      1.0  0.90988  0.16738  0.05379  1.0000
  H   H165      1.0  0.88793  0.14328  0.06735  1.0000
  H   H166      1.0  0.91680  0.18138  0.11699  1.0000
  H   H167      1.0  0.93021  0.16345  0.03301  1.0000
  H   H168      1.0  0.93566  0.23439  0.03154  1.0000
  C   C181      1.0  0.99268  0.24792  0.31926  1.0000
  C   C182      1.0  0.97310  0.26401  0.32102  1.0000
  C   C183      1.0  0.93875  0.24738  0.34214  1.0000
  C   C184      1.0  0.92283  0.21288  0.35642  1.0000
  H   H169      1.0  0.98388  0.28902  0.31300  1.0000
  H   H170      1.0  0.89768  0.20025  0.36806  1.0000
  C   C185      1.0  0.52886  0.26623  0.31869  1.0000
  C   C186      1.0  0.59898  0.30154  0.35244  1.0000
  C   C187      1.0  0.58294  0.26694  0.34012  1.0000
  C   C188      1.0  0.54845  0.25014  0.32076  1.0000
  H   H171      1.0  0.62418  0.31423  0.36348  1.0000
  H   H172      1.0  0.53760  0.22507  0.31452  1.0000
  C   C189      1.0  0.76991  0.24822  0.31860  1.0000
  C   C190      1.0  0.75376  0.21254  0.32025  1.0000
  C   C191      1.0  0.77048  0.19477  0.33961  1.0000
  C   C192      1.0  0.80504  0.21325  0.35270  1.0000
  H   H173      1.0  0.72869  0.19836  0.31368  1.0000
  H   H174      1.0  0.81765  0.20067  0.36373  1.0000
  C   C193      1.0  0.75165  0.26613  0.31909  1.0000
  C   C194      1.0  0.71665  0.30098  0.35611  1.0000
  C   C195      1.0  0.75118  0.31953  0.34235  1.0000
  C   C196      1.0  0.76780  0.30180  0.32137  1.0000
  H   H175      1.0  0.70404  0.31353  0.36776  1.0000
  H   H176      1.0  0.79283  0.31600  0.31379  1.0000
  C   C197      1.0  0.76981  0.02528  0.31876  1.0000
  C   C198      1.0  0.80548  0.04487  0.32119  1.0000
  C   C199      1.0  0.82315  0.07932  0.34110  1.0000
  C   C200      1.0  0.80456  0.09534  0.35345  1.0000
  H   H177      1.0  0.81972  0.03403  0.31501  1.0000
  H   H178      1.0  0.81706  0.12051  0.36482  1.0000
  C   C201      1.0  0.75191  0.48910  0.31896  1.0000
  C   C202      1.0  0.71706  0.41911  0.35449  1.0000
  C   C203      1.0  0.69851  0.43508  0.34089  1.0000
  C   C204      1.0  0.71624  0.46952  0.32079  1.0000
  H   H179      1.0  0.70453  0.39394  0.36598  1.0000
  H   H180      1.0  0.70202  0.48034  0.31347  1.0000
  C   C205      1.0  0.66317  0.25066  0.35705  1.0000
  C   C206      1.0  0.60274  0.25179  0.35063  1.0000
  N   N55       1.0  0.62218  0.26021  0.42579  1.0000
  C   C207      1.0  0.65037  0.25849  0.43449  1.0000
  N   N56       1.0  0.66735  0.26699  0.51140  1.0000
  C   C208      1.0  0.67093  0.28876  0.57061  1.0000
  N   N57       1.0  0.68925  0.29381  0.64901  1.0000
  H   H181      1.0  0.66002  0.30223  0.56206  1.0000
  C   C209      1.0  0.72400  0.30123  0.63428  1.0000
  H   H182      1.0  0.73669  0.32128  0.58534  1.0000
  H   H183      1.0  0.72459  0.27937  0.60967  1.0000
  C   C210      1.0  0.76753  0.41625  0.35699  1.0000
  C   C211      1.0  0.76635  0.35450  0.35207  1.0000
  N   N58       1.0  0.75797  0.36583  0.42671  1.0000
  C   C212      1.0  0.75973  0.39576  0.43475  1.0000
  N   N59       1.0  0.75112  0.40428  0.51141  1.0000
  C   C213      1.0  0.72876  0.38612  0.56937  1.0000
  N   N60       1.0  0.72356  0.39924  0.64782  1.0000
  H   H184      1.0  0.71487  0.36184  0.55971  1.0000
  C   C214      1.0  0.71674  0.42698  0.63322  1.0000
  H   H185      1.0  0.69700  0.42010  0.58352  1.0000
  H   H186      1.0  0.73893  0.44935  0.60961  1.0000
  C   C215      1.0  0.60175  0.35480  0.35507  1.0000
  C   C216      1.0  0.66354  0.41523  0.35052  1.0000
  N   N61       1.0  0.65201  0.39570  0.42541  1.0000
  C   C217      1.0  0.62201  0.36756  0.43313  1.0000
  N   N62       1.0  0.61317  0.35041  0.50973  1.0000
  C   C218      1.0  0.63107  0.34660  0.56940  1.0000
  N   N63       1.0  0.61746  0.32814  0.64740  1.0000
  H   H187      1.0  0.65547  0.35744  0.56153  1.0000
  C   C219      1.0  0.59009  0.29347  0.63186  1.0000
  H   H188      1.0  0.59754  0.28082  0.58305  1.0000
  H   H189      1.0  0.56777  0.29304  0.60669  1.0000
  C   C220      1.0  0.85840  0.26369  0.35564  1.0000
  C   C221      1.0  0.91886  0.26249  0.35129  1.0000
  N   N64       1.0  0.89912  0.25412  0.42589  1.0000
  C   C222      1.0  0.87090  0.25582  0.43363  1.0000
  N   N65       1.0  0.85370  0.24726  0.51018  1.0000
  C   C223      1.0  0.84959  0.22505  0.56855  1.0000
  N   N66       1.0  0.83120  0.21990  0.64684  1.0000
  H   H190      1.0  0.86014  0.21128  0.55938  1.0000
  C   C224      1.0  0.79664  0.21301  0.63196  1.0000
  H   H191      1.0  0.78383  0.19321  0.58238  1.0000
  H   H192      1.0  0.79643  0.23514  0.60807  1.0000
  C   C225      1.0  0.75406  0.09812  0.35492  1.0000
  C   C226      1.0  0.75527  0.15981  0.34960  1.0000
  N   N67       1.0  0.76320  0.14837  0.42478  1.0000
  C   C227      1.0  0.76139  0.11840  0.43287  1.0000
  N   N68       1.0  0.76961  0.10963  0.50972  1.0000
  C   C228      1.0  0.79151  0.12756  0.56893  1.0000
  N   N69       1.0  0.79630  0.11403  0.64719  1.0000
  H   H193      1.0  0.80534  0.15191  0.56039  1.0000
  C   C229      1.0  0.80344  0.08654  0.63207  1.0000
  H   H194      1.0  0.82354  0.09385  0.58330  1.0000
  H   H195      1.0  0.78151  0.06424  0.60705  1.0000
  C   C230      1.0  0.91980  0.15949  0.35846  1.0000
  C   C231      1.0  0.85809  0.09912  0.35172  1.0000
  N   N70       1.0  0.86911  0.11854  0.42690  1.0000
  C   C232      1.0  0.89907  0.14666  0.43570  1.0000
  N   N71       1.0  0.90751  0.16371  0.51248  1.0000
  C   C233      1.0  0.88932  0.16728  0.57167  1.0000
  N   N72       1.0  0.90258  0.18566  0.64997  1.0000
  H   H196      1.0  0.86493  0.15627  0.56327  1.0000
  C   C234      1.0  0.92982  0.22045  0.63502  1.0000
  H   H197      1.0  0.92236  0.23305  0.58605  1.0000
  H   H198      1.0  0.95230  0.22111  0.61033  1.0000
  C   C235      1.0  0.93913  0.69446  0.34562  1.0000
  C   C236      1.0  0.97356  0.71229  0.32552  1.0000
  H   H199      1.0  0.98475  0.69830  0.32266  1.0000
  C   C237      1.0  0.54797  0.80188  0.32401  1.0000
  C   C238      1.0  0.58255  0.81985  0.34197  1.0000
  H   H200      1.0  0.53671  0.81582  0.32188  1.0000
  C   C239      1.0  0.82343  0.74801  0.34272  1.0000
  C   C240      1.0  0.80556  0.76469  0.32426  1.0000
  H   H201      1.0  0.81955  0.78988  0.32216  1.0000
  C   C241      1.0  0.71601  0.74966  0.32483  1.0000
  C   C242      1.0  0.69819  0.76626  0.34501  1.0000
  H   H202      1.0  0.70199  0.72449  0.32154  1.0000
  C   C243      1.0  0.76985  0.57893  0.34237  1.0000
  C   C244      1.0  0.75327  0.54440  0.32390  1.0000
  H   H203      1.0  0.72809  0.53317  0.32081  1.0000
  C   C245      1.0  0.76843  0.96999  0.32501  1.0000
  C   C246      1.0  0.75182  0.93551  0.34428  1.0000
  H   H204      1.0  0.79361  0.98119  0.32210  1.0000
  N   N73       1.0  0.64417  0.74294  0.28077  1.0000
  C   C247      1.0  0.61393  0.74113  0.27580  1.0000
  H   H205      1.0  0.60297  0.73794  0.21388  1.0000
  C   C248      1.0  0.67085  0.76827  0.05279  1.0000
  H   H206      1.0  0.64678  0.76622  0.06623  1.0000
  H   H207      1.0  0.68481  0.77530  0.11605  1.0000
  H   H208      1.0  0.66682  0.74396  0.03208  1.0000
  H   H209      1.0  0.73790  0.80930  0.03088  1.0000
  N   N74       1.0  0.77516  0.90458  0.28127  1.0000
  C   C249      1.0  0.77719  0.87626  0.27700  1.0000
  H   H210      1.0  0.77999  0.86820  0.21512  1.0000
  C   C250      1.0  0.74858  0.90568  0.05263  1.0000
  H   H211      1.0  0.75016  0.88338  0.06576  1.0000
  H   H212      1.0  0.74136  0.91250  0.11576  1.0000
  H   H213      1.0  0.77315  0.92581  0.03312  1.0000
  H   H214      1.0  0.70851  0.93276  0.02962  1.0000
  N   N75       1.0  0.61372  0.87382  0.27893  1.0000
  C   C251      1.0  0.64213  0.90409  0.27472  1.0000
  H   H215      1.0  0.65029  0.91482  0.21272  1.0000
  C   C252      1.0  0.61016  0.84648  0.05103  1.0000
  H   H216      1.0  0.63220  0.87047  0.06511  1.0000
  H   H217      1.0  0.60294  0.83238  0.11407  1.0000
  H   H218      1.0  0.59003  0.85066  0.02979  1.0000
  H   H219      1.0  0.58397  0.77943  0.02826  1.0000
  N   N76       1.0  0.87764  0.77131  0.27986  1.0000
  C   C253      1.0  0.90790  0.77314  0.27592  1.0000
  H   H220      1.0  0.91903  0.77625  0.21429  1.0000
  C   C254      1.0  0.84972  0.74501  0.05153  1.0000
  H   H221      1.0  0.87360  0.74664  0.06493  1.0000
  H   H222      1.0  0.83563  0.73783  0.11460  1.0000
  H   H223      1.0  0.85413  0.76954  0.03175  1.0000
  H   H224      1.0  0.78259  0.70482  0.02832  1.0000
  N   N77       1.0  0.74710  0.61002  0.27850  1.0000
  C   C255      1.0  0.74513  0.63836  0.27388  1.0000
  H   H225      1.0  0.74279  0.64661  0.21178  1.0000
  C   C256      1.0  0.77068  0.60692  0.05074  1.0000
  H   H226      1.0  0.76882  0.62903  0.06446  1.0000
  H   H227      1.0  0.77752  0.59976  0.11392  1.0000
  H   H228      1.0  0.74633  0.58681  0.02962  1.0000
  H   H229      1.0  0.81132  0.58045  0.02860  1.0000
  N   N78       1.0  0.90841  0.64047  0.28214  1.0000
  C   C257      1.0  0.88001  0.61021  0.27703  1.0000
  H   H230      1.0  0.87225  0.59948  0.21487  1.0000
  C   C258      1.0  0.90988  0.66738  0.05379  1.0000
  H   H231      1.0  0.88793  0.64328  0.06735  1.0000
  H   H232      1.0  0.91680  0.68138  0.11699  1.0000
  H   H233      1.0  0.93021  0.66345  0.03301  1.0000
  H   H234      1.0  0.93566  0.73440  0.03154  1.0000
  C   C259      1.0  0.99268  0.74792  0.31926  1.0000
  C   C260      1.0  0.97310  0.76401  0.32102  1.0000
  C   C261      1.0  0.93875  0.74738  0.34214  1.0000
  C   C262      1.0  0.92283  0.71288  0.35642  1.0000
  H   H235      1.0  0.98388  0.78902  0.31300  1.0000
  H   H236      1.0  0.89768  0.70025  0.36806  1.0000
  C   C263      1.0  0.52886  0.76623  0.31869  1.0000
  C   C264      1.0  0.59898  0.80154  0.35244  1.0000
  C   C265      1.0  0.58294  0.76694  0.34012  1.0000
  C   C266      1.0  0.54845  0.75014  0.32076  1.0000
  H   H237      1.0  0.62418  0.81423  0.36348  1.0000
  H   H238      1.0  0.53760  0.72507  0.31452  1.0000
  C   C267      1.0  0.76991  0.74822  0.31860  1.0000
  C   C268      1.0  0.75376  0.71254  0.32025  1.0000
  C   C269      1.0  0.77048  0.69477  0.33961  1.0000
  C   C270      1.0  0.80504  0.71325  0.35270  1.0000
  H   H239      1.0  0.72869  0.69836  0.31368  1.0000
  H   H240      1.0  0.81766  0.70067  0.36373  1.0000
  C   C271      1.0  0.75165  0.76614  0.31909  1.0000
  C   C272      1.0  0.71665  0.80099  0.35611  1.0000
  C   C273      1.0  0.75118  0.81953  0.34235  1.0000
  C   C274      1.0  0.76780  0.80180  0.32137  1.0000
  H   H241      1.0  0.70404  0.81354  0.36776  1.0000
  H   H242      1.0  0.79283  0.81600  0.31379  1.0000
  C   C275      1.0  0.76981  0.52528  0.31876  1.0000
  C   C276      1.0  0.80548  0.54487  0.32119  1.0000
  C   C277      1.0  0.82315  0.57932  0.34110  1.0000
  C   C278      1.0  0.80456  0.59534  0.35345  1.0000
  H   H243      1.0  0.81972  0.53403  0.31501  1.0000
  H   H244      1.0  0.81705  0.62051  0.36482  1.0000
  C   C279      1.0  0.75191  0.98910  0.31896  1.0000
  C   C280      1.0  0.71707  0.91911  0.35449  1.0000
  C   C281      1.0  0.69851  0.93508  0.34089  1.0000
  C   C282      1.0  0.71624  0.96952  0.32079  1.0000
  H   H245      1.0  0.70453  0.89394  0.36598  1.0000
  H   H246      1.0  0.70202  0.98034  0.31347  1.0000
  C   C283      1.0  0.66317  0.75065  0.35705  1.0000
  C   C284      1.0  0.60274  0.75179  0.35063  1.0000
  N   N79       1.0  0.62219  0.76021  0.42579  1.0000
  C   C285      1.0  0.65037  0.75849  0.43449  1.0000
  N   N80       1.0  0.66735  0.76699  0.51140  1.0000
  C   C286      1.0  0.67093  0.78876  0.57061  1.0000
  N   N81       1.0  0.68925  0.79381  0.64901  1.0000
  H   H247      1.0  0.66002  0.80223  0.56206  1.0000
  C   C287      1.0  0.72400  0.80124  0.63428  1.0000
  H   H248      1.0  0.73669  0.82128  0.58534  1.0000
  H   H249      1.0  0.72459  0.77938  0.60967  1.0000
  C   C288      1.0  0.76753  0.91625  0.35699  1.0000
  C   C289      1.0  0.76634  0.85450  0.35207  1.0000
  N   N82       1.0  0.75797  0.86583  0.42671  1.0000
  C   C290      1.0  0.75973  0.89576  0.43475  1.0000
  N   N83       1.0  0.75112  0.90428  0.51141  1.0000
  C   C291      1.0  0.72876  0.88612  0.56937  1.0000
  N   N84       1.0  0.72356  0.89924  0.64782  1.0000
  H   H250      1.0  0.71487  0.86184  0.55971  1.0000
  C   C292      1.0  0.71674  0.92699  0.63322  1.0000
  H   H251      1.0  0.69700  0.92010  0.58352  1.0000
  H   H252      1.0  0.73893  0.94935  0.60961  1.0000
  C   C293      1.0  0.60175  0.85480  0.35507  1.0000
  C   C294      1.0  0.66354  0.91523  0.35052  1.0000
  N   N85       1.0  0.65201  0.89571  0.42541  1.0000
  C   C295      1.0  0.62201  0.86756  0.43313  1.0000
  N   N86       1.0  0.61317  0.85041  0.50973  1.0000
  C   C296      1.0  0.63107  0.84660  0.56940  1.0000
  N   N87       1.0  0.61746  0.82815  0.64740  1.0000
  H   H253      1.0  0.65548  0.85745  0.56153  1.0000
  C   C297      1.0  0.59009  0.79347  0.63186  1.0000
  H   H254      1.0  0.59754  0.78082  0.58305  1.0000
  H   H255      1.0  0.56777  0.79304  0.60669  1.0000
  C   C298      1.0  0.85840  0.76369  0.35564  1.0000
  C   C299      1.0  0.91886  0.76249  0.35129  1.0000
  N   N88       1.0  0.89912  0.75413  0.42589  1.0000
  C   C300      1.0  0.87090  0.75582  0.43363  1.0000
  N   N89       1.0  0.85370  0.74726  0.51018  1.0000
  C   C301      1.0  0.84959  0.72505  0.56855  1.0000
  N   N90       1.0  0.83120  0.71990  0.64684  1.0000
  H   H256      1.0  0.86014  0.71128  0.55938  1.0000
  C   C302      1.0  0.79664  0.71301  0.63196  1.0000
  H   H257      1.0  0.78383  0.69321  0.58238  1.0000
  H   H258      1.0  0.79643  0.73515  0.60807  1.0000
  C   C303      1.0  0.75406  0.59812  0.35492  1.0000
  C   C304      1.0  0.75527  0.65981  0.34960  1.0000
  N   N91       1.0  0.76320  0.64837  0.42478  1.0000
  C   C305      1.0  0.76139  0.61840  0.43287  1.0000
  N   N92       1.0  0.76961  0.60963  0.50972  1.0000
  C   C306      1.0  0.79151  0.62756  0.56893  1.0000
  N   N93       1.0  0.79630  0.61404  0.64719  1.0000
  H   H259      1.0  0.80534  0.65190  0.56039  1.0000
  C   C307      1.0  0.80344  0.58654  0.63207  1.0000
  H   H260      1.0  0.82354  0.59385  0.58330  1.0000
  H   H261      1.0  0.78151  0.56424  0.60705  1.0000
  C   C308      1.0  0.91980  0.65949  0.35846  1.0000
  C   C309      1.0  0.85809  0.59912  0.35172  1.0000
  N   N94       1.0  0.86911  0.61854  0.42690  1.0000
  C   C310      1.0  0.89907  0.64666  0.43570  1.0000
  N   N95       1.0  0.90751  0.66371  0.51248  1.0000
  C   C311      1.0  0.88932  0.66729  0.57167  1.0000
  N   N96       1.0  0.90258  0.68567  0.64997  1.0000
  H   H262      1.0  0.86493  0.65628  0.56327  1.0000
  C   C312      1.0  0.92982  0.72045  0.63502  1.0000
  H   H263      1.0  0.92236  0.73305  0.58605  1.0000
  H   H264      1.0  0.95230  0.72111  0.61033  1.0000
