data_image0
_chemical_formula_structural       C8H8C8H8C8H8C8H8C8H8C8H8C3HNO2NC3HNO2NC3HNO2NC3HNO2NC3HNO2NC3HNO2NC3HNO2NC3HNO2NC3HNO2NC3HNO2NC3HNO2NC3HNO2NC3NC3NC5NC5NC20H18C4H4C3NC3NC5NC5NC20H18C4H4C3NC3NC5NC5NC20H18C4H4C3NC3NC5NC5NC20H18C4H4C3NC3NC5NC5NC20H18C4H4C3NC3NC5NC5NC20H18C4H4C3HNO2NC3HNO2NC3HNO2NC3HNO2NC3HNO2NC3HNO2NC3HNO2NC3HNO2NC3HNO2NC3HNO2NC3HNO2NC3HNO2N
_chemical_formula_sum              "C360 H204 N72 O48"
_cell_length_a       69.4081
_cell_length_b       69.4081
_cell_length_c       14.812
_cell_angle_alpha    90.0008
_cell_angle_beta     89.9852
_cell_angle_gamma    120

_space_group_name_H-M_alt    "P 1"
_space_group_IT_number       1

loop_
  _space_group_symop_operation_xyz
  'x, y, z'

loop_
  _atom_site_type_symbol
  _atom_site_label
  _atom_site_symmetry_multiplicity
  _atom_site_fract_x
  _atom_site_fract_y
  _atom_site_fract_z
  _atom_site_occupancy
  C   C1        1.0  0.29315  0.38707  0.28931  1.0000
  C   C2        1.0  0.30209  0.37284  0.30028  1.0000
  C   C3        1.0  0.35321  0.52273  0.28741  1.0000
  C   C4        1.0  0.37515  0.54061  0.29625  1.0000
  C   C5        1.0  0.23977  0.54124  0.30491  1.0000
  C   C6        1.0  0.24312  0.52296  0.29317  1.0000
  C   C7        1.0  0.16798  0.38623  0.29214  1.0000
  C   C8        1.0  0.14460  0.37382  0.30278  1.0000
  H   H1        1.0  0.13482  0.36969  0.24639  1.0000
  H   H2        1.0  0.17444  0.39083  0.22856  1.0000
  H   H3        1.0  0.24665  0.51955  0.23009  1.0000
  H   H4        1.0  0.24068  0.55044  0.24943  1.0000
  H   H5        1.0  0.34527  0.52019  0.22667  1.0000
  H   H6        1.0  0.38270  0.55040  0.24111  1.0000
  H   H7        1.0  0.30902  0.36966  0.24544  1.0000
  H   H8        1.0  0.29424  0.39411  0.22745  1.0000
  C   C9        1.0  0.68983  0.90921  0.28947  1.0000
  C   C10       1.0  0.70407  0.93239  0.30037  1.0000
  C   C11       1.0  0.55418  0.83362  0.28746  1.0000
  C   C12       1.0  0.53631  0.83770  0.29630  1.0000
  C   C13       1.0  0.53571  0.70167  0.30510  1.0000
  C   C14       1.0  0.55399  0.72330  0.29343  1.0000
  C   C15       1.0  0.69066  0.78486  0.29234  1.0000
  C   C16       1.0  0.70307  0.77390  0.30296  1.0000
  H   H9        1.0  0.70721  0.76825  0.24656  1.0000
  H   H10       1.0  0.68608  0.78674  0.22876  1.0000
  H   H11       1.0  0.55741  0.73026  0.23037  1.0000
  H   H12       1.0  0.52653  0.69339  0.24959  1.0000
  H   H13       1.0  0.55674  0.82823  0.22670  1.0000
  H   H14       1.0  0.52653  0.83546  0.24114  1.0000
  H   H15       1.0  0.70725  0.94250  0.24551  1.0000
  H   H16       1.0  0.68279  0.90326  0.22763  1.0000
  C   C17       1.0  0.16771  0.78379  0.28923  1.0000
  C   C18       1.0  0.14453  0.77485  0.30015  1.0000
  C   C19       1.0  0.24331  0.72372  0.28732  1.0000
  C   C20       1.0  0.23923  0.70177  0.29613  1.0000
  C   C21       1.0  0.37525  0.83718  0.30492  1.0000
  C   C22       1.0  0.35362  0.83383  0.29318  1.0000
  C   C23       1.0  0.29203  0.90895  0.29199  1.0000
  C   C24       1.0  0.30303  0.93232  0.30269  1.0000
  H   H17       1.0  0.30868  0.94212  0.24632  1.0000
  H   H18       1.0  0.29021  0.90250  0.22841  1.0000
  H   H19       1.0  0.34669  0.83031  0.23008  1.0000
  H   H20       1.0  0.38354  0.83627  0.24945  1.0000
  H   H21       1.0  0.24872  0.73167  0.22660  1.0000
  H   H22       1.0  0.24149  0.69424  0.24099  1.0000
  H   H23       1.0  0.13443  0.76794  0.24528  1.0000
  H   H24       1.0  0.17367  0.78271  0.22737  1.0000
  C   C25       1.0  0.80731  0.66631  0.28941  1.0000
  C   C26       1.0  0.79837  0.68054  0.30038  1.0000
  C   C27       1.0  0.74726  0.53064  0.28765  1.0000
  C   C28       1.0  0.72531  0.51276  0.29654  1.0000
  C   C29       1.0  0.86070  0.51216  0.30528  1.0000
  C   C30       1.0  0.85737  0.53045  0.29357  1.0000
  C   C31       1.0  0.93248  0.66713  0.29220  1.0000
  C   C32       1.0  0.95586  0.67955  0.30279  1.0000
  H   H25       1.0  0.96564  0.68365  0.24639  1.0000
  H   H26       1.0  0.92602  0.66250  0.22865  1.0000
  H   H27       1.0  0.85382  0.53385  0.23051  1.0000
  H   H28       1.0  0.85979  0.50296  0.24979  1.0000
  H   H29       1.0  0.75520  0.53318  0.22691  1.0000
  H   H30       1.0  0.71777  0.50297  0.24142  1.0000
  H   H31       1.0  0.79145  0.68372  0.24554  1.0000
  H   H32       1.0  0.80622  0.65925  0.22757  1.0000
  C   C33       1.0  0.41062  0.14417  0.28949  1.0000
  C   C34       1.0  0.39638  0.12099  0.30041  1.0000
  C   C35       1.0  0.54627  0.21976  0.28776  1.0000
  C   C36       1.0  0.56414  0.21568  0.29659  1.0000
  C   C37       1.0  0.56478  0.35170  0.30534  1.0000
  C   C38       1.0  0.54650  0.33007  0.29359  1.0000
  C   C39       1.0  0.40977  0.26848  0.29240  1.0000
  C   C40       1.0  0.39736  0.27945  0.30302  1.0000
  H   H33       1.0  0.39324  0.28511  0.24663  1.0000
  H   H34       1.0  0.41438  0.26662  0.22882  1.0000
  H   H35       1.0  0.54310  0.32314  0.23049  1.0000
  H   H36       1.0  0.57398  0.35999  0.24985  1.0000
  H   H37       1.0  0.54374  0.22516  0.22703  1.0000
  H   H38       1.0  0.57394  0.21794  0.24145  1.0000
  H   H39       1.0  0.39321  0.11089  0.24556  1.0000
  H   H40       1.0  0.41766  0.15012  0.22763  1.0000
  C   C41       1.0  0.93275  0.26962  0.28940  1.0000
  C   C42       1.0  0.95593  0.27854  0.30030  1.0000
  C   C43       1.0  0.85716  0.32967  0.28750  1.0000
  C   C44       1.0  0.86124  0.35162  0.29636  1.0000
  C   C45       1.0  0.72521  0.21619  0.30519  1.0000
  C   C46       1.0  0.74684  0.21955  0.29347  1.0000
  C   C47       1.0  0.80840  0.14443  0.29229  1.0000
  C   C48       1.0  0.79743  0.12106  0.30291  1.0000
  H   H41       1.0  0.79179  0.11128  0.24650  1.0000
  H   H42       1.0  0.81029  0.15090  0.22870  1.0000
  H   H43       1.0  0.75378  0.22308  0.23039  1.0000
  H   H44       1.0  0.71692  0.21709  0.24970  1.0000
  H   H45       1.0  0.85177  0.32173  0.22674  1.0000
  H   H46       1.0  0.85900  0.35917  0.24122  1.0000
  H   H47       1.0  0.96604  0.28548  0.24544  1.0000
  H   H48       1.0  0.92680  0.27071  0.22757  1.0000
  C   C49       1.0  0.23791  0.60019  0.35293  1.0000
  C   C50       1.0  0.23842  0.61086  0.27069  1.0000
  C   C51       1.0  0.23851  0.63132  0.27244  1.0000
  H   H49       1.0  0.23896  0.63892  0.21258  1.0000
  N   N1        1.0  0.23887  0.60078  0.18817  1.0000
  O   O1        1.0  0.22218  0.59628  0.14035  1.0000
  O   O2        1.0  0.25612  0.61316  0.14357  1.0000
  N   N2        1.0  0.23880  0.58137  0.35017  1.0000
  C   C52       1.0  0.47674  0.64086  0.35303  1.0000
  C   C53       1.0  0.46609  0.63071  0.27080  1.0000
  C   C54       1.0  0.44562  0.61033  0.27255  1.0000
  H   H50       1.0  0.43803  0.60318  0.21269  1.0000
  N   N3        1.0  0.47617  0.64123  0.18827  1.0000
  O   O3        1.0  0.48068  0.62904  0.14047  1.0000
  O   O4        1.0  0.46379  0.64610  0.14369  1.0000
  N   N4        1.0  0.49556  0.66058  0.35029  1.0000
  C   C55       1.0  0.43605  0.83902  0.35299  1.0000
  C   C56       1.0  0.44622  0.83854  0.27078  1.0000
  C   C57       1.0  0.46660  0.83845  0.27254  1.0000
  H   H51       1.0  0.47377  0.83802  0.21269  1.0000
  N   N5        1.0  0.43572  0.83811  0.18823  1.0000
  O   O5        1.0  0.44792  0.85481  0.14047  1.0000
  O   O6        1.0  0.43086  0.82087  0.14360  1.0000
  N   N6        1.0  0.41634  0.83814  0.35022  1.0000
  C   C58       1.0  0.86255  0.45320  0.35322  1.0000
  C   C59       1.0  0.86206  0.44255  0.27099  1.0000
  C   C60       1.0  0.86198  0.42209  0.27271  1.0000
  H   H52       1.0  0.86155  0.41450  0.21285  1.0000
  N   N7        1.0  0.86163  0.45264  0.18846  1.0000
  O   O7        1.0  0.87833  0.45714  0.14067  1.0000
  O   O8        1.0  0.84439  0.44026  0.14384  1.0000
  N   N8        1.0  0.86167  0.47202  0.35048  1.0000
  C   C61       1.0  0.62373  0.41250  0.35336  1.0000
  C   C62       1.0  0.63439  0.42267  0.27113  1.0000
  C   C63       1.0  0.65485  0.44305  0.27288  1.0000
  H   H53       1.0  0.66245  0.45021  0.21301  1.0000
  N   N9        1.0  0.62431  0.41216  0.18859  1.0000
  O   O9        1.0  0.61981  0.42435  0.14081  1.0000
  O   O10       1.0  0.63670  0.40729  0.14397  1.0000
  N   N10       1.0  0.60490  0.39279  0.35060  1.0000
  C   C64       1.0  0.66440  0.21435  0.35325  1.0000
  C   C65       1.0  0.65424  0.21484  0.27103  1.0000
  C   C66       1.0  0.63386  0.21492  0.27281  1.0000
  H   H54       1.0  0.62670  0.21536  0.21296  1.0000
  N   N11       1.0  0.66475  0.21528  0.18849  1.0000
  O   O11       1.0  0.65256  0.19858  0.14071  1.0000
  O   O12       1.0  0.66962  0.23252  0.14388  1.0000
  N   N12       1.0  0.68411  0.21524  0.35047  1.0000
  C   C67       1.0  0.02611  0.31111  0.35080  1.0000
  C   C68       1.0  0.03871  0.31987  0.27063  1.0000
  C   C69       1.0  0.06233  0.33116  0.27385  1.0000
  H   H55       1.0  0.07106  0.33724  0.21502  1.0000
  N   N13       1.0  0.02725  0.31686  0.18807  1.0000
  O   O13       1.0  0.03159  0.30581  0.13280  1.0000
  O   O14       1.0  0.03216  0.33520  0.15253  1.0000
  N   N14       1.0  0.00368  0.30081  0.34663  1.0000
  C   C70       1.0  0.76580  0.71815  0.35097  1.0000
  C   C71       1.0  0.75705  0.72198  0.27082  1.0000
  C   C72       1.0  0.74575  0.73431  0.27404  1.0000
  H   H56       1.0  0.73968  0.73696  0.21521  1.0000
  N   N15       1.0  0.76006  0.71353  0.18825  1.0000
  O   O15       1.0  0.77111  0.72892  0.13296  1.0000
  O   O16       1.0  0.74173  0.70010  0.15272  1.0000
  N   N16       1.0  0.77611  0.70602  0.34679  1.0000
  C   C73       1.0  0.35876  0.05080  0.35089  1.0000
  C   C74       1.0  0.35492  0.03822  0.27071  1.0000
  C   C75       1.0  0.34258  0.01460  0.27389  1.0000
  H   H57       1.0  0.33993  0.00587  0.21505  1.0000
  N   N17       1.0  0.36337  0.04969  0.18815  1.0000
  O   O17       1.0  0.34798  0.04537  0.13291  1.0000
  O   O18       1.0  0.37679  0.04478  0.15254  1.0000
  N   N18       1.0  0.37089  0.07324  0.34674  1.0000
  C   C76       1.0  0.07434  0.74227  0.35073  1.0000
  C   C77       1.0  0.06176  0.73354  0.27057  1.0000
  C   C78       1.0  0.03813  0.72226  0.27380  1.0000
  H   H58       1.0  0.02940  0.71620  0.21498  1.0000
  N   N19       1.0  0.07321  0.73656  0.18798  1.0000
  O   O19       1.0  0.06889  0.74763  0.13276  1.0000
  O   O20       1.0  0.06830  0.71823  0.15239  1.0000
  N   N20       1.0  0.09677  0.75257  0.34654  1.0000
  C   C79       1.0  0.33466  0.33523  0.35091  1.0000
  C   C80       1.0  0.34342  0.33140  0.27076  1.0000
  C   C81       1.0  0.35471  0.31906  0.27400  1.0000
  H   H59       1.0  0.36080  0.31641  0.21519  1.0000
  N   N21       1.0  0.34043  0.33986  0.18819  1.0000
  O   O21       1.0  0.32939  0.32448  0.13289  1.0000
  O   O22       1.0  0.35878  0.35329  0.15269  1.0000
  N   N22       1.0  0.32435  0.34736  0.34671  1.0000
  C   C82       1.0  0.74168  0.00258  0.35091  1.0000
  C   C83       1.0  0.74552  0.01516  0.27075  1.0000
  C   C84       1.0  0.75786  0.03879  0.27397  1.0000
  H   H60       1.0  0.76051  0.04752  0.21515  1.0000
  N   N23       1.0  0.73707  0.00371  0.18819  1.0000
  O   O23       1.0  0.75246  0.00804  0.13290  1.0000
  O   O24       1.0  0.72365  0.00862  0.15266  1.0000
  N   N24       1.0  0.72955  0.98014  0.34673  1.0000
  C   C85       1.0  0.21689  0.38110  0.36281  1.0000
  C   C86       1.0  0.23673  0.38087  0.36172  1.0000
  C   C87       1.0  0.25432  0.40280  0.35792  1.0000
  N   N25       1.0  0.24434  0.41542  0.35592  1.0000
  C   C88       1.0  0.22172  0.40319  0.35928  1.0000
  C   C89       1.0  0.20551  0.41013  0.35924  1.0000
  C   C90       1.0  0.21085  0.43281  0.35723  1.0000
  N   N26       1.0  0.23120  0.45134  0.35605  1.0000
  C   C91       1.0  0.22996  0.47020  0.35659  1.0000
  C   C92       1.0  0.20733  0.46336  0.35762  1.0000
  C   C93       1.0  0.19559  0.44039  0.35819  1.0000
  C   C94       1.0  0.24766  0.49261  0.35825  1.0000
  C   C95       1.0  0.27063  0.49909  0.35840  1.0000
  N   N27       1.0  0.28047  0.48649  0.35121  1.0000
  C   C96       1.0  0.30297  0.49875  0.35704  1.0000
  C   C97       1.0  0.30783  0.52076  0.36737  1.0000
  C   C98       1.0  0.28808  0.52097  0.36822  1.0000
  C   C99       1.0  0.31914  0.49185  0.35549  1.0000
  C   C100      1.0  0.31394  0.46927  0.35359  1.0000
  N   N28       1.0  0.29365  0.45063  0.35336  1.0000
  C   C101      1.0  0.29503  0.43184  0.35414  1.0000
  C   C102      1.0  0.31779  0.43903  0.35532  1.0000
  C   C103      1.0  0.32939  0.46198  0.35404  1.0000
  C   C104      1.0  0.27739  0.40929  0.35620  1.0000
  C   C105      1.0  0.28367  0.39244  0.36298  1.0000
  C   C106      1.0  0.30184  0.36335  0.38532  1.0000
  C   C107      1.0  0.29201  0.36856  0.45839  1.0000
  C   C108      1.0  0.28329  0.38293  0.44775  1.0000
  C   C109      1.0  0.34204  0.50879  0.36177  1.0000
  C   C110      1.0  0.38659  0.54499  0.37960  1.0000
  C   C111      1.0  0.37540  0.53084  0.45354  1.0000
  C   C112      1.0  0.35339  0.51313  0.44505  1.0000
  C   C113      1.0  0.24218  0.50981  0.36771  1.0000
  C   C114      1.0  0.23783  0.51535  0.45413  1.0000
  C   C115      1.0  0.23445  0.53357  0.46566  1.0000
  C   C116      1.0  0.23548  0.54697  0.39151  1.0000
  C   C117      1.0  0.18231  0.39374  0.36798  1.0000
  C   C118      1.0  0.17252  0.38809  0.45467  1.0000
  C   C119      1.0  0.13472  0.36875  0.38967  1.0000
  C   C120      1.0  0.14922  0.37584  0.46517  1.0000
  H   H61       1.0  0.14288  0.37299  0.52935  1.0000
  H   H62       1.0  0.18228  0.39397  0.51111  1.0000
  H   H63       1.0  0.20148  0.36721  0.36548  1.0000
  H   H64       1.0  0.23785  0.36675  0.36346  1.0000
  H   H65       1.0  0.25245  0.43136  0.35265  1.0000
  H   H66       1.0  0.27243  0.47069  0.34149  1.0000
  H   H67       1.0  0.17863  0.43102  0.35997  1.0000
  H   H68       1.0  0.20027  0.47322  0.35882  1.0000
  H   H69       1.0  0.23757  0.50644  0.50965  1.0000
  H   H70       1.0  0.23162  0.53720  0.52961  1.0000
  H   H71       1.0  0.28697  0.53498  0.37686  1.0000
  H   H72       1.0  0.32310  0.53459  0.37597  1.0000
  H   H73       1.0  0.32512  0.42944  0.35790  1.0000
  H   H74       1.0  0.34633  0.47155  0.35546  1.0000
  H   H75       1.0  0.34560  0.50358  0.50050  1.0000
  H   H76       1.0  0.38303  0.53354  0.51513  1.0000
  H   H77       1.0  0.27714  0.38685  0.50323  1.0000
  H   H78       1.0  0.29159  0.36234  0.52149  1.0000
  C   C121      1.0  0.40827  0.56244  0.39048  1.0000
  C   C122      1.0  0.23235  0.56507  0.40610  1.0000
  C   C123      1.0  0.11176  0.35917  0.40356  1.0000
  C   C124      1.0  0.31062  0.34924  0.39986  1.0000
  H   H79       1.0  0.41816  0.56048  0.43368  1.0000
  H   H80       1.0  0.22501  0.56552  0.46319  1.0000
  H   H81       1.0  0.10693  0.36396  0.45824  1.0000
  H   H82       1.0  0.30599  0.34011  0.45587  1.0000
  C   C125      1.0  0.69582  0.83895  0.36288  1.0000
  C   C126      1.0  0.69605  0.85902  0.36176  1.0000
  C   C127      1.0  0.67411  0.85468  0.35807  1.0000
  N   N29       1.0  0.66149  0.83208  0.35614  1.0000
  C   C128      1.0  0.67373  0.82170  0.35944  1.0000
  C   C129      1.0  0.66679  0.79853  0.35941  1.0000
  C   C130      1.0  0.64411  0.78120  0.35744  1.0000
  N   N30       1.0  0.62558  0.78302  0.35629  1.0000
  C   C131      1.0  0.60672  0.76291  0.35695  1.0000
  C   C132      1.0  0.61357  0.74713  0.35807  1.0000
  C   C133      1.0  0.63653  0.75836  0.35860  1.0000
  C   C134      1.0  0.58431  0.75820  0.35864  1.0000
  C   C135      1.0  0.57782  0.77468  0.35849  1.0000
  N   N31       1.0  0.59042  0.79713  0.35124  1.0000
  C   C136      1.0  0.57815  0.80736  0.35703  1.0000
  C   C137      1.0  0.55615  0.79021  0.36733  1.0000
  C   C138      1.0  0.55593  0.77025  0.36796  1.0000
  C   C139      1.0  0.58506  0.83043  0.35550  1.0000
  C   C140      1.0  0.60764  0.84782  0.35385  1.0000
  N   N32       1.0  0.62628  0.84617  0.35362  1.0000
  C   C141      1.0  0.64507  0.86634  0.35446  1.0000
  C   C142      1.0  0.63788  0.88191  0.35561  1.0000
  C   C143      1.0  0.61492  0.87055  0.35434  1.0000
  C   C144      1.0  0.66762  0.87126  0.35639  1.0000
  C   C145      1.0  0.68446  0.89438  0.36319  1.0000
  C   C146      1.0  0.71358  0.94165  0.38539  1.0000
  C   C147      1.0  0.70837  0.92661  0.45848  1.0000
  C   C148      1.0  0.69401  0.90352  0.44789  1.0000
  C   C149      1.0  0.56811  0.83638  0.36182  1.0000
  C   C150      1.0  0.53191  0.84475  0.37965  1.0000
  C   C151      1.0  0.54606  0.84771  0.45359  1.0000
  C   C152      1.0  0.56376  0.84339  0.44511  1.0000
  C   C153      1.0  0.56711  0.73552  0.36803  1.0000
  C   C154      1.0  0.56154  0.72561  0.45444  1.0000
  C   C155      1.0  0.54333  0.70400  0.46587  1.0000
  C   C156      1.0  0.52996  0.69165  0.39168  1.0000
  C   C157      1.0  0.68318  0.79174  0.36814  1.0000
  C   C158      1.0  0.68883  0.78760  0.45482  1.0000
  C   C159      1.0  0.70816  0.76912  0.38984  1.0000
  C   C160      1.0  0.70107  0.77653  0.46534  1.0000
  H   H83       1.0  0.70394  0.77307  0.52953  1.0000
  H   H84       1.0  0.68296  0.79149  0.51126  1.0000
  H   H85       1.0  0.70972  0.83744  0.36542  1.0000
  H   H86       1.0  0.71017  0.87427  0.36339  1.0000
  H   H87       1.0  0.64555  0.82424  0.35298  1.0000
  H   H88       1.0  0.60623  0.80489  0.34184  1.0000
  H   H89       1.0  0.64590  0.75077  0.36039  1.0000
  H   H90       1.0  0.60371  0.73021  0.35938  1.0000
  H   H91       1.0  0.57045  0.73425  0.50997  1.0000
  H   H92       1.0  0.53969  0.69753  0.52980  1.0000
  H   H93       1.0  0.54193  0.75513  0.37701  1.0000
  H   H94       1.0  0.54231  0.79164  0.37585  1.0000
  H   H95       1.0  0.64746  0.89884  0.35792  1.0000
  H   H96       1.0  0.60535  0.87792  0.35538  1.0000
  H   H97       1.0  0.57330  0.84514  0.50057  1.0000
  H   H98       1.0  0.54333  0.85261  0.51520  1.0000
  H   H99       1.0  0.69008  0.89346  0.50339  1.0000
  H   H100      1.0  0.71461  0.93242  0.52155  1.0000
  C   C161      1.0  0.51447  0.84899  0.39050  1.0000
  C   C162      1.0  0.51186  0.67041  0.40619  1.0000
  C   C163      1.0  0.71774  0.75574  0.40377  1.0000
  C   C164      1.0  0.72769  0.96453  0.39987  1.0000
  H   H101      1.0  0.51641  0.86081  0.43381  1.0000
  H   H102      1.0  0.51142  0.66260  0.46321  1.0000
  H   H103      1.0  0.71296  0.74613  0.45849  1.0000
  H   H104      1.0  0.73683  0.96904  0.45582  1.0000
  C   C165      1.0  0.23796  0.86002  0.36264  1.0000
  C   C166      1.0  0.21789  0.84018  0.36157  1.0000
  C   C167      1.0  0.22224  0.82258  0.35781  1.0000
  N   N33       1.0  0.24483  0.83257  0.35581  1.0000
  C   C168      1.0  0.25522  0.85519  0.35912  1.0000
  C   C169      1.0  0.27838  0.87140  0.35902  1.0000
  C   C170      1.0  0.29571  0.86607  0.35706  1.0000
  N   N34       1.0  0.29390  0.84572  0.35589  1.0000
  C   C171      1.0  0.31400  0.84696  0.35649  1.0000
  C   C172      1.0  0.32979  0.86959  0.35768  1.0000
  C   C173      1.0  0.31856  0.88133  0.35822  1.0000
  C   C174      1.0  0.31871  0.82926  0.35821  1.0000
  C   C175      1.0  0.30223  0.80629  0.35818  1.0000
  N   N35       1.0  0.27978  0.79645  0.35100  1.0000
  C   C176      1.0  0.26956  0.77395  0.35688  1.0000
  C   C177      1.0  0.28670  0.76909  0.36720  1.0000
  C   C178      1.0  0.30666  0.78884  0.36785  1.0000
  C   C179      1.0  0.24648  0.75778  0.35540  1.0000
  C   C180      1.0  0.22910  0.76298  0.35370  1.0000
  N   N36       1.0  0.23074  0.78327  0.35345  1.0000
  C   C181      1.0  0.21057  0.78188  0.35425  1.0000
  C   C182      1.0  0.19501  0.75912  0.35535  1.0000
  C   C183      1.0  0.20637  0.74753  0.35410  1.0000
  C   C184      1.0  0.20565  0.79951  0.35612  1.0000
  C   C185      1.0  0.18254  0.79324  0.36295  1.0000
  C   C186      1.0  0.13526  0.77508  0.38518  1.0000
  C   C187      1.0  0.15029  0.78489  0.45828  1.0000
  C   C188      1.0  0.17338  0.79362  0.44769  1.0000
  C   C189      1.0  0.24053  0.73488  0.36170  1.0000
  C   C190      1.0  0.23216  0.69032  0.37946  1.0000
  C   C191      1.0  0.22917  0.70149  0.45340  1.0000
  C   C192      1.0  0.23347  0.72350  0.44493  1.0000
  C   C193      1.0  0.34139  0.83475  0.36771  1.0000
  C   C194      1.0  0.35127  0.83907  0.45415  1.0000
  C   C195      1.0  0.37288  0.84247  0.46567  1.0000
  C   C196      1.0  0.38525  0.84145  0.39154  1.0000
  C   C197      1.0  0.28518  0.89460  0.36780  1.0000
  C   C198      1.0  0.28927  0.90437  0.45451  1.0000
  C   C199      1.0  0.30775  0.94219  0.38958  1.0000
  C   C200      1.0  0.30033  0.92767  0.46505  1.0000
  H   H105      1.0  0.30375  0.93399  0.52925  1.0000
  H   H106      1.0  0.28537  0.89460  0.51093  1.0000
  H   H107      1.0  0.23947  0.87543  0.36525  1.0000
  H   H108      1.0  0.20264  0.83905  0.36328  1.0000
  H   H109      1.0  0.25267  0.82447  0.35253  1.0000
  H   H110      1.0  0.27202  0.80449  0.34160  1.0000
  H   H111      1.0  0.32614  0.89828  0.36002  1.0000
  H   H112      1.0  0.34671  0.87665  0.35898  1.0000
  H   H113      1.0  0.34262  0.83935  0.50964  1.0000
  H   H114      1.0  0.37933  0.84529  0.52963  1.0000
  H   H115      1.0  0.32179  0.78996  0.37669  1.0000
  H   H116      1.0  0.28527  0.75382  0.37572  1.0000
  H   H117      1.0  0.17808  0.75178  0.35753  1.0000
  H   H118      1.0  0.19899  0.73058  0.35509  1.0000
  H   H119      1.0  0.23172  0.73129  0.50039  1.0000
  H   H120      1.0  0.22424  0.69385  0.51497  1.0000
  H   H121      1.0  0.18345  0.79976  0.50318  1.0000
  H   H122      1.0  0.14448  0.78533  0.52136  1.0000
  C   C201      1.0  0.22792  0.66864  0.39029  1.0000
  C   C202      1.0  0.40648  0.84458  0.40613  1.0000
  C   C203      1.0  0.32114  0.96514  0.40355  1.0000
  C   C204      1.0  0.11238  0.76632  0.39967  1.0000
  H   H123      1.0  0.21608  0.65874  0.43352  1.0000
  H   H124      1.0  0.41426  0.85191  0.46323  1.0000
  H   H125      1.0  0.33075  0.96996  0.45825  1.0000
  H   H126      1.0  0.10787  0.77096  0.45562  1.0000
  C   C205      1.0  0.88356  0.67229  0.36276  1.0000
  C   C206      1.0  0.86372  0.67252  0.36163  1.0000
  C   C207      1.0  0.84613  0.65058  0.35798  1.0000
  N   N37       1.0  0.85611  0.63797  0.35611  1.0000
  C   C208      1.0  0.87873  0.65020  0.35939  1.0000
  C   C209      1.0  0.89495  0.64326  0.35941  1.0000
  C   C210      1.0  0.88961  0.62059  0.35752  1.0000
  N   N38       1.0  0.86926  0.60205  0.35635  1.0000
  C   C211      1.0  0.87051  0.58320  0.35700  1.0000
  C   C212      1.0  0.89314  0.59004  0.35809  1.0000
  C   C213      1.0  0.90487  0.61300  0.35868  1.0000
  C   C214      1.0  0.85280  0.56078  0.35875  1.0000
  C   C215      1.0  0.82983  0.55429  0.35858  1.0000
  N   N39       1.0  0.81999  0.56690  0.35134  1.0000
  C   C216      1.0  0.79749  0.55462  0.35710  1.0000
  C   C217      1.0  0.79264  0.53262  0.36749  1.0000
  C   C218      1.0  0.81239  0.53241  0.36822  1.0000
  C   C219      1.0  0.78132  0.56153  0.35562  1.0000
  C   C220      1.0  0.78652  0.58411  0.35386  1.0000
  N   N40       1.0  0.80681  0.60275  0.35360  1.0000
  C   C221      1.0  0.80542  0.62154  0.35448  1.0000
  C   C222      1.0  0.78266  0.61435  0.35572  1.0000
  C   C223      1.0  0.77107  0.59139  0.35436  1.0000
  C   C224      1.0  0.82305  0.64409  0.35629  1.0000
  C   C225      1.0  0.81677  0.66093  0.36311  1.0000
  C   C226      1.0  0.79862  0.69004  0.38541  1.0000
  C   C227      1.0  0.80844  0.68482  0.45848  1.0000
  C   C228      1.0  0.81717  0.67047  0.44786  1.0000
  C   C229      1.0  0.75842  0.54458  0.36199  1.0000
  C   C230      1.0  0.71387  0.50838  0.37990  1.0000
  C   C231      1.0  0.72506  0.52254  0.45382  1.0000
  C   C232      1.0  0.74706  0.54025  0.44528  1.0000
  C   C233      1.0  0.85829  0.54359  0.36814  1.0000
  C   C234      1.0  0.86263  0.53803  0.45455  1.0000
  C   C235      1.0  0.86602  0.51981  0.46603  1.0000
  C   C236      1.0  0.86498  0.50642  0.39187  1.0000
  C   C237      1.0  0.91814  0.65966  0.36806  1.0000
  C   C238      1.0  0.92792  0.66537  0.45474  1.0000
  C   C239      1.0  0.96574  0.68468  0.38965  1.0000
  C   C240      1.0  0.95124  0.67759  0.46518  1.0000
  H   H127      1.0  0.95757  0.68048  0.52935  1.0000
  H   H128      1.0  0.91818  0.65948  0.51121  1.0000
  H   H129      1.0  0.89897  0.68619  0.36531  1.0000
  H   H130      1.0  0.86259  0.68664  0.36324  1.0000
  H   H131      1.0  0.84801  0.62202  0.35298  1.0000
  H   H132      1.0  0.82804  0.58271  0.34198  1.0000
  H   H133      1.0  0.92183  0.62238  0.36041  1.0000
  H   H134      1.0  0.90020  0.58018  0.35947  1.0000
  H   H135      1.0  0.86289  0.54694  0.51008  1.0000
  H   H136      1.0  0.86884  0.51617  0.52997  1.0000
  H   H137      1.0  0.81350  0.51840  0.37714  1.0000
  H   H138      1.0  0.77736  0.51878  0.37600  1.0000
  H   H139      1.0  0.77532  0.62394  0.35808  1.0000
  H   H140      1.0  0.75412  0.58182  0.35567  1.0000
  H   H141      1.0  0.75486  0.54979  0.50072  1.0000
  H   H142      1.0  0.71742  0.51983  0.51542  1.0000
  H   H143      1.0  0.82332  0.66654  0.50332  1.0000
  H   H144      1.0  0.80889  0.69107  0.52155  1.0000
  C   C241      1.0  0.69219  0.49093  0.39082  1.0000
  C   C242      1.0  0.86811  0.48831  0.40642  1.0000
  C   C243      1.0  0.98869  0.69423  0.40353  1.0000
  C   C244      1.0  0.78985  0.70415  0.39993  1.0000
  H   H145      1.0  0.68230  0.49288  0.43407  1.0000
  H   H146      1.0  0.87544  0.48786  0.46352  1.0000
  H   H147      1.0  0.99351  0.68942  0.45818  1.0000
  H   H148      1.0  0.79447  0.71329  0.45592  1.0000
  C   C245      1.0  0.40464  0.21444  0.36304  1.0000
  C   C246      1.0  0.40440  0.19437  0.36193  1.0000
  C   C247      1.0  0.42634  0.19871  0.35816  1.0000
  N   N41       1.0  0.43896  0.22131  0.35619  1.0000
  C   C248      1.0  0.42672  0.23169  0.35954  1.0000
  C   C249      1.0  0.43367  0.25485  0.35952  1.0000
  C   C250      1.0  0.45634  0.27218  0.35755  1.0000
  N   N42       1.0  0.47488  0.27036  0.35640  1.0000
  C   C251      1.0  0.49373  0.29046  0.35696  1.0000
  C   C252      1.0  0.48690  0.30625  0.35798  1.0000
  C   C253      1.0  0.46393  0.29503  0.35853  1.0000
  C   C254      1.0  0.51615  0.29517  0.35865  1.0000
  C   C255      1.0  0.52263  0.27869  0.35880  1.0000
  N   N43       1.0  0.51002  0.25624  0.35158  1.0000
  C   C256      1.0  0.52229  0.24601  0.35742  1.0000
  C   C257      1.0  0.54430  0.26315  0.36778  1.0000
  C   C258      1.0  0.54450  0.28311  0.36864  1.0000
  C   C259      1.0  0.51538  0.22294  0.35584  1.0000
  C   C260      1.0  0.49280  0.20555  0.35391  1.0000
  N   N44       1.0  0.47416  0.20720  0.35367  1.0000
  C   C261      1.0  0.45537  0.18703  0.35440  1.0000
  C   C262      1.0  0.46256  0.17146  0.35557  1.0000
  C   C263      1.0  0.48552  0.18282  0.35433  1.0000
  C   C264      1.0  0.43282  0.18212  0.35644  1.0000
  C   C265      1.0  0.41598  0.15900  0.36318  1.0000
  C   C266      1.0  0.38688  0.11173  0.38545  1.0000
  C   C267      1.0  0.39209  0.12676  0.45853  1.0000
  C   C268      1.0  0.40645  0.14985  0.44794  1.0000
  C   C269      1.0  0.53233  0.21698  0.36211  1.0000
  C   C270      1.0  0.56853  0.20862  0.37993  1.0000
  C   C271      1.0  0.55437  0.20565  0.45387  1.0000
  C   C272      1.0  0.53666  0.20995  0.44538  1.0000
  C   C273      1.0  0.53335  0.31785  0.36812  1.0000
  C   C274      1.0  0.53888  0.32773  0.45455  1.0000
  C   C275      1.0  0.55711  0.34934  0.46608  1.0000
  C   C276      1.0  0.57051  0.36170  0.39193  1.0000
  C   C277      1.0  0.41728  0.26166  0.36824  1.0000
  C   C278      1.0  0.41162  0.26578  0.45493  1.0000
  C   C279      1.0  0.39228  0.28425  0.38990  1.0000
  C   C280      1.0  0.39936  0.27684  0.46542  1.0000
  H   H149      1.0  0.39651  0.28031  0.52959  1.0000
  H   H150      1.0  0.41749  0.26191  0.51137  1.0000
  H   H151      1.0  0.39074  0.21595  0.36569  1.0000
  H   H152      1.0  0.39028  0.17912  0.36365  1.0000
  H   H153      1.0  0.45490  0.22914  0.35294  1.0000
  H   H154      1.0  0.49423  0.24849  0.34185  1.0000
  H   H155      1.0  0.45456  0.30261  0.36030  1.0000
  H   H156      1.0  0.49676  0.32317  0.35920  1.0000
  H   H157      1.0  0.52997  0.31908  0.51006  1.0000
  H   H158      1.0  0.56074  0.35579  0.53003  1.0000
  H   H159      1.0  0.55852  0.29824  0.37729  1.0000
  H   H160      1.0  0.55813  0.26172  0.37638  1.0000
  H   H161      1.0  0.45297  0.15454  0.35814  1.0000
  H   H162      1.0  0.49509  0.17544  0.35575  1.0000
  H   H163      1.0  0.52711  0.20819  0.50083  1.0000
  H   H164      1.0  0.55707  0.20072  0.51546  1.0000
  H   H165      1.0  0.41037  0.15991  0.50343  1.0000
  H   H166      1.0  0.38586  0.12095  0.52163  1.0000
  C   C281      1.0  0.58598  0.20439  0.39081  1.0000
  C   C282      1.0  0.58861  0.38294  0.40653  1.0000
  C   C283      1.0  0.38270  0.29762  0.40378  1.0000
  C   C284      1.0  0.37277  0.08884  0.39994  1.0000
  H   H167      1.0  0.58402  0.19255  0.43404  1.0000
  H   H168      1.0  0.58906  0.39072  0.46364  1.0000
  H   H169      1.0  0.38747  0.30724  0.45848  1.0000
  H   H170      1.0  0.36365  0.08433  0.45597  1.0000
  C   C285      1.0  0.86249  0.19336  0.36282  1.0000
  C   C286      1.0  0.88256  0.21320  0.36168  1.0000
  C   C287      1.0  0.87822  0.23080  0.35802  1.0000
  N   N45       1.0  0.85562  0.22081  0.35609  1.0000
  C   C288      1.0  0.84524  0.19819  0.35939  1.0000
  C   C289      1.0  0.82207  0.18198  0.35938  1.0000
  C   C290      1.0  0.80474  0.18731  0.35742  1.0000
  N   N46       1.0  0.80656  0.20767  0.35625  1.0000
  C   C291      1.0  0.78645  0.20642  0.35692  1.0000
  C   C292      1.0  0.77066  0.18379  0.35805  1.0000
  C   C293      1.0  0.78190  0.17206  0.35858  1.0000
  C   C294      1.0  0.78174  0.22412  0.35857  1.0000
  C   C295      1.0  0.79822  0.24709  0.35848  1.0000
  N   N47       1.0  0.82067  0.25693  0.35123  1.0000
  C   C296      1.0  0.83090  0.27943  0.35705  1.0000
  C   C297      1.0  0.81375  0.28429  0.36739  1.0000
  C   C298      1.0  0.79379  0.26454  0.36799  1.0000
  C   C299      1.0  0.85397  0.29560  0.35552  1.0000
  C   C300      1.0  0.87136  0.29041  0.35384  1.0000
  N   N48       1.0  0.86971  0.27011  0.35359  1.0000
  C   C301      1.0  0.88988  0.27150  0.35442  1.0000
  C   C302      1.0  0.90545  0.29426  0.35557  1.0000
  C   C303      1.0  0.89409  0.30586  0.35432  1.0000
  C   C304      1.0  0.89480  0.25387  0.35633  1.0000
  C   C305      1.0  0.91792  0.26015  0.36312  1.0000
  C   C306      1.0  0.96519  0.27830  0.38530  1.0000
  C   C307      1.0  0.95015  0.26846  0.45839  1.0000
  C   C308      1.0  0.92706  0.25973  0.44782  1.0000
  C   C309      1.0  0.85992  0.31850  0.36185  1.0000
  C   C310      1.0  0.86829  0.36306  0.37971  1.0000
  C   C311      1.0  0.87125  0.35187  0.45363  1.0000
  C   C312      1.0  0.86694  0.32985  0.44513  1.0000
  C   C313      1.0  0.75906  0.21864  0.36804  1.0000
  C   C314      1.0  0.74916  0.21430  0.45446  1.0000
  C   C315      1.0  0.72755  0.21090  0.46596  1.0000
  C   C316      1.0  0.71519  0.21192  0.39180  1.0000
  C   C317      1.0  0.81528  0.15879  0.36809  1.0000
  C   C318      1.0  0.81114  0.14899  0.45477  1.0000
  C   C319      1.0  0.79265  0.11118  0.38978  1.0000
  C   C320      1.0  0.80007  0.12568  0.46528  1.0000
  H   H171      1.0  0.79661  0.11935  0.52947  1.0000
  H   H172      1.0  0.81502  0.15874  0.51122  1.0000
  H   H173      1.0  0.86098  0.17795  0.36534  1.0000
  H   H174      1.0  0.89781  0.21433  0.36331  1.0000
  H   H175      1.0  0.84778  0.22892  0.35295  1.0000
  H   H176      1.0  0.82843  0.24889  0.34177  1.0000
  H   H177      1.0  0.77431  0.15510  0.36037  1.0000
  H   H178      1.0  0.75375  0.17673  0.35935  1.0000
  H   H179      1.0  0.75781  0.21403  0.50997  1.0000
  H   H180      1.0  0.72108  0.20806  0.52990  1.0000
  H   H181      1.0  0.77866  0.26342  0.37704  1.0000
  H   H182      1.0  0.81518  0.29956  0.37592  1.0000
  H   H183      1.0  0.92237  0.30160  0.35786  1.0000
  H   H184      1.0  0.90146  0.32280  0.35536  1.0000
  H   H185      1.0  0.86868  0.32206  0.50058  1.0000
  H   H186      1.0  0.87615  0.35949  0.51524  1.0000
  H   H187      1.0  0.91699  0.25359  0.50332  1.0000
  H   H188      1.0  0.95595  0.26802  0.52146  1.0000
  C   C321      1.0  0.87252  0.38474  0.39058  1.0000
  C   C322      1.0  0.69395  0.20878  0.40637  1.0000
  C   C323      1.0  0.77928  0.08822  0.40370  1.0000
  C   C324      1.0  0.98807  0.28706  0.39978  1.0000
  H   H189      1.0  0.88435  0.39462  0.43387  1.0000
  H   H190      1.0  0.68616  0.20142  0.46342  1.0000
  H   H191      1.0  0.76966  0.08339  0.45843  1.0000
  H   H192      1.0  0.99258  0.28243  0.45574  1.0000
  C   C325      1.0  0.23802  0.64144  0.35436  1.0000
  C   C326      1.0  0.23816  0.63114  0.43693  1.0000
  C   C327      1.0  0.23801  0.61066  0.43506  1.0000
  H   H193      1.0  0.23864  0.60371  0.49503  1.0000
  N   N49       1.0  0.23920  0.64181  0.51970  1.0000
  O   O25       1.0  0.22264  0.62989  0.56864  1.0000
  O   O26       1.0  0.25657  0.64647  0.56295  1.0000
  N   N50       1.0  0.23926  0.66124  0.34919  1.0000
  C   C328      1.0  0.43550  0.59972  0.35447  1.0000
  C   C329      1.0  0.44578  0.61016  0.43704  1.0000
  C   C330      1.0  0.46626  0.63050  0.43517  1.0000
  H   H194      1.0  0.47320  0.63808  0.49513  1.0000
  N   N51       1.0  0.43509  0.60054  0.51981  1.0000
  O   O27       1.0  0.44701  0.59591  0.56880  1.0000
  O   O28       1.0  0.43042  0.61326  0.56300  1.0000
  N   N52       1.0  0.41569  0.58117  0.34931  1.0000
  C   C331      1.0  0.47719  0.83893  0.35447  1.0000
  C   C332      1.0  0.46673  0.83875  0.43703  1.0000
  C   C333      1.0  0.44640  0.83889  0.43514  1.0000
  H   H195      1.0  0.43880  0.83824  0.49509  1.0000
  N   N53       1.0  0.47633  0.83767  0.51980  1.0000
  O   O29       1.0  0.48095  0.85421  0.56883  1.0000
  O   O30       1.0  0.46361  0.82028  0.56295  1.0000
  N   N54       1.0  0.49575  0.83768  0.34931  1.0000
  C   C334      1.0  0.86246  0.41196  0.35463  1.0000
  C   C335      1.0  0.86228  0.42223  0.43720  1.0000
  C   C336      1.0  0.86243  0.44271  0.43535  1.0000
  H   H196      1.0  0.86178  0.44965  0.49532  1.0000
  N   N55       1.0  0.86121  0.41155  0.51996  1.0000
  O   O31       1.0  0.87775  0.42346  0.56897  1.0000
  O   O32       1.0  0.84382  0.40688  0.56314  1.0000
  N   N56       1.0  0.86121  0.39216  0.34943  1.0000
  C   C337      1.0  0.66497  0.45365  0.35480  1.0000
  C   C338      1.0  0.65468  0.44319  0.43736  1.0000
  C   C339      1.0  0.63421  0.42286  0.43549  1.0000
  H   H197      1.0  0.62726  0.41527  0.49546  1.0000
  N   N57       1.0  0.66536  0.45281  0.52013  1.0000
  O   O33       1.0  0.65344  0.45743  0.56915  1.0000
  O   O34       1.0  0.67003  0.44009  0.56330  1.0000
  N   N58       1.0  0.68477  0.47220  0.34962  1.0000
  C   C340      1.0  0.62326  0.21444  0.35475  1.0000
  C   C341      1.0  0.63371  0.21461  0.43730  1.0000
  C   C342      1.0  0.65404  0.21446  0.43540  1.0000
  H   H198      1.0  0.66163  0.21511  0.49535  1.0000
  N   N59       1.0  0.62409  0.21568  0.52008  1.0000
  O   O35       1.0  0.61946  0.19913  0.56910  1.0000
  O   O36       1.0  0.63681  0.23306  0.56324  1.0000
  N   N60       1.0  0.60470  0.21570  0.34960  1.0000
  C   C343      1.0  0.07413  0.33446  0.35544  1.0000
  C   C344      1.0  0.06155  0.32546  0.43576  1.0000
  C   C345      1.0  0.03795  0.31424  0.43246  1.0000
  H   H199      1.0  0.02935  0.30829  0.49146  1.0000
  N   N61       1.0  0.07268  0.32725  0.51808  1.0000
  O   O37       1.0  0.06758  0.30846  0.54931  1.0000
  O   O38       1.0  0.06836  0.33769  0.57653  1.0000
  N   N62       1.0  0.09653  0.34500  0.35033  1.0000
  C   C346      1.0  0.74245  0.74281  0.35563  1.0000
  C   C347      1.0  0.75145  0.73924  0.43595  1.0000
  C   C348      1.0  0.76267  0.72685  0.43262  1.0000
  H   H200      1.0  0.76861  0.72421  0.49162  1.0000
  N   N63       1.0  0.74965  0.74857  0.51827  1.0000
  O   O39       1.0  0.76844  0.76227  0.54948  1.0000
  O   O40       1.0  0.73921  0.73382  0.57672  1.0000
  N   N64       1.0  0.73191  0.75467  0.35052  1.0000
  C   C349      1.0  0.33408  0.00279  0.35549  1.0000
  C   C350      1.0  0.33766  0.01535  0.43583  1.0000
  C   C351      1.0  0.35006  0.03895  0.43254  1.0000
  H   H201      1.0  0.35271  0.04754  0.49156  1.0000
  N   N65       1.0  0.32834  0.00422  0.51816  1.0000
  O   O41       1.0  0.31464  0.00931  0.54944  1.0000
  O   O42       1.0  0.34309  0.00852  0.57656  1.0000
  N   N66       1.0  0.32222  0.98039  0.35035  1.0000
  C   C352      1.0  0.02633  0.71896  0.35542  1.0000
  C   C353      1.0  0.03890  0.72792  0.43574  1.0000
  C   C354      1.0  0.06250  0.73913  0.43241  1.0000
  H   H202      1.0  0.07109  0.74506  0.49141  1.0000
  N   N67       1.0  0.02777  0.72611  0.51810  1.0000
  O   O43       1.0  0.03287  0.74489  0.54942  1.0000
  O   O44       1.0  0.03207  0.71565  0.57646  1.0000
  N   N68       1.0  0.00393  0.70842  0.35033  1.0000
  C   C355      1.0  0.35799  0.31055  0.35561  1.0000
  C   C356      1.0  0.34898  0.31412  0.43591  1.0000
  C   C357      1.0  0.33778  0.32652  0.43258  1.0000
  H   H203      1.0  0.33182  0.32916  0.49156  1.0000
  N   N69       1.0  0.35077  0.30479  0.51824  1.0000
  O   O45       1.0  0.33197  0.29109  0.54946  1.0000
  O   O46       1.0  0.36120  0.31954  0.57669  1.0000
  N   N70       1.0  0.36854  0.29869  0.35052  1.0000
  C   C358      1.0  0.76636  0.05059  0.35557  1.0000
  C   C359      1.0  0.76277  0.03802  0.43589  1.0000
  C   C360      1.0  0.75038  0.01441  0.43257  1.0000
  H   H204      1.0  0.74773  0.00582  0.49157  1.0000
  N   N71       1.0  0.77209  0.04914  0.51822  1.0000
  O   O47       1.0  0.78578  0.04404  0.54946  1.0000
  O   O48       1.0  0.75733  0.04482  0.57665  1.0000
  N   N72       1.0  0.77821  0.07299  0.35046  1.0000
