data_image0
_chemical_formula_structural       C17H10C4HC2H2OCH3C8H6N2HC4N2HCOC17H10C4HC2H2OCH3C8H6N2HC4N2HCOC17H10C4HC2H2OCH3C8H6N2HC4N2HCOC17H10C4HC2H2OCH3C8H6N2HC4N2HCOC17H10C4HC2H2OCH3C8H6N2HC4N2HCOC17H10C4HC2H2OCH3C8H6N2HC4N2HCOC17H10C4HC2H2OCH3C8H6N2HC4N2HCOC17H10C4HC2H2OCH3C8H6N2HC4N2HCOC17H10C4HC2H2OCH3C8H6N2HC4N2HCO
_chemical_formula_sum              "C333 H216 O18 N36"
_cell_length_a       36.1867
_cell_length_b       36.1874
_cell_length_c       15.071
_cell_angle_alpha    90
_cell_angle_beta     90
_cell_angle_gamma    89.9298

_space_group_name_H-M_alt    "P 1"
_space_group_IT_number       1

loop_
  _space_group_symop_operation_xyz
  'x, y, z'

loop_
  _atom_site_type_symbol
  _atom_site_label
  _atom_site_symmetry_multiplicity
  _atom_site_fract_x
  _atom_site_fract_y
  _atom_site_fract_z
  _atom_site_occupancy
  C   C1        1.0  0.98819  0.25093  0.31547  1.0000
  C   C2        1.0  0.02212  0.26895  0.29934  1.0000
  C   C3        1.0  0.02420  0.29553  0.23151  1.0000
  C   C4        1.0  0.99262  0.30515  0.18046  1.0000
  C   C5        1.0  0.29121  0.29402  0.21512  1.0000
  C   C6        1.0  0.28885  0.26794  0.28391  1.0000
  C   C7        1.0  0.99568  0.99668  0.09928  1.0000
  C   C8        1.0  0.99553  0.03377  0.14641  1.0000
  C   C9        1.0  0.29522  0.04913  0.17837  1.0000
  C   C10       1.0  0.29456  0.08187  0.22794  1.0000
  C   C11       1.0  0.99459  0.09963  0.24986  1.0000
  C   C12       1.0  0.02848  0.08359  0.22470  1.0000
  C   C13       1.0  0.02881  0.05066  0.17558  1.0000
  C   C14       1.0  0.02916  0.98951  0.04055  1.0000
  C   C15       1.0  0.29867  0.32409  0.03064  1.0000
  C   C16       1.0  0.28879  0.28782  0.00356  1.0000
  C   C17       1.0  0.04362  0.28670  0.02874  1.0000
  H   H1        1.0  0.30043  0.26529  0.03333  1.0000
  H   H2        1.0  0.03331  0.26486  0.06376  1.0000
  H   H3        1.0  0.05394  0.03977  0.15907  1.0000
  H   H4        1.0  0.05294  0.09697  0.23630  1.0000
  H   H5        1.0  0.26961  0.09396  0.24192  1.0000
  H   H6        1.0  0.27044  0.03723  0.16297  1.0000
  H   H7        1.0  0.26721  0.30174  0.18456  1.0000
  H   H8        1.0  0.04983  0.30454  0.21299  1.0000
  H   H9        1.0  0.04640  0.25678  0.31871  1.0000
  H   H10       1.0  0.26388  0.25511  0.29272  1.0000
  C   C18       1.0  0.32255  0.21261  0.29937  1.0000
  C   C19       1.0  0.32273  0.20031  0.21035  1.0000
  C   C20       1.0  0.99144  0.16247  0.19102  1.0000
  C   C21       1.0  0.99354  0.13787  0.26403  1.0000
  H   H11       1.0  0.32126  0.21896  0.15930  1.0000
  C   C22       1.0  0.99074  0.15052  0.10320  1.0000
  C   C23       1.0  0.02192  0.15818  0.04580  1.0000
  H   H12       1.0  0.35533  0.18716  0.02556  1.0000
  H   H13       1.0  0.04790  0.15199  0.07960  1.0000
  O   O1        1.0  0.96024  0.15199  0.06821  1.0000
  C   C24       1.0  0.20175  0.33278  0.32962  1.0000
  H   H14       1.0  0.21166  0.30427  0.33134  1.0000
  H   H15       1.0  0.22103  0.34883  0.28944  1.0000
  H   H16       1.0  0.17465  0.99999  0.29767  1.0000
  C   C25       1.0  0.28236  0.02032  0.64938  1.0000
  C   C26       1.0  0.25316  0.01421  0.58973  1.0000
  C   C27       1.0  0.24096  0.31131  0.57032  1.0000
  C   C28       1.0  0.26107  0.28145  0.60708  1.0000
  C   C29       1.0  0.07323  0.27971  0.63793  1.0000
  C   C30       1.0  0.08986  0.97536  0.58935  1.0000
  C   C31       1.0  0.07337  0.01076  0.59363  1.0000
  C   C32       1.0  0.04308  0.01735  0.64985  1.0000
  H   H17       1.0  0.23877  0.03676  0.56786  1.0000
  H   H18       1.0  0.28975  0.04704  0.66206  1.0000
  H   H19       1.0  0.25252  0.25479  0.59722  1.0000
  H   H20       1.0  0.08421  0.25361  0.63690  1.0000
  H   H21       1.0  0.08485  0.03286  0.56158  1.0000
  H   H22       1.0  0.03235  0.04349  0.65184  1.0000
  N   N1        1.0  0.99365  0.15161  0.34806  1.0000
  N   N2        1.0  0.32513  0.18709  0.36506  1.0000
  H   H23       1.0  0.02045  0.14093  0.65311  1.0000
  C   C33       1.0  0.12649  0.30426  0.55717  1.0000
  C   C34       1.0  0.14346  0.32592  0.49060  1.0000
  C   C35       1.0  0.18255  0.32682  0.48336  1.0000
  C   C36       1.0  0.20367  0.30541  0.54417  1.0000
  N   N3        1.0  0.18470  0.28442  0.60324  1.0000
  N   N4        1.0  0.14905  0.28374  0.60927  1.0000
  H   H24       1.0  0.12755  0.34235  0.45055  1.0000
  C   C37       1.0  0.19962  0.34801  0.41850  1.0000
  O   O2        1.0  0.19348  0.38128  0.42143  1.0000
  C   C38       1.0  0.98819  0.58427  0.31547  1.0000
  C   C39       1.0  0.02212  0.60228  0.29934  1.0000
  C   C40       1.0  0.02420  0.62886  0.23151  1.0000
  C   C41       1.0  0.99262  0.63848  0.18046  1.0000
  C   C42       1.0  0.29121  0.62736  0.21512  1.0000
  C   C43       1.0  0.28886  0.60127  0.28391  1.0000
  C   C44       1.0  0.99568  0.33001  0.09928  1.0000
  C   C45       1.0  0.99552  0.36710  0.14641  1.0000
  C   C46       1.0  0.29522  0.38246  0.17837  1.0000
  C   C47       1.0  0.29456  0.41520  0.22794  1.0000
  C   C48       1.0  0.99459  0.43297  0.24986  1.0000
  C   C49       1.0  0.02848  0.41692  0.22470  1.0000
  C   C50       1.0  0.02881  0.38400  0.17558  1.0000
  C   C51       1.0  0.02916  0.32284  0.04055  1.0000
  C   C52       1.0  0.29867  0.65743  0.03064  1.0000
  C   C53       1.0  0.28879  0.62116  0.00356  1.0000
  C   C54       1.0  0.04362  0.62003  0.02874  1.0000
  H   H25       1.0  0.30043  0.59862  0.03333  1.0000
  H   H26       1.0  0.03331  0.59820  0.06376  1.0000
  H   H27       1.0  0.05394  0.37310  0.15907  1.0000
  H   H28       1.0  0.05294  0.43031  0.23630  1.0000
  H   H29       1.0  0.26961  0.42729  0.24192  1.0000
  H   H30       1.0  0.27044  0.37057  0.16297  1.0000
  H   H31       1.0  0.26721  0.63507  0.18456  1.0000
  H   H32       1.0  0.04983  0.63788  0.21299  1.0000
  H   H33       1.0  0.04640  0.59011  0.31871  1.0000
  H   H34       1.0  0.26388  0.58844  0.29272  1.0000
  C   C55       1.0  0.32255  0.54594  0.29937  1.0000
  C   C56       1.0  0.32273  0.53364  0.21035  1.0000
  C   C57       1.0  0.99144  0.49580  0.19102  1.0000
  C   C58       1.0  0.99354  0.47120  0.26403  1.0000
  H   H35       1.0  0.32125  0.55229  0.15930  1.0000
  C   C59       1.0  0.99074  0.48385  0.10320  1.0000
  C   C60       1.0  0.02192  0.49151  0.04580  1.0000
  H   H36       1.0  0.35533  0.52050  0.02556  1.0000
  H   H37       1.0  0.04790  0.48532  0.07960  1.0000
  O   O3        1.0  0.96024  0.48532  0.06820  1.0000
  C   C61       1.0  0.20175  0.66611  0.32962  1.0000
  H   H38       1.0  0.21166  0.63761  0.33134  1.0000
  H   H39       1.0  0.22103  0.68217  0.28944  1.0000
  H   H40       1.0  0.17465  0.33332  0.29767  1.0000
  C   C62       1.0  0.28236  0.35365  0.64938  1.0000
  C   C63       1.0  0.25316  0.34754  0.58973  1.0000
  C   C64       1.0  0.24096  0.64464  0.57032  1.0000
  C   C65       1.0  0.26107  0.61479  0.60708  1.0000
  C   C66       1.0  0.07323  0.61304  0.63793  1.0000
  C   C67       1.0  0.08986  0.30870  0.58935  1.0000
  C   C68       1.0  0.07337  0.34409  0.59363  1.0000
  C   C69       1.0  0.04308  0.35068  0.64985  1.0000
  H   H41       1.0  0.23877  0.37009  0.56786  1.0000
  H   H42       1.0  0.28975  0.38037  0.66206  1.0000
  H   H43       1.0  0.25252  0.58812  0.59722  1.0000
  H   H44       1.0  0.08421  0.58694  0.63690  1.0000
  H   H45       1.0  0.08485  0.36619  0.56158  1.0000
  H   H46       1.0  0.03235  0.37683  0.65184  1.0000
  N   N5        1.0  0.99365  0.48495  0.34806  1.0000
  N   N6        1.0  0.32512  0.52042  0.36506  1.0000
  H   H47       1.0  0.02045  0.47426  0.65311  1.0000
  C   C70       1.0  0.12649  0.63760  0.55717  1.0000
  C   C71       1.0  0.14346  0.65926  0.49060  1.0000
  C   C72       1.0  0.18255  0.66016  0.48336  1.0000
  C   C73       1.0  0.20367  0.63875  0.54417  1.0000
  N   N7        1.0  0.18470  0.61776  0.60324  1.0000
  N   N8        1.0  0.14905  0.61707  0.60927  1.0000
  H   H48       1.0  0.12755  0.67568  0.45055  1.0000
  C   C74       1.0  0.19962  0.68134  0.41850  1.0000
  O   O4        1.0  0.19348  0.71461  0.42143  1.0000
  C   C75       1.0  0.98819  0.91760  0.31547  1.0000
  C   C76       1.0  0.02212  0.93562  0.29934  1.0000
  C   C77       1.0  0.02420  0.96219  0.23151  1.0000
  C   C78       1.0  0.99262  0.97182  0.18046  1.0000
  C   C79       1.0  0.29121  0.96069  0.21512  1.0000
  C   C80       1.0  0.28886  0.93460  0.28391  1.0000
  C   C81       1.0  0.99568  0.66334  0.09928  1.0000
  C   C82       1.0  0.99552  0.70043  0.14641  1.0000
  C   C83       1.0  0.29522  0.71579  0.17837  1.0000
  C   C84       1.0  0.29456  0.74853  0.22794  1.0000
  C   C85       1.0  0.99459  0.76630  0.24986  1.0000
  C   C86       1.0  0.02848  0.75025  0.22470  1.0000
  C   C87       1.0  0.02881  0.71733  0.17558  1.0000
  C   C88       1.0  0.02916  0.65618  0.04055  1.0000
  C   C89       1.0  0.29867  0.99076  0.03064  1.0000
  C   C90       1.0  0.28879  0.95449  0.00356  1.0000
  C   C91       1.0  0.04362  0.95336  0.02874  1.0000
  H   H49       1.0  0.30043  0.93195  0.03333  1.0000
  H   H50       1.0  0.03331  0.93153  0.06376  1.0000
  H   H51       1.0  0.05394  0.70643  0.15907  1.0000
  H   H52       1.0  0.05294  0.76364  0.23630  1.0000
  H   H53       1.0  0.26961  0.76063  0.24192  1.0000
  H   H54       1.0  0.27044  0.70390  0.16297  1.0000
  H   H55       1.0  0.26721  0.96841  0.18456  1.0000
  H   H56       1.0  0.04983  0.97121  0.21299  1.0000
  H   H57       1.0  0.04640  0.92344  0.31871  1.0000
  H   H58       1.0  0.26388  0.92177  0.29272  1.0000
  C   C92       1.0  0.32255  0.87927  0.29937  1.0000
  C   C93       1.0  0.32274  0.86697  0.21035  1.0000
  C   C94       1.0  0.99144  0.82914  0.19102  1.0000
  C   C95       1.0  0.99354  0.80454  0.26403  1.0000
  H   H59       1.0  0.32125  0.88563  0.15930  1.0000
  C   C96       1.0  0.99074  0.81718  0.10320  1.0000
  C   C97       1.0  0.02192  0.82484  0.04580  1.0000
  H   H60       1.0  0.35533  0.85383  0.02556  1.0000
  H   H61       1.0  0.04790  0.81865  0.07960  1.0000
  O   O5        1.0  0.96024  0.81865  0.06821  1.0000
  C   C98       1.0  0.20175  0.99944  0.32962  1.0000
  H   H62       1.0  0.21166  0.97094  0.33134  1.0000
  H   H63       1.0  0.22103  0.01550  0.28943  1.0000
  H   H64       1.0  0.17465  0.66665  0.29767  1.0000
  C   C99       1.0  0.28236  0.68698  0.64938  1.0000
  C   C100      1.0  0.25316  0.68087  0.58973  1.0000
  C   C101      1.0  0.24096  0.97797  0.57032  1.0000
  C   C102      1.0  0.26107  0.94812  0.60708  1.0000
  C   C103      1.0  0.07323  0.94637  0.63793  1.0000
  C   C104      1.0  0.08986  0.64203  0.58935  1.0000
  C   C105      1.0  0.07337  0.67743  0.59363  1.0000
  C   C106      1.0  0.04308  0.68402  0.64985  1.0000
  H   H65       1.0  0.23877  0.70342  0.56786  1.0000
  H   H66       1.0  0.28975  0.71371  0.66206  1.0000
  H   H67       1.0  0.25252  0.92146  0.59722  1.0000
  H   H68       1.0  0.08421  0.92028  0.63690  1.0000
  H   H69       1.0  0.08485  0.69952  0.56158  1.0000
  H   H70       1.0  0.03235  0.71016  0.65184  1.0000
  N   N9        1.0  0.99365  0.81828  0.34806  1.0000
  N   N10       1.0  0.32513  0.85375  0.36506  1.0000
  H   H71       1.0  0.02045  0.80760  0.65311  1.0000
  C   C107      1.0  0.12649  0.97093  0.55717  1.0000
  C   C108      1.0  0.14346  0.99259  0.49060  1.0000
  C   C109      1.0  0.18255  0.99349  0.48336  1.0000
  C   C110      1.0  0.20367  0.97208  0.54417  1.0000
  N   N11       1.0  0.18470  0.95109  0.60324  1.0000
  N   N12       1.0  0.14905  0.95040  0.60927  1.0000
  H   H72       1.0  0.12755  0.00901  0.45055  1.0000
  C   C111      1.0  0.19962  0.01468  0.41850  1.0000
  O   O6        1.0  0.19348  0.04794  0.42143  1.0000
  C   C112      1.0  0.32152  0.25093  0.31547  1.0000
  C   C113      1.0  0.35546  0.26895  0.29934  1.0000
  C   C114      1.0  0.35753  0.29553  0.23151  1.0000
  C   C115      1.0  0.32595  0.30515  0.18046  1.0000
  C   C116      1.0  0.62455  0.29402  0.21512  1.0000
  C   C117      1.0  0.62219  0.26794  0.28391  1.0000
  C   C118      1.0  0.32901  0.99668  0.09928  1.0000
  C   C119      1.0  0.32886  0.03377  0.14641  1.0000
  C   C120      1.0  0.62855  0.04913  0.17837  1.0000
  C   C121      1.0  0.62789  0.08187  0.22794  1.0000
  C   C122      1.0  0.32792  0.09963  0.24986  1.0000
  C   C123      1.0  0.36181  0.08359  0.22470  1.0000
  C   C124      1.0  0.36214  0.05066  0.17558  1.0000
  C   C125      1.0  0.36250  0.98951  0.04055  1.0000
  C   C126      1.0  0.63200  0.32409  0.03064  1.0000
  C   C127      1.0  0.62212  0.28782  0.00356  1.0000
  C   C128      1.0  0.37695  0.28670  0.02874  1.0000
  H   H73       1.0  0.63376  0.26529  0.03333  1.0000
  H   H74       1.0  0.36664  0.26486  0.06376  1.0000
  H   H75       1.0  0.38727  0.03977  0.15907  1.0000
  H   H76       1.0  0.38627  0.09697  0.23630  1.0000
  H   H77       1.0  0.60294  0.09396  0.24192  1.0000
  H   H78       1.0  0.60378  0.03723  0.16297  1.0000
  H   H79       1.0  0.60054  0.30174  0.18456  1.0000
  H   H80       1.0  0.38316  0.30454  0.21299  1.0000
  H   H81       1.0  0.37973  0.25678  0.31871  1.0000
  H   H82       1.0  0.59721  0.25511  0.29272  1.0000
  C   C129      1.0  0.65589  0.21261  0.29937  1.0000
  C   C130      1.0  0.65607  0.20031  0.21035  1.0000
  C   C131      1.0  0.32477  0.16247  0.19102  1.0000
  C   C132      1.0  0.32687  0.13787  0.26403  1.0000
  H   H83       1.0  0.65459  0.21896  0.15930  1.0000
  C   C133      1.0  0.32408  0.15052  0.10320  1.0000
  C   C134      1.0  0.35525  0.15818  0.04580  1.0000
  H   H84       1.0  0.68867  0.18716  0.02556  1.0000
  H   H85       1.0  0.38123  0.15199  0.07960  1.0000
  O   O7        1.0  0.29357  0.15199  0.06821  1.0000
  C   C135      1.0  0.53508  0.33278  0.32962  1.0000
  H   H86       1.0  0.54500  0.30427  0.33134  1.0000
  H   H87       1.0  0.55437  0.34883  0.28944  1.0000
  H   H88       1.0  0.50798  0.99999  0.29767  1.0000
  C   C136      1.0  0.61570  0.02032  0.64938  1.0000
  C   C137      1.0  0.58649  0.01421  0.58973  1.0000
  C   C138      1.0  0.57430  0.31131  0.57032  1.0000
  C   C139      1.0  0.59440  0.28145  0.60708  1.0000
  C   C140      1.0  0.40657  0.27971  0.63793  1.0000
  C   C141      1.0  0.42320  0.97536  0.58935  1.0000
  C   C142      1.0  0.40670  0.01076  0.59363  1.0000
  C   C143      1.0  0.37641  0.01735  0.64985  1.0000
  H   H89       1.0  0.57210  0.03676  0.56786  1.0000
  H   H90       1.0  0.62308  0.04704  0.66206  1.0000
  H   H91       1.0  0.58586  0.25479  0.59722  1.0000
  H   H92       1.0  0.41754  0.25361  0.63690  1.0000
  H   H93       1.0  0.41818  0.03286  0.56158  1.0000
  H   H94       1.0  0.36569  0.04349  0.65184  1.0000
  N   N13       1.0  0.32699  0.15161  0.34806  1.0000
  N   N14       1.0  0.65846  0.18709  0.36506  1.0000
  H   H95       1.0  0.35378  0.14093  0.65311  1.0000
  C   C144      1.0  0.45982  0.30426  0.55717  1.0000
  C   C145      1.0  0.47679  0.32592  0.49060  1.0000
  C   C146      1.0  0.51588  0.32682  0.48336  1.0000
  C   C147      1.0  0.53700  0.30541  0.54417  1.0000
  N   N15       1.0  0.51804  0.28442  0.60324  1.0000
  N   N16       1.0  0.48238  0.28374  0.60927  1.0000
  H   H96       1.0  0.46088  0.34235  0.45055  1.0000
  C   C148      1.0  0.53295  0.34801  0.41850  1.0000
  O   O8        1.0  0.52681  0.38128  0.42143  1.0000
  C   C149      1.0  0.32152  0.58427  0.31547  1.0000
  C   C150      1.0  0.35546  0.60228  0.29934  1.0000
  C   C151      1.0  0.35753  0.62886  0.23151  1.0000
  C   C152      1.0  0.32595  0.63848  0.18046  1.0000
  C   C153      1.0  0.62455  0.62736  0.21512  1.0000
  C   C154      1.0  0.62219  0.60127  0.28391  1.0000
  C   C155      1.0  0.32901  0.33001  0.09928  1.0000
  C   C156      1.0  0.32886  0.36710  0.14641  1.0000
  C   C157      1.0  0.62855  0.38246  0.17837  1.0000
  C   C158      1.0  0.62789  0.41520  0.22794  1.0000
  C   C159      1.0  0.32792  0.43297  0.24986  1.0000
  C   C160      1.0  0.36181  0.41692  0.22470  1.0000
  C   C161      1.0  0.36214  0.38400  0.17558  1.0000
  C   C162      1.0  0.36250  0.32284  0.04055  1.0000
  C   C163      1.0  0.63200  0.65743  0.03064  1.0000
  C   C164      1.0  0.62212  0.62116  0.00356  1.0000
  C   C165      1.0  0.37695  0.62003  0.02874  1.0000
  H   H97       1.0  0.63376  0.59862  0.03333  1.0000
  H   H98       1.0  0.36664  0.59820  0.06376  1.0000
  H   H99       1.0  0.38727  0.37310  0.15907  1.0000
  H   H100      1.0  0.38627  0.43031  0.23630  1.0000
  H   H101      1.0  0.60294  0.42729  0.24192  1.0000
  H   H102      1.0  0.60378  0.37057  0.16297  1.0000
  H   H103      1.0  0.60054  0.63507  0.18456  1.0000
  H   H104      1.0  0.38316  0.63788  0.21299  1.0000
  H   H105      1.0  0.37973  0.59011  0.31871  1.0000
  H   H106      1.0  0.59721  0.58844  0.29272  1.0000
  C   C166      1.0  0.65589  0.54594  0.29937  1.0000
  C   C167      1.0  0.65607  0.53364  0.21035  1.0000
  C   C168      1.0  0.32477  0.49580  0.19102  1.0000
  C   C169      1.0  0.32687  0.47120  0.26403  1.0000
  H   H107      1.0  0.65459  0.55229  0.15930  1.0000
  C   C170      1.0  0.32408  0.48385  0.10320  1.0000
  C   C171      1.0  0.35525  0.49151  0.04580  1.0000
  H   H108      1.0  0.68866  0.52050  0.02556  1.0000
  H   H109      1.0  0.38124  0.48532  0.07960  1.0000
  O   O9        1.0  0.29357  0.48532  0.06820  1.0000
  C   C172      1.0  0.53508  0.66611  0.32962  1.0000
  H   H110      1.0  0.54499  0.63761  0.33134  1.0000
  H   H111      1.0  0.55437  0.68217  0.28944  1.0000
  H   H112      1.0  0.50798  0.33332  0.29767  1.0000
  C   C173      1.0  0.61570  0.35365  0.64938  1.0000
  C   C174      1.0  0.58649  0.34754  0.58973  1.0000
  C   C175      1.0  0.57430  0.64464  0.57032  1.0000
  C   C176      1.0  0.59440  0.61479  0.60708  1.0000
  C   C177      1.0  0.40657  0.61304  0.63793  1.0000
  C   C178      1.0  0.42320  0.30870  0.58935  1.0000
  C   C179      1.0  0.40670  0.34409  0.59363  1.0000
  C   C180      1.0  0.37641  0.35068  0.64985  1.0000
  H   H113      1.0  0.57210  0.37009  0.56786  1.0000
  H   H114      1.0  0.62308  0.38037  0.66206  1.0000
  H   H115      1.0  0.58586  0.58812  0.59722  1.0000
  H   H116      1.0  0.41754  0.58694  0.63690  1.0000
  H   H117      1.0  0.41818  0.36619  0.56158  1.0000
  H   H118      1.0  0.36569  0.37683  0.65184  1.0000
  N   N17       1.0  0.32699  0.48495  0.34806  1.0000
  N   N18       1.0  0.65846  0.52042  0.36506  1.0000
  H   H119      1.0  0.35378  0.47426  0.65311  1.0000
  C   C181      1.0  0.45982  0.63760  0.55717  1.0000
  C   C182      1.0  0.47679  0.65926  0.49060  1.0000
  C   C183      1.0  0.51588  0.66016  0.48336  1.0000
  C   C184      1.0  0.53700  0.63875  0.54417  1.0000
  N   N19       1.0  0.51803  0.61776  0.60324  1.0000
  N   N20       1.0  0.48239  0.61707  0.60927  1.0000
  H   H120      1.0  0.46088  0.67568  0.45055  1.0000
  C   C185      1.0  0.53295  0.68134  0.41850  1.0000
  O   O10       1.0  0.52681  0.71461  0.42143  1.0000
  C   C186      1.0  0.32152  0.91760  0.31547  1.0000
  C   C187      1.0  0.35546  0.93562  0.29934  1.0000
  C   C188      1.0  0.35753  0.96219  0.23151  1.0000
  C   C189      1.0  0.32595  0.97182  0.18046  1.0000
  C   C190      1.0  0.62455  0.96069  0.21512  1.0000
  C   C191      1.0  0.62219  0.93460  0.28391  1.0000
  C   C192      1.0  0.32901  0.66334  0.09928  1.0000
  C   C193      1.0  0.32886  0.70043  0.14641  1.0000
  C   C194      1.0  0.62855  0.71579  0.17837  1.0000
  C   C195      1.0  0.62789  0.74853  0.22794  1.0000
  C   C196      1.0  0.32792  0.76630  0.24986  1.0000
  C   C197      1.0  0.36182  0.75025  0.22470  1.0000
  C   C198      1.0  0.36214  0.71733  0.17558  1.0000
  C   C199      1.0  0.36250  0.65618  0.04055  1.0000
  C   C200      1.0  0.63200  0.99076  0.03064  1.0000
  C   C201      1.0  0.62212  0.95449  0.00356  1.0000
  C   C202      1.0  0.37695  0.95336  0.02874  1.0000
  H   H121      1.0  0.63376  0.93195  0.03333  1.0000
  H   H122      1.0  0.36664  0.93153  0.06376  1.0000
  H   H123      1.0  0.38727  0.70643  0.15907  1.0000
  H   H124      1.0  0.38627  0.76364  0.23630  1.0000
  H   H125      1.0  0.60294  0.76063  0.24192  1.0000
  H   H126      1.0  0.60378  0.70390  0.16297  1.0000
  H   H127      1.0  0.60054  0.96841  0.18456  1.0000
  H   H128      1.0  0.38316  0.97121  0.21299  1.0000
  H   H129      1.0  0.37973  0.92344  0.31871  1.0000
  H   H130      1.0  0.59721  0.92177  0.29272  1.0000
  C   C203      1.0  0.65588  0.87927  0.29937  1.0000
  C   C204      1.0  0.65607  0.86697  0.21035  1.0000
  C   C205      1.0  0.32477  0.82914  0.19102  1.0000
  C   C206      1.0  0.32688  0.80454  0.26403  1.0000
  H   H131      1.0  0.65459  0.88563  0.15930  1.0000
  C   C207      1.0  0.32408  0.81718  0.10320  1.0000
  C   C208      1.0  0.35525  0.82484  0.04580  1.0000
  H   H132      1.0  0.68866  0.85383  0.02556  1.0000
  H   H133      1.0  0.38124  0.81865  0.07960  1.0000
  O   O11       1.0  0.29357  0.81865  0.06821  1.0000
  C   C209      1.0  0.53508  0.99944  0.32962  1.0000
  H   H134      1.0  0.54499  0.97094  0.33134  1.0000
  H   H135      1.0  0.55437  0.01550  0.28943  1.0000
  H   H136      1.0  0.50798  0.66665  0.29767  1.0000
  C   C210      1.0  0.61570  0.68698  0.64938  1.0000
  C   C211      1.0  0.58649  0.68087  0.58973  1.0000
  C   C212      1.0  0.57430  0.97797  0.57032  1.0000
  C   C213      1.0  0.59440  0.94812  0.60708  1.0000
  C   C214      1.0  0.40657  0.94637  0.63793  1.0000
  C   C215      1.0  0.42320  0.64203  0.58935  1.0000
  C   C216      1.0  0.40670  0.67743  0.59363  1.0000
  C   C217      1.0  0.37641  0.68402  0.64985  1.0000
  H   H137      1.0  0.57210  0.70342  0.56786  1.0000
  H   H138      1.0  0.62308  0.71371  0.66206  1.0000
  H   H139      1.0  0.58585  0.92146  0.59722  1.0000
  H   H140      1.0  0.41754  0.92028  0.63690  1.0000
  H   H141      1.0  0.41819  0.69952  0.56158  1.0000
  H   H142      1.0  0.36569  0.71016  0.65184  1.0000
  N   N21       1.0  0.32699  0.81828  0.34806  1.0000
  N   N22       1.0  0.65846  0.85375  0.36506  1.0000
  H   H143      1.0  0.35378  0.80760  0.65311  1.0000
  C   C218      1.0  0.45982  0.97093  0.55717  1.0000
  C   C219      1.0  0.47679  0.99259  0.49060  1.0000
  C   C220      1.0  0.51588  0.99349  0.48336  1.0000
  C   C221      1.0  0.53700  0.97208  0.54417  1.0000
  N   N23       1.0  0.51803  0.95109  0.60324  1.0000
  N   N24       1.0  0.48239  0.95040  0.60927  1.0000
  H   H144      1.0  0.46088  0.00901  0.45055  1.0000
  C   C222      1.0  0.53295  0.01468  0.41850  1.0000
  O   O12       1.0  0.52681  0.04794  0.42143  1.0000
  C   C223      1.0  0.65485  0.25093  0.31547  1.0000
  C   C224      1.0  0.68879  0.26895  0.29934  1.0000
  C   C225      1.0  0.69087  0.29553  0.23151  1.0000
  C   C226      1.0  0.65929  0.30515  0.18046  1.0000
  C   C227      1.0  0.95788  0.29402  0.21512  1.0000
  C   C228      1.0  0.95552  0.26794  0.28391  1.0000
  C   C229      1.0  0.66234  0.99668  0.09928  1.0000
  C   C230      1.0  0.66219  0.03377  0.14641  1.0000
  C   C231      1.0  0.96189  0.04913  0.17837  1.0000
  C   C232      1.0  0.96122  0.08187  0.22794  1.0000
  C   C233      1.0  0.66125  0.09963  0.24986  1.0000
  C   C234      1.0  0.69515  0.08359  0.22470  1.0000
  C   C235      1.0  0.69547  0.05066  0.17558  1.0000
  C   C236      1.0  0.69583  0.98951  0.04055  1.0000
  C   C237      1.0  0.96534  0.32409  0.03064  1.0000
  C   C238      1.0  0.95546  0.28782  0.00356  1.0000
  C   C239      1.0  0.71028  0.28670  0.02874  1.0000
  H   H145      1.0  0.96710  0.26529  0.03333  1.0000
  H   H146      1.0  0.69997  0.26486  0.06376  1.0000
  H   H147      1.0  0.72061  0.03977  0.15907  1.0000
  H   H148      1.0  0.71960  0.09697  0.23630  1.0000
  H   H149      1.0  0.93628  0.09396  0.24192  1.0000
  H   H150      1.0  0.93711  0.03723  0.16297  1.0000
  H   H151      1.0  0.93387  0.30174  0.18456  1.0000
  H   H152      1.0  0.71650  0.30454  0.21299  1.0000
  H   H153      1.0  0.71307  0.25678  0.31871  1.0000
  H   H154      1.0  0.93054  0.25511  0.29272  1.0000
  C   C240      1.0  0.98922  0.21261  0.29937  1.0000
  C   C241      1.0  0.98940  0.20031  0.21035  1.0000
  C   C242      1.0  0.65811  0.16247  0.19102  1.0000
  C   C243      1.0  0.66021  0.13787  0.26403  1.0000
  H   H155      1.0  0.98792  0.21896  0.15930  1.0000
  C   C244      1.0  0.65741  0.15052  0.10320  1.0000
  C   C245      1.0  0.68858  0.15818  0.04580  1.0000
  H   H156      1.0  0.02200  0.18716  0.02556  1.0000
  H   H157      1.0  0.71457  0.15199  0.07960  1.0000
  O   O13       1.0  0.62690  0.15199  0.06821  1.0000
  C   C246      1.0  0.86842  0.33278  0.32962  1.0000
  H   H158      1.0  0.87833  0.30427  0.33134  1.0000
  H   H159      1.0  0.88770  0.34883  0.28944  1.0000
  H   H160      1.0  0.84131  0.99999  0.29767  1.0000
  C   C247      1.0  0.94903  0.02032  0.64938  1.0000
  C   C248      1.0  0.91982  0.01421  0.58973  1.0000
  C   C249      1.0  0.90763  0.31131  0.57032  1.0000
  C   C250      1.0  0.92773  0.28145  0.60708  1.0000
  C   C251      1.0  0.73990  0.27971  0.63793  1.0000
  C   C252      1.0  0.75653  0.97536  0.58935  1.0000
  C   C253      1.0  0.74003  0.01076  0.59363  1.0000
  C   C254      1.0  0.70974  0.01735  0.64985  1.0000
  H   H161      1.0  0.90543  0.03676  0.56786  1.0000
  H   H162      1.0  0.95642  0.04704  0.66206  1.0000
  H   H163      1.0  0.91919  0.25479  0.59722  1.0000
  H   H164      1.0  0.75088  0.25361  0.63690  1.0000
  H   H165      1.0  0.75152  0.03286  0.56158  1.0000
  H   H166      1.0  0.69902  0.04349  0.65184  1.0000
  N   N25       1.0  0.66032  0.15161  0.34806  1.0000
  N   N26       1.0  0.99179  0.18709  0.36506  1.0000
  H   H167      1.0  0.68712  0.14093  0.65311  1.0000
  C   C255      1.0  0.79315  0.30426  0.55717  1.0000
  C   C256      1.0  0.81012  0.32592  0.49060  1.0000
  C   C257      1.0  0.84922  0.32682  0.48336  1.0000
  C   C258      1.0  0.87033  0.30541  0.54417  1.0000
  N   N27       1.0  0.85137  0.28442  0.60324  1.0000
  N   N28       1.0  0.81572  0.28374  0.60927  1.0000
  H   H168      1.0  0.79421  0.34235  0.45055  1.0000
  C   C259      1.0  0.86629  0.34801  0.41850  1.0000
  O   O14       1.0  0.86014  0.38128  0.42143  1.0000
  C   C260      1.0  0.65486  0.58427  0.31547  1.0000
  C   C261      1.0  0.68879  0.60228  0.29934  1.0000
  C   C262      1.0  0.69086  0.62886  0.23151  1.0000
  C   C263      1.0  0.65928  0.63848  0.18046  1.0000
  C   C264      1.0  0.95788  0.62736  0.21512  1.0000
  C   C265      1.0  0.95552  0.60127  0.28391  1.0000
  C   C266      1.0  0.66235  0.33001  0.09928  1.0000
  C   C267      1.0  0.66219  0.36710  0.14641  1.0000
  C   C268      1.0  0.96189  0.38246  0.17837  1.0000
  C   C269      1.0  0.96122  0.41520  0.22794  1.0000
  C   C270      1.0  0.66125  0.43297  0.24986  1.0000
  C   C271      1.0  0.69515  0.41692  0.22470  1.0000
  C   C272      1.0  0.69548  0.38400  0.17558  1.0000
  C   C273      1.0  0.69583  0.32284  0.04055  1.0000
  C   C274      1.0  0.96534  0.65743  0.03064  1.0000
  C   C275      1.0  0.95546  0.62116  0.00356  1.0000
  C   C276      1.0  0.71028  0.62003  0.02874  1.0000
  H   H169      1.0  0.96710  0.59862  0.03333  1.0000
  H   H170      1.0  0.69997  0.59820  0.06376  1.0000
  H   H171      1.0  0.72061  0.37310  0.15907  1.0000
  H   H172      1.0  0.71960  0.43031  0.23630  1.0000
  H   H173      1.0  0.93628  0.42729  0.24192  1.0000
  H   H174      1.0  0.93711  0.37057  0.16297  1.0000
  H   H175      1.0  0.93387  0.63507  0.18456  1.0000
  H   H176      1.0  0.71649  0.63788  0.21299  1.0000
  H   H177      1.0  0.71307  0.59011  0.31871  1.0000
  H   H178      1.0  0.93054  0.58844  0.29272  1.0000
  C   C277      1.0  0.98922  0.54594  0.29937  1.0000
  C   C278      1.0  0.98940  0.53364  0.21035  1.0000
  C   C279      1.0  0.65811  0.49580  0.19102  1.0000
  C   C280      1.0  0.66021  0.47120  0.26403  1.0000
  H   H179      1.0  0.98792  0.55229  0.15930  1.0000
  C   C281      1.0  0.65741  0.48385  0.10320  1.0000
  C   C282      1.0  0.68858  0.49151  0.04580  1.0000
  H   H180      1.0  0.02200  0.52050  0.02556  1.0000
  H   H181      1.0  0.71457  0.48532  0.07960  1.0000
  O   O15       1.0  0.62690  0.48532  0.06820  1.0000
  C   C283      1.0  0.86841  0.66611  0.32962  1.0000
  H   H182      1.0  0.87833  0.63761  0.33134  1.0000
  H   H183      1.0  0.88770  0.68217  0.28944  1.0000
  H   H184      1.0  0.84131  0.33332  0.29767  1.0000
  C   C284      1.0  0.94903  0.35365  0.64938  1.0000
  C   C285      1.0  0.91982  0.34754  0.58973  1.0000
  C   C286      1.0  0.90763  0.64464  0.57032  1.0000
  C   C287      1.0  0.92773  0.61479  0.60708  1.0000
  C   C288      1.0  0.73990  0.61304  0.63793  1.0000
  C   C289      1.0  0.75653  0.30870  0.58935  1.0000
  C   C290      1.0  0.74003  0.34409  0.59363  1.0000
  C   C291      1.0  0.70974  0.35068  0.64985  1.0000
  H   H185      1.0  0.90543  0.37009  0.56786  1.0000
  H   H186      1.0  0.95642  0.38037  0.66206  1.0000
  H   H187      1.0  0.91919  0.58812  0.59722  1.0000
  H   H188      1.0  0.75088  0.58694  0.63690  1.0000
  H   H189      1.0  0.75152  0.36619  0.56158  1.0000
  H   H190      1.0  0.69902  0.37683  0.65184  1.0000
  N   N29       1.0  0.66032  0.48495  0.34806  1.0000
  N   N30       1.0  0.99179  0.52042  0.36506  1.0000
  H   H191      1.0  0.68712  0.47426  0.65311  1.0000
  C   C292      1.0  0.79315  0.63760  0.55717  1.0000
  C   C293      1.0  0.81013  0.65926  0.49060  1.0000
  C   C294      1.0  0.84922  0.66016  0.48336  1.0000
  C   C295      1.0  0.87034  0.63875  0.54417  1.0000
  N   N31       1.0  0.85137  0.61776  0.60324  1.0000
  N   N32       1.0  0.81572  0.61707  0.60927  1.0000
  H   H192      1.0  0.79422  0.67568  0.45055  1.0000
  C   C296      1.0  0.86629  0.68134  0.41850  1.0000
  O   O16       1.0  0.86014  0.71461  0.42143  1.0000
  C   C297      1.0  0.65486  0.91760  0.31547  1.0000
  C   C298      1.0  0.68879  0.93562  0.29934  1.0000
  C   C299      1.0  0.69086  0.96219  0.23151  1.0000
  C   C300      1.0  0.65928  0.97182  0.18046  1.0000
  C   C301      1.0  0.95788  0.96069  0.21512  1.0000
  C   C302      1.0  0.95552  0.93460  0.28391  1.0000
  C   C303      1.0  0.66235  0.66334  0.09928  1.0000
  C   C304      1.0  0.66219  0.70043  0.14641  1.0000
  C   C305      1.0  0.96189  0.71579  0.17837  1.0000
  C   C306      1.0  0.96122  0.74853  0.22794  1.0000
  C   C307      1.0  0.66125  0.76630  0.24986  1.0000
  C   C308      1.0  0.69515  0.75025  0.22470  1.0000
  C   C309      1.0  0.69547  0.71733  0.17558  1.0000
  C   C310      1.0  0.69583  0.65618  0.04055  1.0000
  C   C311      1.0  0.96534  0.99076  0.03064  1.0000
  C   C312      1.0  0.95546  0.95449  0.00356  1.0000
  C   C313      1.0  0.71028  0.95336  0.02874  1.0000
  H   H193      1.0  0.96710  0.93195  0.03333  1.0000
  H   H194      1.0  0.69997  0.93153  0.06376  1.0000
  H   H195      1.0  0.72061  0.70643  0.15907  1.0000
  H   H196      1.0  0.71960  0.76364  0.23630  1.0000
  H   H197      1.0  0.93628  0.76063  0.24192  1.0000
  H   H198      1.0  0.93711  0.70390  0.16297  1.0000
  H   H199      1.0  0.93387  0.96841  0.18456  1.0000
  H   H200      1.0  0.71649  0.97121  0.21299  1.0000
  H   H201      1.0  0.71307  0.92344  0.31871  1.0000
  H   H202      1.0  0.93054  0.92177  0.29272  1.0000
  C   C314      1.0  0.98922  0.87927  0.29937  1.0000
  C   C315      1.0  0.98940  0.86697  0.21035  1.0000
  C   C316      1.0  0.65811  0.82914  0.19102  1.0000
  C   C317      1.0  0.66021  0.80454  0.26403  1.0000
  H   H203      1.0  0.98792  0.88563  0.15930  1.0000
  C   C318      1.0  0.65741  0.81718  0.10320  1.0000
  C   C319      1.0  0.68858  0.82484  0.04580  1.0000
  H   H204      1.0  0.02200  0.85383  0.02556  1.0000
  H   H205      1.0  0.71457  0.81865  0.07960  1.0000
  O   O17       1.0  0.62690  0.81865  0.06821  1.0000
  C   C320      1.0  0.86842  0.99944  0.32962  1.0000
  H   H206      1.0  0.87833  0.97094  0.33134  1.0000
  H   H207      1.0  0.88770  0.01550  0.28943  1.0000
  H   H208      1.0  0.84131  0.66665  0.29767  1.0000
  C   C321      1.0  0.94903  0.68698  0.64938  1.0000
  C   C322      1.0  0.91982  0.68087  0.58973  1.0000
  C   C323      1.0  0.90763  0.97797  0.57032  1.0000
  C   C324      1.0  0.92773  0.94812  0.60708  1.0000
  C   C325      1.0  0.73990  0.94637  0.63793  1.0000
  C   C326      1.0  0.75653  0.64203  0.58935  1.0000
  C   C327      1.0  0.74003  0.67743  0.59363  1.0000
  C   C328      1.0  0.70974  0.68402  0.64985  1.0000
  H   H209      1.0  0.90543  0.70342  0.56786  1.0000
  H   H210      1.0  0.95642  0.71371  0.66206  1.0000
  H   H211      1.0  0.91919  0.92146  0.59722  1.0000
  H   H212      1.0  0.75088  0.92028  0.63690  1.0000
  H   H213      1.0  0.75152  0.69952  0.56158  1.0000
  H   H214      1.0  0.69902  0.71016  0.65184  1.0000
  N   N33       1.0  0.66032  0.81828  0.34806  1.0000
  N   N34       1.0  0.99179  0.85375  0.36506  1.0000
  H   H215      1.0  0.68711  0.80760  0.65311  1.0000
  C   C329      1.0  0.79315  0.97093  0.55717  1.0000
  C   C330      1.0  0.81013  0.99259  0.49060  1.0000
  C   C331      1.0  0.84922  0.99349  0.48336  1.0000
  C   C332      1.0  0.87034  0.97208  0.54417  1.0000
  N   N35       1.0  0.85137  0.95109  0.60324  1.0000
  N   N36       1.0  0.81572  0.95040  0.60927  1.0000
  H   H216      1.0  0.79421  0.00901  0.45055  1.0000
  C   C333      1.0  0.86629  0.01468  0.41850  1.0000
  O   O18       1.0  0.86015  0.04794  0.42143  1.0000
