data_image0
_chemical_formula_structural       C2HC2HC3H2C3H2CHCHC6H4C6H4C4H4C4H4C2H2C2H2C2H2C2H2C2H2C2H2C4H2C4H2C2HC4H2C4H2C2HC4H2C4H2C4H2C4H2C4H2C4H2C11H5C24H15C11H5C24H15C24H15C24H15C24H15C24H15C24H15C24H15C24H15C24H15C4H2C4H2C4H2C4H2C4H2C4H2C2H2C2H2CHC2H2C2H2CHC2H2C2H2C2H2C2H2C2H2C2H2
_chemical_formula_sum              "C396 H252"
_cell_length_a       75.7836
_cell_length_b       75.7836
_cell_length_c       14.942
_cell_angle_alpha    90
_cell_angle_beta     90
_cell_angle_gamma    120

_space_group_name_H-M_alt    "P 1"
_space_group_IT_number       1

loop_
  _space_group_symop_operation_xyz
  'x, y, z'

loop_
  _atom_site_type_symbol
  _atom_site_label
  _atom_site_symmetry_multiplicity
  _atom_site_fract_x
  _atom_site_fract_y
  _atom_site_fract_z
  _atom_site_occupancy
  C   C1        1.0  0.00916  0.79986  0.25535  1.0000
  C   C2        1.0  0.02008  0.80533  0.33683  1.0000
  H   H1        1.0  0.01675  0.80366  0.19548  1.0000
  C   C3        1.0  0.00916  0.19681  0.25534  1.0000
  C   C4        1.0  0.02008  0.20227  0.33681  1.0000
  H   H2        1.0  0.01674  0.20060  0.19546  1.0000
  C   C5        1.0  0.05263  0.20259  0.33692  1.0000
  C   C6        1.0  0.04165  0.21303  0.33682  1.0000
  C   C7        1.0  0.05265  0.23445  0.33686  1.0000
  H   H3        1.0  0.04505  0.18699  0.33694  1.0000
  H   H4        1.0  0.04510  0.24250  0.33682  1.0000
  C   C8        1.0  0.05265  0.80572  0.33688  1.0000
  C   C9        1.0  0.04165  0.81613  0.33686  1.0000
  C   C10       1.0  0.05263  0.83755  0.33697  1.0000
  H   H5        1.0  0.04510  0.79011  0.33683  1.0000
  H   H6        1.0  0.04505  0.84558  0.33700  1.0000
  C   C11       1.0  0.00916  0.79986  0.41830  1.0000
  H   H7        1.0  0.01674  0.80366  0.47818  1.0000
  C   C12       1.0  0.00916  0.19681  0.41829  1.0000
  H   H8        1.0  0.01675  0.20060  0.47816  1.0000
  C   C13       1.0  0.12019  0.26801  0.33727  1.0000
  C   C14       1.0  0.10842  0.24637  0.33713  1.0000
  C   C15       1.0  0.12019  0.23649  0.33702  1.0000
  C   C16       1.0  0.08595  0.23515  0.33704  1.0000
  C   C17       1.0  0.07409  0.21340  0.33705  1.0000
  C   C18       1.0  0.07412  0.24507  0.33694  1.0000
  H   H9        1.0  0.08061  0.20450  0.33718  1.0000
  H   H10       1.0  0.08064  0.26049  0.33693  1.0000
  H   H11       1.0  0.11255  0.22122  0.33677  1.0000
  H   H12       1.0  0.11256  0.27564  0.33736  1.0000
  C   C19       1.0  0.10843  0.84957  0.33715  1.0000
  C   C20       1.0  0.12019  0.83970  0.33733  1.0000
  C   C21       1.0  0.12019  0.87121  0.33702  1.0000
  C   C22       1.0  0.08595  0.83831  0.33708  1.0000
  C   C23       1.0  0.07412  0.81656  0.33697  1.0000
  C   C24       1.0  0.07409  0.84820  0.33710  1.0000
  H   H13       1.0  0.08064  0.80767  0.33692  1.0000
  H   H14       1.0  0.08061  0.86362  0.33724  1.0000
  H   H15       1.0  0.11256  0.82443  0.33750  1.0000
  H   H16       1.0  0.11255  0.87885  0.33677  1.0000
  C   C25       1.0  0.14183  0.24637  0.33716  1.0000
  C   C26       1.0  0.14183  0.27977  0.33733  1.0000
  C   C27       1.0  0.14315  0.31408  0.33744  1.0000
  C   C28       1.0  0.14319  0.21340  0.33710  1.0000
  H   H17       1.0  0.14582  0.18699  0.33700  1.0000
  H   H18       1.0  0.12778  0.20450  0.33724  1.0000
  H   H19       1.0  0.12773  0.30756  0.33741  1.0000
  H   H20       1.0  0.14575  0.34311  0.33754  1.0000
  C   C29       1.0  0.14183  0.84957  0.33733  1.0000
  C   C30       1.0  0.14183  0.88297  0.33713  1.0000
  C   C31       1.0  0.14315  0.81659  0.33741  1.0000
  C   C32       1.0  0.14319  0.91731  0.33705  1.0000
  H   H21       1.0  0.12778  0.91079  0.33718  1.0000
  H   H22       1.0  0.14582  0.94635  0.33694  1.0000
  H   H23       1.0  0.14575  0.79016  0.33751  1.0000
  H   H24       1.0  0.12774  0.80769  0.33734  1.0000
  C   C33       1.0  0.19143  0.37898  0.25611  1.0000
  C   C34       1.0  0.20216  0.40044  0.25612  1.0000
  H   H25       1.0  0.18764  0.37140  0.19623  1.0000
  H   H26       1.0  0.20595  0.40803  0.19625  1.0000
  C   C35       1.0  0.61242  0.79996  0.25611  1.0000
  C   C36       1.0  0.59096  0.78924  0.25612  1.0000
  H   H27       1.0  0.62000  0.80376  0.19623  1.0000
  H   H28       1.0  0.58337  0.78544  0.19625  1.0000
  C   C37       1.0  0.19144  0.79997  0.25611  1.0000
  C   C38       1.0  0.20217  0.78924  0.25612  1.0000
  H   H29       1.0  0.18764  0.80376  0.19623  1.0000
  H   H30       1.0  0.20596  0.78544  0.19625  1.0000
  C   C39       1.0  0.80542  0.60696  0.25611  1.0000
  C   C40       1.0  0.79470  0.58550  0.25612  1.0000
  H   H31       1.0  0.80921  0.61454  0.19623  1.0000
  H   H32       1.0  0.79090  0.57791  0.19625  1.0000
  C   C41       1.0  0.38444  0.18598  0.25611  1.0000
  C   C42       1.0  0.40590  0.19671  0.25612  1.0000
  H   H33       1.0  0.37686  0.18219  0.19623  1.0000
  H   H34       1.0  0.41349  0.20051  0.19625  1.0000
  C   C43       1.0  0.80542  0.18598  0.25611  1.0000
  C   C44       1.0  0.79469  0.19671  0.25612  1.0000
  H   H35       1.0  0.80921  0.18218  0.19624  1.0000
  H   H36       1.0  0.79089  0.20050  0.19625  1.0000
  C   C45       1.0  0.20227  0.18608  0.25534  1.0000
  C   C46       1.0  0.19154  0.19681  0.25535  1.0000
  C   C47       1.0  0.18607  0.20227  0.33683  1.0000
  C   C48       1.0  0.20772  0.18061  0.33681  1.0000
  H   H37       1.0  0.18774  0.20060  0.19548  1.0000
  H   H38       1.0  0.20606  0.18229  0.19547  1.0000
  C   C49       1.0  0.80532  0.00370  0.25534  1.0000
  C   C50       1.0  0.79459  0.98224  0.25535  1.0000
  C   C51       1.0  0.78913  0.97132  0.33683  1.0000
  C   C52       1.0  0.81079  0.01462  0.33681  1.0000
  H   H39       1.0  0.79080  0.97465  0.19548  1.0000
  H   H40       1.0  0.80911  0.01128  0.19546  1.0000
  C   C53       1.0  0.98770  0.78913  0.25534  1.0000
  C   C54       1.0  0.97677  0.78368  0.33681  1.0000
  H   H41       1.0  0.98011  0.78534  0.19547  1.0000
  C   C55       1.0  0.79459  0.79986  0.25534  1.0000
  C   C56       1.0  0.80532  0.78913  0.25535  1.0000
  C   C57       1.0  0.81079  0.78368  0.33683  1.0000
  C   C58       1.0  0.78913  0.80533  0.33681  1.0000
  H   H42       1.0  0.80912  0.78534  0.19548  1.0000
  H   H43       1.0  0.79080  0.80366  0.19546  1.0000
  C   C59       1.0  0.19154  0.98224  0.25534  1.0000
  C   C60       1.0  0.20227  0.00370  0.25535  1.0000
  C   C61       1.0  0.20772  0.01463  0.33683  1.0000
  C   C62       1.0  0.18607  0.97132  0.33681  1.0000
  H   H44       1.0  0.20606  0.01129  0.19548  1.0000
  H   H45       1.0  0.18774  0.97466  0.19547  1.0000
  C   C63       1.0  0.98769  0.18608  0.25535  1.0000
  C   C64       1.0  0.97677  0.18061  0.33683  1.0000
  H   H46       1.0  0.98011  0.18228  0.19548  1.0000
  C   C65       1.0  0.21047  0.60828  0.25538  1.0000
  C   C66       1.0  0.21045  0.58969  0.25542  1.0000
  C   C67       1.0  0.21111  0.58055  0.33691  1.0000
  C   C68       1.0  0.21109  0.61807  0.33682  1.0000
  H   H47       1.0  0.21278  0.58444  0.19597  1.0000
  H   H48       1.0  0.21277  0.61583  0.19584  1.0000
  C   C69       1.0  0.38311  0.58971  0.25538  1.0000
  C   C70       1.0  0.40172  0.60825  0.25526  1.0000
  C   C71       1.0  0.41087  0.61808  0.33660  1.0000
  C   C72       1.0  0.37330  0.58054  0.33679  1.0000
  H   H49       1.0  0.40699  0.61577  0.19568  1.0000
  H   H50       1.0  0.37558  0.58439  0.19585  1.0000
  C   C73       1.0  0.40175  0.78102  0.25522  1.0000
  C   C74       1.0  0.38317  0.78100  0.25528  1.0000
  C   C75       1.0  0.37331  0.78027  0.33669  1.0000
  C   C76       1.0  0.41088  0.78032  0.33666  1.0000
  H   H51       1.0  0.37559  0.77868  0.19583  1.0000
  H   H52       1.0  0.40701  0.77869  0.19576  1.0000
  C   C77       1.0  0.78644  0.37771  0.25520  1.0000
  C   C78       1.0  0.78648  0.39630  0.25519  1.0000
  C   C79       1.0  0.78577  0.40540  0.33667  1.0000
  C   C80       1.0  0.78574  0.36787  0.33658  1.0000
  H   H53       1.0  0.78416  0.40157  0.19575  1.0000
  H   H54       1.0  0.78415  0.37016  0.19566  1.0000
  C   C81       1.0  0.61374  0.39623  0.25544  1.0000
  C   C82       1.0  0.59515  0.37767  0.25536  1.0000
  C   C83       1.0  0.58600  0.36788  0.33682  1.0000
  C   C84       1.0  0.62354  0.40539  0.33690  1.0000
  H   H55       1.0  0.58989  0.37009  0.19589  1.0000
  H   H56       1.0  0.62129  0.40148  0.19591  1.0000
  C   C85       1.0  0.59518  0.20505  0.25540  1.0000
  C   C86       1.0  0.61372  0.20498  0.25527  1.0000
  C   C87       1.0  0.62352  0.20563  0.33668  1.0000
  C   C88       1.0  0.58601  0.20566  0.33686  1.0000
  H   H57       1.0  0.62125  0.20726  0.19572  1.0000
  H   H58       1.0  0.58986  0.20728  0.19589  1.0000
  C   C89       1.0  0.15170  0.26801  0.33733  1.0000
  C   C90       1.0  0.15306  0.30224  0.33740  1.0000
  C   C91       1.0  0.17481  0.31408  0.33741  1.0000
  C   C92       1.0  0.18563  0.33554  0.33750  1.0000
  C   C93       1.0  0.17520  0.34652  0.33757  1.0000
  C   C94       1.0  0.15379  0.33554  0.33753  1.0000
  C   C95       1.0  0.15309  0.23515  0.33708  1.0000
  C   C96       1.0  0.17484  0.24507  0.33697  1.0000
  C   C97       1.0  0.18568  0.23445  0.33688  1.0000
  C   C98       1.0  0.17527  0.21303  0.33686  1.0000
  C   C99       1.0  0.15385  0.20259  0.33697  1.0000
  H   H59       1.0  0.20129  0.24250  0.33682  1.0000
  H   H60       1.0  0.18373  0.26049  0.33692  1.0000
  H   H61       1.0  0.20124  0.34311  0.33750  1.0000
  H   H62       1.0  0.18371  0.30756  0.33733  1.0000
  H   H63       1.0  0.16697  0.27564  0.33751  1.0000
  C   C100      1.0  0.74503  0.88297  0.33716  1.0000
  C   C101      1.0  0.72339  0.87121  0.33733  1.0000
  C   C102      1.0  0.71163  0.84957  0.33733  1.0000
  C   C103      1.0  0.72339  0.83970  0.33727  1.0000
  C   C104      1.0  0.74503  0.84957  0.33713  1.0000
  C   C105      1.0  0.75491  0.87121  0.33702  1.0000
  C   C106      1.0  0.68916  0.83834  0.33740  1.0000
  C   C107      1.0  0.67732  0.84825  0.33741  1.0000
  C   C108      1.0  0.65586  0.83761  0.33751  1.0000
  C   C109      1.0  0.64488  0.81620  0.33757  1.0000
  C   C110      1.0  0.65586  0.80576  0.33753  1.0000
  C   C111      1.0  0.67732  0.81658  0.33744  1.0000
  C   C112      1.0  0.75625  0.90545  0.33708  1.0000
  C   C113      1.0  0.74632  0.91728  0.33697  1.0000
  C   C114      1.0  0.75695  0.93875  0.33688  1.0000
  C   C115      1.0  0.77836  0.94975  0.33686  1.0000
  C   C116      1.0  0.78880  0.93877  0.33697  1.0000
  C   C117      1.0  0.77800  0.91731  0.33710  1.0000
  C   C118      1.0  0.75625  0.83831  0.33704  1.0000
  C   C119      1.0  0.77800  0.84820  0.33705  1.0000
  C   C120      1.0  0.78881  0.83755  0.33692  1.0000
  C   C121      1.0  0.77837  0.81613  0.33682  1.0000
  C   C122      1.0  0.75695  0.80572  0.33686  1.0000
  C   C123      1.0  0.74633  0.81656  0.33695  1.0000
  H   H64       1.0  0.74890  0.94630  0.33683  1.0000
  H   H65       1.0  0.73091  0.91075  0.33692  1.0000
  H   H66       1.0  0.80441  0.94635  0.33700  1.0000
  H   H67       1.0  0.78690  0.91079  0.33724  1.0000
  H   H68       1.0  0.78690  0.86362  0.33718  1.0000
  H   H69       1.0  0.80441  0.84558  0.33694  1.0000
  H   H70       1.0  0.73091  0.80767  0.33693  1.0000
  H   H71       1.0  0.74890  0.79011  0.33682  1.0000
  H   H72       1.0  0.68384  0.80769  0.33740  1.0000
  H   H73       1.0  0.64829  0.79016  0.33754  1.0000
  H   H74       1.0  0.64829  0.84565  0.33751  1.0000
  H   H75       1.0  0.68384  0.86366  0.33733  1.0000
  H   H76       1.0  0.71576  0.87884  0.33751  1.0000
  H   H77       1.0  0.77018  0.87885  0.33677  1.0000
  H   H78       1.0  0.71576  0.82443  0.33736  1.0000
  C   C124      1.0  0.15170  0.87121  0.33727  1.0000
  C   C125      1.0  0.15306  0.83834  0.33741  1.0000
  C   C126      1.0  0.15379  0.80576  0.33751  1.0000
  C   C127      1.0  0.17520  0.81620  0.33757  1.0000
  C   C128      1.0  0.18564  0.83761  0.33753  1.0000
  C   C129      1.0  0.17482  0.84825  0.33744  1.0000
  C   C130      1.0  0.15309  0.90545  0.33704  1.0000
  C   C131      1.0  0.15385  0.93877  0.33692  1.0000
  C   C132      1.0  0.17527  0.94975  0.33682  1.0000
  C   C133      1.0  0.18568  0.93875  0.33686  1.0000
  C   C134      1.0  0.17484  0.91729  0.33694  1.0000
  H   H79       1.0  0.18373  0.91076  0.33693  1.0000
  H   H80       1.0  0.20129  0.94630  0.33682  1.0000
  H   H81       1.0  0.18371  0.86367  0.33740  1.0000
  H   H82       1.0  0.20124  0.84565  0.33754  1.0000
  H   H83       1.0  0.16697  0.87884  0.33736  1.0000
  C   C135      1.0  0.85503  0.73957  0.33716  1.0000
  C   C136      1.0  0.84515  0.71793  0.33733  1.0000
  C   C137      1.0  0.85503  0.70617  0.33733  1.0000
  C   C138      1.0  0.87667  0.71793  0.33727  1.0000
  C   C139      1.0  0.88843  0.73957  0.33713  1.0000
  C   C140      1.0  0.87667  0.74945  0.33702  1.0000
  C   C141      1.0  0.84379  0.68370  0.33740  1.0000
  C   C142      1.0  0.82204  0.67186  0.33741  1.0000
  C   C143      1.0  0.81122  0.65040  0.33751  1.0000
  C   C144      1.0  0.82165  0.63942  0.33757  1.0000
  C   C145      1.0  0.84307  0.65040  0.33752  1.0000
  C   C146      1.0  0.85371  0.67186  0.33744  1.0000
  C   C147      1.0  0.84377  0.75079  0.33708  1.0000
  C   C148      1.0  0.82201  0.74087  0.33697  1.0000
  C   C149      1.0  0.81118  0.75149  0.33688  1.0000
  C   C150      1.0  0.82159  0.77291  0.33686  1.0000
  C   C151      1.0  0.84300  0.78335  0.33697  1.0000
  C   C152      1.0  0.85366  0.77254  0.33710  1.0000
  C   C153      1.0  0.91091  0.75079  0.33704  1.0000
  C   C154      1.0  0.92276  0.77254  0.33705  1.0000
  C   C155      1.0  0.94423  0.78335  0.33692  1.0000
  C   C156      1.0  0.95521  0.77291  0.33682  1.0000
  C   C157      1.0  0.94420  0.75149  0.33686  1.0000
  C   C158      1.0  0.92274  0.74087  0.33694  1.0000
  H   H84       1.0  0.79557  0.74344  0.33683  1.0000
  H   H85       1.0  0.81313  0.72545  0.33692  1.0000
  H   H86       1.0  0.85103  0.79895  0.33700  1.0000
  H   H87       1.0  0.86907  0.78144  0.33724  1.0000
  H   H88       1.0  0.91625  0.78144  0.33718  1.0000
  H   H89       1.0  0.95180  0.79895  0.33694  1.0000
  H   H90       1.0  0.91621  0.72545  0.33693  1.0000
  H   H91       1.0  0.95176  0.74344  0.33682  1.0000
  H   H92       1.0  0.86912  0.67838  0.33740  1.0000
  H   H93       1.0  0.85111  0.64284  0.33754  1.0000
  H   H94       1.0  0.79561  0.64283  0.33751  1.0000
  H   H95       1.0  0.81315  0.67838  0.33734  1.0000
  H   H96       1.0  0.82988  0.71030  0.33750  1.0000
  H   H97       1.0  0.88430  0.76472  0.33677  1.0000
  H   H98       1.0  0.88430  0.71030  0.33736  1.0000
  C   C159      1.0  0.25183  0.10297  0.33715  1.0000
  C   C160      1.0  0.27347  0.11474  0.33733  1.0000
  C   C161      1.0  0.28523  0.13637  0.33733  1.0000
  C   C162      1.0  0.27346  0.14625  0.33727  1.0000
  C   C163      1.0  0.25183  0.13637  0.33713  1.0000
  C   C164      1.0  0.24195  0.11473  0.33702  1.0000
  C   C165      1.0  0.30770  0.14761  0.33740  1.0000
  C   C166      1.0  0.31954  0.13769  0.33741  1.0000
  C   C167      1.0  0.34100  0.14833  0.33751  1.0000
  C   C168      1.0  0.35198  0.16975  0.33757  1.0000
  C   C169      1.0  0.34100  0.18018  0.33752  1.0000
  C   C170      1.0  0.31954  0.16936  0.33744  1.0000
  C   C171      1.0  0.24061  0.08049  0.33708  1.0000
  C   C172      1.0  0.25053  0.06866  0.33697  1.0000
  C   C173      1.0  0.23991  0.04720  0.33688  1.0000
  C   C174      1.0  0.21849  0.03619  0.33686  1.0000
  C   C175      1.0  0.20805  0.04717  0.33697  1.0000
  C   C176      1.0  0.21886  0.06864  0.33710  1.0000
  C   C177      1.0  0.24061  0.14763  0.33704  1.0000
  C   C178      1.0  0.21886  0.13774  0.33705  1.0000
  C   C179      1.0  0.20805  0.14839  0.33692  1.0000
  C   C180      1.0  0.21849  0.16981  0.33682  1.0000
  C   C181      1.0  0.23991  0.18022  0.33686  1.0000
  C   C182      1.0  0.25053  0.16939  0.33694  1.0000
  H   H99       1.0  0.24796  0.03964  0.33683  1.0000
  H   H100      1.0  0.26595  0.07519  0.33692  1.0000
  H   H101      1.0  0.19244  0.03959  0.33700  1.0000
  H   H102      1.0  0.20996  0.07515  0.33724  1.0000
  H   H103      1.0  0.20996  0.12233  0.33718  1.0000
  H   H104      1.0  0.19244  0.14036  0.33694  1.0000
  H   H105      1.0  0.26595  0.17827  0.33693  1.0000
  H   H106      1.0  0.24796  0.19583  0.33681  1.0000
  H   H107      1.0  0.31302  0.17825  0.33740  1.0000
  H   H108      1.0  0.34857  0.19579  0.33754  1.0000
  H   H109      1.0  0.34857  0.14029  0.33751  1.0000
  H   H110      1.0  0.31302  0.12228  0.33734  1.0000
  H   H111      1.0  0.28110  0.10710  0.33750  1.0000
  H   H112      1.0  0.22668  0.10710  0.33677  1.0000
  H   H113      1.0  0.28110  0.16151  0.33736  1.0000
  C   C183      1.0  0.88843  0.13637  0.33715  1.0000
  C   C184      1.0  0.87667  0.14625  0.33733  1.0000
  C   C185      1.0  0.85503  0.13637  0.33733  1.0000
  C   C186      1.0  0.84515  0.11473  0.33727  1.0000
  C   C187      1.0  0.85502  0.10297  0.33713  1.0000
  C   C188      1.0  0.87667  0.11473  0.33702  1.0000
  C   C189      1.0  0.84379  0.14760  0.33740  1.0000
  C   C190      1.0  0.85371  0.16936  0.33741  1.0000
  C   C191      1.0  0.84307  0.18018  0.33751  1.0000
  C   C192      1.0  0.82165  0.16974  0.33757  1.0000
  C   C193      1.0  0.81122  0.14833  0.33753  1.0000
  C   C194      1.0  0.82204  0.13769  0.33744  1.0000
  C   C195      1.0  0.91091  0.14763  0.33708  1.0000
  C   C196      1.0  0.92274  0.16939  0.33697  1.0000
  C   C197      1.0  0.94420  0.18022  0.33688  1.0000
  C   C198      1.0  0.95521  0.16981  0.33686  1.0000
  C   C199      1.0  0.94423  0.14839  0.33698  1.0000
  C   C200      1.0  0.92276  0.13774  0.33710  1.0000
  C   C201      1.0  0.84377  0.08049  0.33704  1.0000
  C   C202      1.0  0.85366  0.06864  0.33705  1.0000
  C   C203      1.0  0.84300  0.04717  0.33692  1.0000
  C   C204      1.0  0.82159  0.03619  0.33682  1.0000
  C   C205      1.0  0.81117  0.04720  0.33686  1.0000
  C   C206      1.0  0.82201  0.06866  0.33694  1.0000
  H   H114      1.0  0.95176  0.19583  0.33683  1.0000
  H   H115      1.0  0.91621  0.17827  0.33692  1.0000
  H   H116      1.0  0.95180  0.14036  0.33700  1.0000
  H   H117      1.0  0.91625  0.12233  0.33724  1.0000
  H   H118      1.0  0.86907  0.07515  0.33718  1.0000
  H   H119      1.0  0.85103  0.03959  0.33694  1.0000
  H   H120      1.0  0.81313  0.07519  0.33693  1.0000
  H   H121      1.0  0.79557  0.03964  0.33682  1.0000
  H   H122      1.0  0.81315  0.12228  0.33740  1.0000
  H   H123      1.0  0.79561  0.14029  0.33754  1.0000
  H   H124      1.0  0.85110  0.19578  0.33751  1.0000
  H   H125      1.0  0.86912  0.17825  0.33733  1.0000
  H   H126      1.0  0.88430  0.16151  0.33750  1.0000
  H   H127      1.0  0.88430  0.10710  0.33677  1.0000
  H   H128      1.0  0.82988  0.10710  0.33736  1.0000
  C   C207      1.0  0.25170  0.53295  0.33682  1.0000
  C   C208      1.0  0.24176  0.51134  0.33797  1.0000
  C   C209      1.0  0.25174  0.49962  0.33779  1.0000
  C   C210      1.0  0.27344  0.51134  0.33803  1.0000
  C   C211      1.0  0.28512  0.53295  0.33686  1.0000
  C   C212      1.0  0.27326  0.54265  0.33502  1.0000
  C   C213      1.0  0.24052  0.47717  0.33775  1.0000
  C   C214      1.0  0.21876  0.46533  0.33756  1.0000
  C   C215      1.0  0.20794  0.44388  0.33757  1.0000
  C   C216      1.0  0.21838  0.43290  0.33763  1.0000
  C   C217      1.0  0.23980  0.44388  0.33755  1.0000
  C   C218      1.0  0.25044  0.46534  0.33753  1.0000
  C   C219      1.0  0.24091  0.54462  0.33685  1.0000
  C   C220      1.0  0.21921  0.53534  0.33644  1.0000
  C   C221      1.0  0.20901  0.54667  0.33654  1.0000
  C   C222      1.0  0.22015  0.56810  0.33676  1.0000
  C   C223      1.0  0.24154  0.57780  0.33740  1.0000
  C   C224      1.0  0.25146  0.56639  0.33787  1.0000
  C   C225      1.0  0.30757  0.54461  0.33690  1.0000
  C   C226      1.0  0.31879  0.56638  0.33792  1.0000
  C   C227      1.0  0.34013  0.57779  0.33742  1.0000
  C   C228      1.0  0.35181  0.56809  0.33676  1.0000
  C   C229      1.0  0.34152  0.54666  0.33654  1.0000
  C   C230      1.0  0.32000  0.53533  0.33646  1.0000
  H   H129      1.0  0.19342  0.53919  0.33632  1.0000
  H   H130      1.0  0.21003  0.51994  0.33595  1.0000
  H   H131      1.0  0.25017  0.59340  0.33799  1.0000
  H   H132      1.0  0.26687  0.57503  0.33966  1.0000
  H   H133      1.0  0.31203  0.57502  0.33975  1.0000
  H   H134      1.0  0.34710  0.59339  0.33800  1.0000
  H   H135      1.0  0.31377  0.51993  0.33595  1.0000
  H   H136      1.0  0.34964  0.53918  0.33628  1.0000
  H   H137      1.0  0.26585  0.47187  0.33731  1.0000
  H   H138      1.0  0.24784  0.43631  0.33746  1.0000
  H   H139      1.0  0.19234  0.43631  0.33750  1.0000
  H   H140      1.0  0.20988  0.47187  0.33738  1.0000
  H   H141      1.0  0.22644  0.50385  0.33891  1.0000
  H   H142      1.0  0.28081  0.55776  0.33010  1.0000
  H   H143      1.0  0.28126  0.50385  0.33905  1.0000
  C   C231      1.0  0.45845  0.70627  0.33707  1.0000
  C   C232      1.0  0.48006  0.71795  0.33779  1.0000
  C   C233      1.0  0.49178  0.73965  0.33762  1.0000
  C   C234      1.0  0.48006  0.74963  0.33769  1.0000
  C   C235      1.0  0.45845  0.73970  0.33702  1.0000
  C   C236      1.0  0.44875  0.71813  0.33595  1.0000
  C   C237      1.0  0.51423  0.75088  0.33761  1.0000
  C   C238      1.0  0.52606  0.74096  0.33749  1.0000
  C   C239      1.0  0.54752  0.75159  0.33753  1.0000
  C   C240      1.0  0.55850  0.77301  0.33762  1.0000
  C   C241      1.0  0.54752  0.78345  0.33757  1.0000
  C   C242      1.0  0.52606  0.77263  0.33753  1.0000
  C   C243      1.0  0.44678  0.68381  0.33707  1.0000
  C   C244      1.0  0.45607  0.67139  0.33672  1.0000
  C   C245      1.0  0.44474  0.64987  0.33670  1.0000
  C   C246      1.0  0.42331  0.63957  0.33686  1.0000
  C   C247      1.0  0.41361  0.65125  0.33730  1.0000
  C   C248      1.0  0.42501  0.67259  0.33769  1.0000
  C   C249      1.0  0.44678  0.75049  0.33700  1.0000
  C   C250      1.0  0.42501  0.73994  0.33757  1.0000
  C   C251      1.0  0.41361  0.74988  0.33721  1.0000
  C   C252      1.0  0.42331  0.77126  0.33681  1.0000
  C   C253      1.0  0.44474  0.78239  0.33670  1.0000
  C   C254      1.0  0.45606  0.77219  0.33672  1.0000
  H   H144      1.0  0.45223  0.64176  0.33644  1.0000
  H   H145      1.0  0.47147  0.67762  0.33637  1.0000
  H   H146      1.0  0.39801  0.64428  0.33759  1.0000
  H   H147      1.0  0.41635  0.67934  0.33881  1.0000
  H   H148      1.0  0.41635  0.72454  0.33866  1.0000
  H   H149      1.0  0.39801  0.74126  0.33751  1.0000
  H   H150      1.0  0.47147  0.78136  0.33644  1.0000
  H   H151      1.0  0.45222  0.79799  0.33650  1.0000
  H   H152      1.0  0.51953  0.78151  0.33743  1.0000
  H   H153      1.0  0.55509  0.79905  0.33754  1.0000
  H   H154      1.0  0.55509  0.74355  0.33747  1.0000
  H   H155      1.0  0.51953  0.72554  0.33731  1.0000
  H   H156      1.0  0.48755  0.71013  0.33844  1.0000
  H   H157      1.0  0.43362  0.71057  0.33302  1.0000
  H   H158      1.0  0.48755  0.76495  0.33822  1.0000
  C   C255      1.0  0.28513  0.73969  0.33699  1.0000
  C   C256      1.0  0.27346  0.74963  0.33797  1.0000
  C   C257      1.0  0.25175  0.73965  0.33770  1.0000
  C   C258      1.0  0.24177  0.71794  0.33776  1.0000
  C   C259      1.0  0.25170  0.70626  0.33688  1.0000
  C   C260      1.0  0.27327  0.71813  0.33547  1.0000
  C   C261      1.0  0.24053  0.75087  0.33768  1.0000
  C   C262      1.0  0.25045  0.77262  0.33747  1.0000
  C   C263      1.0  0.23981  0.78344  0.33751  1.0000
  C   C264      1.0  0.21840  0.77301  0.33763  1.0000
  C   C265      1.0  0.20796  0.75159  0.33759  1.0000
  C   C266      1.0  0.21878  0.74096  0.33758  1.0000
  C   C267      1.0  0.30759  0.75048  0.33702  1.0000
  C   C268      1.0  0.32002  0.77218  0.33658  1.0000
  C   C269      1.0  0.34154  0.78238  0.33661  1.0000
  C   C270      1.0  0.35183  0.77123  0.33686  1.0000
  C   C271      1.0  0.34014  0.74985  0.33743  1.0000
  C   C272      1.0  0.31881  0.73992  0.33789  1.0000
  C   C273      1.0  0.24092  0.68381  0.33686  1.0000
  C   C274      1.0  0.25146  0.67259  0.33761  1.0000
  C   C275      1.0  0.24153  0.65125  0.33721  1.0000
  C   C276      1.0  0.22015  0.63957  0.33672  1.0000
  C   C277      1.0  0.20901  0.64986  0.33661  1.0000
  C   C278      1.0  0.21921  0.67139  0.33656  1.0000
  H   H159      1.0  0.34965  0.79797  0.33630  1.0000
  H   H160      1.0  0.31379  0.78136  0.33608  1.0000
  H   H161      1.0  0.34711  0.74122  0.33787  1.0000
  H   H162      1.0  0.31205  0.72452  0.33938  1.0000
  H   H163      1.0  0.26687  0.67934  0.33901  1.0000
  H   H164      1.0  0.25016  0.64428  0.33765  1.0000
  H   H165      1.0  0.21004  0.67761  0.33624  1.0000
  H   H166      1.0  0.19342  0.64175  0.33645  1.0000
  H   H167      1.0  0.20989  0.72554  0.33749  1.0000
  H   H168      1.0  0.19235  0.74355  0.33757  1.0000
  H   H169      1.0  0.24785  0.79905  0.33742  1.0000
  H   H170      1.0  0.26586  0.78151  0.33723  1.0000
  H   H171      1.0  0.28128  0.76494  0.33891  1.0000
  H   H172      1.0  0.28082  0.71057  0.33156  1.0000
  H   H173      1.0  0.22646  0.71012  0.33839  1.0000
  C   C279      1.0  0.74516  0.45298  0.33698  1.0000
  C   C280      1.0  0.75509  0.47459  0.33805  1.0000
  C   C281      1.0  0.74511  0.48632  0.33773  1.0000
  C   C282      1.0  0.72340  0.47459  0.33778  1.0000
  C   C283      1.0  0.71173  0.45298  0.33683  1.0000
  C   C284      1.0  0.72359  0.44328  0.33531  1.0000
  C   C285      1.0  0.75633  0.50877  0.33771  1.0000
  C   C286      1.0  0.77808  0.52060  0.33747  1.0000
  C   C287      1.0  0.78890  0.54206  0.33750  1.0000
  C   C288      1.0  0.77847  0.55304  0.33763  1.0000
  C   C289      1.0  0.75705  0.54206  0.33761  1.0000
  C   C290      1.0  0.74642  0.52060  0.33761  1.0000
  C   C291      1.0  0.75594  0.44131  0.33703  1.0000
  C   C292      1.0  0.77765  0.45060  0.33656  1.0000
  C   C293      1.0  0.78785  0.43927  0.33660  1.0000
  C   C294      1.0  0.77671  0.41784  0.33686  1.0000
  C   C295      1.0  0.75533  0.40814  0.33748  1.0000
  C   C296      1.0  0.74539  0.41954  0.33798  1.0000
  C   C297      1.0  0.68928  0.44131  0.33682  1.0000
  C   C298      1.0  0.67805  0.41954  0.33765  1.0000
  C   C299      1.0  0.65672  0.40814  0.33725  1.0000
  C   C300      1.0  0.64503  0.41783  0.33672  1.0000
  C   C301      1.0  0.65532  0.43927  0.33658  1.0000
  C   C302      1.0  0.67685  0.45059  0.33650  1.0000
  H   H174      1.0  0.80344  0.44675  0.33626  1.0000
  H   H175      1.0  0.78682  0.46600  0.33601  1.0000
  H   H176      1.0  0.74670  0.39254  0.33798  1.0000
  H   H177      1.0  0.72999  0.41090  0.33960  1.0000
  H   H178      1.0  0.68481  0.41090  0.33917  1.0000
  H   H179      1.0  0.64975  0.39254  0.33774  1.0000
  H   H180      1.0  0.68308  0.46600  0.33615  1.0000
  H   H181      1.0  0.64721  0.44675  0.33642  1.0000
  H   H182      1.0  0.73100  0.51406  0.33752  1.0000
  H   H183      1.0  0.74901  0.54962  0.33759  1.0000
  H   H184      1.0  0.80451  0.54963  0.33739  1.0000
  H   H185      1.0  0.78697  0.51407  0.33719  1.0000
  H   H186      1.0  0.77040  0.48209  0.33910  1.0000
  H   H187      1.0  0.71604  0.42817  0.33106  1.0000
  H   H188      1.0  0.71559  0.48209  0.33844  1.0000
  C   C303      1.0  0.53841  0.27969  0.33686  1.0000
  C   C304      1.0  0.51680  0.26801  0.33802  1.0000
  C   C305      1.0  0.50508  0.24630  0.33778  1.0000
  C   C306      1.0  0.51680  0.23632  0.33796  1.0000
  C   C307      1.0  0.53841  0.24626  0.33683  1.0000
  C   C308      1.0  0.54812  0.26782  0.33505  1.0000
  C   C309      1.0  0.48263  0.23508  0.33774  1.0000
  C   C310      1.0  0.47080  0.24500  0.33753  1.0000
  C   C311      1.0  0.44934  0.23436  0.33754  1.0000
  C   C312      1.0  0.43836  0.21294  0.33763  1.0000
  C   C313      1.0  0.44934  0.20251  0.33757  1.0000
  C   C314      1.0  0.47080  0.21333  0.33756  1.0000
  C   C315      1.0  0.55008  0.30214  0.33689  1.0000
  C   C316      1.0  0.54080  0.31456  0.33646  1.0000
  C   C317      1.0  0.55213  0.33609  0.33654  1.0000
  C   C318      1.0  0.57356  0.34638  0.33676  1.0000
  C   C319      1.0  0.58326  0.33469  0.33740  1.0000
  C   C320      1.0  0.57185  0.31336  0.33788  1.0000
  C   C321      1.0  0.55008  0.23547  0.33685  1.0000
  C   C322      1.0  0.57185  0.24602  0.33783  1.0000
  C   C323      1.0  0.58326  0.23609  0.33736  1.0000
  C   C324      1.0  0.57356  0.21471  0.33674  1.0000
  C   C325      1.0  0.55213  0.20357  0.33655  1.0000
  C   C326      1.0  0.54080  0.21377  0.33645  1.0000
  H   H189      1.0  0.54465  0.34420  0.33629  1.0000
  H   H190      1.0  0.52540  0.30834  0.33596  1.0000
  H   H191      1.0  0.59885  0.34167  0.33797  1.0000
  H   H192      1.0  0.58049  0.30660  0.33968  1.0000
  H   H193      1.0  0.58049  0.26143  0.33959  1.0000
  H   H194      1.0  0.59886  0.24472  0.33794  1.0000
  H   H195      1.0  0.52540  0.20459  0.33599  1.0000
  H   H196      1.0  0.54465  0.18798  0.33633  1.0000
  H   H197      1.0  0.47733  0.20445  0.33739  1.0000
  H   H198      1.0  0.44177  0.18690  0.33751  1.0000
  H   H199      1.0  0.44177  0.24240  0.33746  1.0000
  H   H200      1.0  0.47733  0.26041  0.33731  1.0000
  H   H201      1.0  0.50931  0.27583  0.33901  1.0000
  H   H202      1.0  0.56322  0.27538  0.33026  1.0000
  H   H203      1.0  0.50931  0.22101  0.33887  1.0000
  C   C327      1.0  0.71172  0.24624  0.33703  1.0000
  C   C328      1.0  0.72339  0.23631  0.33772  1.0000
  C   C329      1.0  0.74510  0.24629  0.33762  1.0000
  C   C330      1.0  0.75508  0.26800  0.33777  1.0000
  C   C331      1.0  0.74515  0.27968  0.33705  1.0000
  C   C332      1.0  0.72358  0.26781  0.33594  1.0000
  C   C333      1.0  0.75633  0.23507  0.33762  1.0000
  C   C334      1.0  0.74641  0.21332  0.33752  1.0000
  C   C335      1.0  0.75704  0.20250  0.33756  1.0000
  C   C336      1.0  0.77846  0.21294  0.33762  1.0000
  C   C337      1.0  0.78890  0.23435  0.33754  1.0000
  C   C338      1.0  0.77808  0.24499  0.33750  1.0000
  C   C339      1.0  0.68926  0.23546  0.33701  1.0000
  C   C340      1.0  0.67684  0.21375  0.33671  1.0000
  C   C341      1.0  0.65531  0.20355  0.33670  1.0000
  C   C342      1.0  0.64502  0.21469  0.33682  1.0000
  C   C343      1.0  0.65670  0.23608  0.33724  1.0000
  C   C344      1.0  0.67804  0.24601  0.33761  1.0000
  C   C345      1.0  0.75593  0.30213  0.33705  1.0000
  C   C346      1.0  0.74538  0.31336  0.33765  1.0000
  C   C347      1.0  0.75531  0.33469  0.33726  1.0000
  C   C348      1.0  0.77669  0.34637  0.33684  1.0000
  C   C349      1.0  0.78783  0.33609  0.33669  1.0000
  C   C350      1.0  0.77764  0.31456  0.33672  1.0000
  H   H204      1.0  0.64720  0.18796  0.33649  1.0000
  H   H205      1.0  0.68307  0.20458  0.33641  1.0000
  H   H206      1.0  0.64973  0.24470  0.33756  1.0000
  H   H207      1.0  0.68478  0.26141  0.33874  1.0000
  H   H208      1.0  0.72998  0.30660  0.33877  1.0000
  H   H209      1.0  0.74668  0.34166  0.33755  1.0000
  H   H210      1.0  0.78681  0.30833  0.33638  1.0000
  H   H211      1.0  0.80342  0.34420  0.33644  1.0000
  H   H212      1.0  0.78696  0.26040  0.33735  1.0000
  H   H213      1.0  0.80450  0.24239  0.33749  1.0000
  H   H214      1.0  0.74901  0.18689  0.33753  1.0000
  H   H215      1.0  0.73099  0.20444  0.33740  1.0000
  H   H216      1.0  0.71558  0.22100  0.33828  1.0000
  H   H217      1.0  0.71602  0.27537  0.33296  1.0000
  H   H218      1.0  0.77040  0.27582  0.33839  1.0000
  C   C351      1.0  0.20215  0.40043  0.41912  1.0000
  C   C352      1.0  0.19143  0.37898  0.41910  1.0000
  C   C353      1.0  0.18598  0.36807  0.33760  1.0000
  C   C354      1.0  0.20761  0.41135  0.33762  1.0000
  H   H219      1.0  0.18763  0.37139  0.47897  1.0000
  H   H220      1.0  0.20595  0.40802  0.47899  1.0000
  C   C355      1.0  0.59096  0.78924  0.41912  1.0000
  C   C356      1.0  0.61242  0.79997  0.41910  1.0000
  C   C357      1.0  0.62333  0.80542  0.33760  1.0000
  C   C358      1.0  0.58005  0.78378  0.33762  1.0000
  H   H221      1.0  0.62001  0.80376  0.47897  1.0000
  H   H222      1.0  0.58338  0.78544  0.47899  1.0000
  C   C359      1.0  0.20216  0.78924  0.41912  1.0000
  C   C360      1.0  0.19143  0.79997  0.41910  1.0000
  C   C361      1.0  0.18598  0.80542  0.33760  1.0000
  C   C362      1.0  0.20762  0.78379  0.33762  1.0000
  H   H223      1.0  0.18764  0.80376  0.47897  1.0000
  H   H224      1.0  0.20596  0.78545  0.47899  1.0000
  C   C363      1.0  0.79470  0.58550  0.41912  1.0000
  C   C364      1.0  0.80542  0.60696  0.41910  1.0000
  C   C365      1.0  0.81088  0.61787  0.33760  1.0000
  C   C366      1.0  0.78924  0.57459  0.33762  1.0000
  H   H225      1.0  0.80922  0.61455  0.47897  1.0000
  H   H226      1.0  0.79090  0.57791  0.47899  1.0000
  C   C367      1.0  0.40590  0.19671  0.41912  1.0000
  C   C368      1.0  0.38444  0.18598  0.41910  1.0000
  C   C369      1.0  0.37353  0.18052  0.33760  1.0000
  C   C370      1.0  0.41681  0.20217  0.33762  1.0000
  H   H227      1.0  0.37685  0.18218  0.47897  1.0000
  H   H228      1.0  0.41348  0.20050  0.47899  1.0000
  C   C371      1.0  0.79469  0.19670  0.41912  1.0000
  C   C372      1.0  0.80542  0.18597  0.41910  1.0000
  C   C373      1.0  0.81087  0.18052  0.33760  1.0000
  C   C374      1.0  0.78924  0.20216  0.33762  1.0000
  H   H229      1.0  0.80921  0.18218  0.47897  1.0000
  H   H230      1.0  0.79090  0.20050  0.47898  1.0000
  C   C375      1.0  0.19154  0.19681  0.41830  1.0000
  C   C376      1.0  0.20227  0.18608  0.41829  1.0000
  H   H231      1.0  0.18774  0.20060  0.47818  1.0000
  H   H232      1.0  0.20606  0.18228  0.47816  1.0000
  C   C377      1.0  0.79459  0.98224  0.41830  1.0000
  C   C378      1.0  0.80532  0.00370  0.41829  1.0000
  H   H233      1.0  0.79080  0.97466  0.47818  1.0000
  H   H234      1.0  0.80912  0.01129  0.47816  1.0000
  C   C379      1.0  0.98770  0.78913  0.41829  1.0000
  H   H235      1.0  0.98011  0.78534  0.47816  1.0000
  C   C380      1.0  0.80532  0.78913  0.41830  1.0000
  C   C381      1.0  0.79459  0.79986  0.41829  1.0000
  H   H236      1.0  0.80911  0.78534  0.47818  1.0000
  H   H237      1.0  0.79080  0.80366  0.47816  1.0000
  C   C382      1.0  0.20227  0.00370  0.41830  1.0000
  C   C383      1.0  0.19153  0.98224  0.41829  1.0000
  H   H238      1.0  0.20606  0.01128  0.47818  1.0000
  H   H239      1.0  0.18774  0.97465  0.47816  1.0000
  C   C384      1.0  0.98770  0.18608  0.41830  1.0000
  H   H240      1.0  0.98012  0.18229  0.47818  1.0000
  C   C385      1.0  0.21035  0.58966  0.41829  1.0000
  C   C386      1.0  0.21038  0.60825  0.41825  1.0000
  H   H241      1.0  0.21255  0.58433  0.47782  1.0000
  H   H242      1.0  0.21253  0.61576  0.47779  1.0000
  C   C387      1.0  0.40173  0.60826  0.41804  1.0000
  C   C388      1.0  0.38319  0.58965  0.41815  1.0000
  H   H243      1.0  0.40706  0.61577  0.47762  1.0000
  H   H244      1.0  0.37565  0.58437  0.47768  1.0000
  C   C389      1.0  0.38317  0.78097  0.41806  1.0000
  C   C390      1.0  0.40179  0.78106  0.41815  1.0000
  H   H245      1.0  0.37566  0.77876  0.47765  1.0000
  H   H246      1.0  0.40707  0.77878  0.47764  1.0000
  C   C391      1.0  0.78650  0.39630  0.41814  1.0000
  C   C392      1.0  0.78645  0.37770  0.41804  1.0000
  H   H247      1.0  0.78419  0.40154  0.47767  1.0000
  H   H248      1.0  0.78419  0.37016  0.47759  1.0000
  C   C393      1.0  0.59509  0.37771  0.41828  1.0000
  C   C394      1.0  0.61368  0.39626  0.41826  1.0000
  H   H249      1.0  0.58974  0.37018  0.47779  1.0000
  H   H250      1.0  0.62119  0.40161  0.47782  1.0000
  C   C395      1.0  0.61371  0.20495  0.41815  1.0000
  C   C396      1.0  0.59510  0.20488  0.41825  1.0000
  H   H251      1.0  0.62122  0.20713  0.47771  1.0000
  H   H252      1.0  0.58982  0.20714  0.47777  1.0000
