data_image0
_chemical_formula_structural       C7H5C2NC3H3OCNC2NCHC6SiC11H11NCHC2H3OC7H5C2NC3H3OCNC2NCHC6SiC11H11NCHC2H3OC7H5C2NC3H3OCNC2NCHC6SiC11H11NCHC2H3OC7H5C2NC3H3OCNC2NCHC6SiC11H11NCHC2H3OC7H5C2NC3H3OCNC2NCHC6SiC11H11NCHC2H3OC7H5C2NC3H3OCNC2NCHC6SiC11H11NCHC2H3OC7H5C2NC3H3OCNC2NCHC6SiC11H11NCHC2H3OC7H5C2NC3H3OCNC2NCHC6SiC11H11NCHC2H3OC7H5C2NC3H3OCNC2NCHC6SiC11H11NCHC2H3O
_chemical_formula_sum              "C324 H216 N36 O18 Si9"
_cell_length_a       36.1459
_cell_length_b       36.1464
_cell_length_c       15.0561
_cell_angle_alpha    90
_cell_angle_beta     90
_cell_angle_gamma    90.0702

_space_group_name_H-M_alt    "P 1"
_space_group_IT_number       1

loop_
  _space_group_symop_operation_xyz
  'x, y, z'

loop_
  _atom_site_type_symbol
  _atom_site_label
  _atom_site_symmetry_multiplicity
  _atom_site_fract_x
  _atom_site_fract_y
  _atom_site_fract_z
  _atom_site_occupancy
  C   C1        1.0  0.08887  0.03226  0.00011  1.0000
  C   C2        1.0  0.10708  0.33265  0.02507  1.0000
  C   C3        1.0  0.08980  0.29853  0.00537  1.0000
  C   C4        1.0  0.26104  0.28331  0.06335  1.0000
  C   C5        1.0  0.25374  0.98070  0.11916  1.0000
  C   C6        1.0  0.27950  0.01017  0.11949  1.0000
  C   C7        1.0  0.30459  0.01375  0.04872  1.0000
  H   H1        1.0  0.09969  0.05754  0.01660  1.0000
  H   H2        1.0  0.10194  0.27401  0.02295  1.0000
  H   H3        1.0  0.24239  0.26198  0.05950  1.0000
  H   H4        1.0  0.27390  0.03345  0.15598  1.0000
  H   H5        1.0  0.31840  0.03840  0.04283  1.0000
  C   C8        1.0  0.95637  0.20892  0.33336  1.0000
  C   C9        1.0  0.28546  0.13352  0.37296  1.0000
  N   N1        1.0  0.29999  0.14604  0.29475  1.0000
  C   C10       1.0  0.96863  0.18240  0.27057  1.0000
  C   C11       1.0  0.98071  0.19160  0.18608  1.0000
  C   C12       1.0  0.01828  0.20395  0.16968  1.0000
  H   H6        1.0  0.35360  0.23356  0.18297  1.0000
  H   H7        1.0  0.02639  0.19949  0.10053  1.0000
  H   H8        1.0  0.03790  0.18926  0.21193  1.0000
  O   O1        1.0  0.96410  0.17688  0.12461  1.0000
  C   C13       1.0  0.14327  0.00009  0.06164  1.0000
  N   N2        1.0  0.15244  0.97480  0.12530  1.0000
  C   C14       1.0  0.18724  0.96973  0.15701  1.0000
  C   C15       1.0  0.21608  0.99109  0.12062  1.0000
  N   N3        1.0  0.20681  0.01527  0.05537  1.0000
  C   C16       1.0  0.17225  0.02200  0.02537  1.0000
  H   H9        1.0  0.19251  0.94858  0.20026  1.0000
  C   C17       1.0  0.30161  0.24596  0.34171  1.0000
  C   C18       1.0  0.27513  0.27179  0.37164  1.0000
  C   C19       1.0  0.28451  0.29713  0.43852  1.0000
  C   C20       1.0  0.32108  0.29962  0.47242  1.0000
  C   C21       1.0  0.01535  0.27808  0.43090  1.0000
  C   C22       1.0  0.00554  0.25078  0.36867  1.0000
  Si  Si1       1.0  0.32984  0.99582  0.55462  1.0000
  C   C23       1.0  0.31747  0.03518  0.50614  1.0000
  C   C24       1.0  0.00607  0.04980  0.43647  1.0000
  C   C25       1.0  0.99434  0.08086  0.38805  1.0000
  C   C26       1.0  0.29300  0.09742  0.40542  1.0000
  C   C27       1.0  0.26972  0.08063  0.46941  1.0000
  C   C28       1.0  0.28193  0.05046  0.51989  1.0000
  C   C29       1.0  0.30592  0.98697  0.64667  1.0000
  C   C30       1.0  0.03934  0.33036  0.59422  1.0000
  C   C31       1.0  0.05580  0.03117  0.61821  1.0000
  C   C32       1.0  0.05604  0.29746  0.62583  1.0000
  C   C33       1.0  0.28658  0.28673  0.66002  1.0000
  H   H10       1.0  0.04348  0.05595  0.60386  1.0000
  H   H11       1.0  0.04394  0.27215  0.61574  1.0000
  H   H12       1.0  0.28757  0.26590  0.61408  1.0000
  H   H13       1.0  0.26397  0.03957  0.56546  1.0000
  H   H14       1.0  0.24406  0.09122  0.48279  1.0000
  H   H15       1.0  0.01228  0.09229  0.34308  1.0000
  H   H16       1.0  0.03141  0.03869  0.42154  1.0000
  H   H17       1.0  0.04234  0.27929  0.45096  1.0000
  H   H18       1.0  0.26331  0.31198  0.46610  1.0000
  H   H19       1.0  0.24757  0.26745  0.35922  1.0000
  H   H20       1.0  0.02511  0.23132  0.35336  1.0000
  N   N4        1.0  0.94147  0.19607  0.41013  1.0000
  C   C34       1.0  0.27020  0.16024  0.43048  1.0000
  H   H21       1.0  0.26148  0.15412  0.49333  1.0000
  C   C35       1.0  0.16934  0.04438  0.61748  1.0000
  C   C36       1.0  0.17169  0.02647  0.53129  1.0000
  H   H22       1.0  0.15239  0.33658  0.52692  1.0000
  H   H23       1.0  0.19962  0.01620  0.51932  1.0000
  H   H24       1.0  0.16456  0.04601  0.47869  1.0000
  O   O2        1.0  0.18468  0.07452  0.62238  1.0000
  C   C37       1.0  0.08887  0.36560  0.00011  1.0000
  C   C38       1.0  0.10708  0.66598  0.02507  1.0000
  C   C39       1.0  0.08980  0.63186  0.00537  1.0000
  C   C40       1.0  0.26104  0.61665  0.06335  1.0000
  C   C41       1.0  0.25374  0.31403  0.11916  1.0000
  C   C42       1.0  0.27950  0.34350  0.11949  1.0000
  C   C43       1.0  0.30459  0.34708  0.04872  1.0000
  H   H25       1.0  0.09969  0.39087  0.01660  1.0000
  H   H26       1.0  0.10194  0.60735  0.02295  1.0000
  H   H27       1.0  0.24239  0.59531  0.05950  1.0000
  H   H28       1.0  0.27390  0.36678  0.15598  1.0000
  H   H29       1.0  0.31840  0.37174  0.04283  1.0000
  C   C44       1.0  0.95637  0.54225  0.33336  1.0000
  C   C45       1.0  0.28546  0.46685  0.37296  1.0000
  N   N5        1.0  0.29999  0.47938  0.29475  1.0000
  C   C46       1.0  0.96863  0.51574  0.27057  1.0000
  C   C47       1.0  0.98071  0.52494  0.18608  1.0000
  C   C48       1.0  0.01828  0.53728  0.16968  1.0000
  H   H30       1.0  0.35360  0.56689  0.18297  1.0000
  H   H31       1.0  0.02639  0.53282  0.10053  1.0000
  H   H32       1.0  0.03790  0.52260  0.21193  1.0000
  O   O3        1.0  0.96409  0.51022  0.12461  1.0000
  C   C49       1.0  0.14327  0.33342  0.06164  1.0000
  N   N6        1.0  0.15244  0.30814  0.12530  1.0000
  C   C50       1.0  0.18724  0.30306  0.15701  1.0000
  C   C51       1.0  0.21608  0.32442  0.12062  1.0000
  N   N7        1.0  0.20681  0.34860  0.05537  1.0000
  C   C52       1.0  0.17225  0.35533  0.02537  1.0000
  H   H33       1.0  0.19251  0.28192  0.20026  1.0000
  C   C53       1.0  0.30161  0.57929  0.34171  1.0000
  C   C54       1.0  0.27513  0.60512  0.37164  1.0000
  C   C55       1.0  0.28451  0.63046  0.43852  1.0000
  C   C56       1.0  0.32108  0.63296  0.47242  1.0000
  C   C57       1.0  0.01535  0.61141  0.43090  1.0000
  C   C58       1.0  0.00554  0.58411  0.36867  1.0000
  Si  Si2       1.0  0.32984  0.32915  0.55462  1.0000
  C   C59       1.0  0.31747  0.36851  0.50614  1.0000
  C   C60       1.0  0.00607  0.38313  0.43647  1.0000
  C   C61       1.0  0.99433  0.41420  0.38805  1.0000
  C   C62       1.0  0.29300  0.43075  0.40542  1.0000
  C   C63       1.0  0.26972  0.41396  0.46941  1.0000
  C   C64       1.0  0.28193  0.38379  0.51989  1.0000
  C   C65       1.0  0.30592  0.32030  0.64667  1.0000
  C   C66       1.0  0.03934  0.66369  0.59422  1.0000
  C   C67       1.0  0.05580  0.36451  0.61821  1.0000
  C   C68       1.0  0.05604  0.63079  0.62583  1.0000
  C   C69       1.0  0.28658  0.62006  0.66002  1.0000
  H   H34       1.0  0.04348  0.38928  0.60386  1.0000
  H   H35       1.0  0.04394  0.60548  0.61574  1.0000
  H   H36       1.0  0.28757  0.59923  0.61408  1.0000
  H   H37       1.0  0.26397  0.37290  0.56546  1.0000
  H   H38       1.0  0.24405  0.42455  0.48278  1.0000
  H   H39       1.0  0.01228  0.42563  0.34308  1.0000
  H   H40       1.0  0.03141  0.37202  0.42154  1.0000
  H   H41       1.0  0.04234  0.61262  0.45096  1.0000
  H   H42       1.0  0.26331  0.64531  0.46610  1.0000
  H   H43       1.0  0.24757  0.60079  0.35922  1.0000
  H   H44       1.0  0.02511  0.56465  0.35336  1.0000
  N   N8        1.0  0.94147  0.52940  0.41013  1.0000
  C   C70       1.0  0.27020  0.49357  0.43048  1.0000
  H   H45       1.0  0.26148  0.48745  0.49333  1.0000
  C   C71       1.0  0.16934  0.37771  0.61748  1.0000
  C   C72       1.0  0.17169  0.35980  0.53129  1.0000
  H   H46       1.0  0.15239  0.66991  0.52692  1.0000
  H   H47       1.0  0.19962  0.34953  0.51932  1.0000
  H   H48       1.0  0.16456  0.37935  0.47869  1.0000
  O   O4        1.0  0.18468  0.40786  0.62238  1.0000
  C   C73       1.0  0.08887  0.69893  0.00011  1.0000
  C   C74       1.0  0.10708  0.99931  0.02507  1.0000
  C   C75       1.0  0.08980  0.96519  0.00537  1.0000
  C   C76       1.0  0.26104  0.94998  0.06334  1.0000
  C   C77       1.0  0.25374  0.64736  0.11916  1.0000
  C   C78       1.0  0.27950  0.67684  0.11949  1.0000
  C   C79       1.0  0.30459  0.68042  0.04872  1.0000
  H   H49       1.0  0.09969  0.72421  0.01660  1.0000
  H   H50       1.0  0.10194  0.94068  0.02295  1.0000
  H   H51       1.0  0.24239  0.92865  0.05950  1.0000
  H   H52       1.0  0.27390  0.70012  0.15598  1.0000
  H   H53       1.0  0.31840  0.70507  0.04283  1.0000
  C   C80       1.0  0.95637  0.87558  0.33336  1.0000
  C   C81       1.0  0.28546  0.80019  0.37296  1.0000
  N   N9        1.0  0.29999  0.81271  0.29475  1.0000
  C   C82       1.0  0.96863  0.84907  0.27057  1.0000
  C   C83       1.0  0.98071  0.85827  0.18608  1.0000
  C   C84       1.0  0.01828  0.87062  0.16968  1.0000
  H   H54       1.0  0.35360  0.90023  0.18297  1.0000
  H   H55       1.0  0.02639  0.86616  0.10053  1.0000
  H   H56       1.0  0.03790  0.85593  0.21193  1.0000
  O   O5        1.0  0.96410  0.84355  0.12461  1.0000
  C   C85       1.0  0.14327  0.66675  0.06164  1.0000
  N   N10       1.0  0.15244  0.64147  0.12530  1.0000
  C   C86       1.0  0.18724  0.63639  0.15701  1.0000
  C   C87       1.0  0.21608  0.65775  0.12062  1.0000
  N   N11       1.0  0.20681  0.68194  0.05537  1.0000
  C   C88       1.0  0.17225  0.68866  0.02537  1.0000
  H   H57       1.0  0.19251  0.61525  0.20026  1.0000
  C   C89       1.0  0.30161  0.91262  0.34171  1.0000
  C   C90       1.0  0.27513  0.93846  0.37164  1.0000
  C   C91       1.0  0.28451  0.96379  0.43852  1.0000
  C   C92       1.0  0.32108  0.96629  0.47242  1.0000
  C   C93       1.0  0.01535  0.94474  0.43090  1.0000
  C   C94       1.0  0.00554  0.91745  0.36867  1.0000
  Si  Si3       1.0  0.32984  0.66248  0.55462  1.0000
  C   C95       1.0  0.31747  0.70185  0.50614  1.0000
  C   C96       1.0  0.00607  0.71647  0.43647  1.0000
  C   C97       1.0  0.99434  0.74753  0.38805  1.0000
  C   C98       1.0  0.29299  0.76408  0.40542  1.0000
  C   C99       1.0  0.26972  0.74730  0.46941  1.0000
  C   C100      1.0  0.28193  0.71712  0.51989  1.0000
  C   C101      1.0  0.30592  0.65364  0.64667  1.0000
  C   C102      1.0  0.03934  0.99703  0.59422  1.0000
  C   C103      1.0  0.05580  0.69784  0.61821  1.0000
  C   C104      1.0  0.05604  0.96413  0.62583  1.0000
  C   C105      1.0  0.28658  0.95340  0.66002  1.0000
  H   H58       1.0  0.04348  0.72261  0.60386  1.0000
  H   H59       1.0  0.04394  0.93882  0.61574  1.0000
  H   H60       1.0  0.28757  0.93257  0.61408  1.0000
  H   H61       1.0  0.26397  0.70624  0.56546  1.0000
  H   H62       1.0  0.24405  0.75788  0.48279  1.0000
  H   H63       1.0  0.01228  0.75896  0.34308  1.0000
  H   H64       1.0  0.03141  0.70535  0.42154  1.0000
  H   H65       1.0  0.04234  0.94595  0.45096  1.0000
  H   H66       1.0  0.26331  0.97865  0.46610  1.0000
  H   H67       1.0  0.24757  0.93412  0.35922  1.0000
  H   H68       1.0  0.02511  0.89799  0.35336  1.0000
  N   N12       1.0  0.94147  0.86274  0.41013  1.0000
  C   C106      1.0  0.27020  0.82691  0.43048  1.0000
  H   H69       1.0  0.26148  0.82078  0.49333  1.0000
  C   C107      1.0  0.16934  0.71105  0.61748  1.0000
  C   C108      1.0  0.17169  0.69313  0.53129  1.0000
  H   H70       1.0  0.15239  0.00324  0.52692  1.0000
  H   H71       1.0  0.19962  0.68287  0.51932  1.0000
  H   H72       1.0  0.16456  0.71268  0.47869  1.0000
  O   O6        1.0  0.18468  0.74119  0.62238  1.0000
  C   C109      1.0  0.42221  0.03226  0.00011  1.0000
  C   C110      1.0  0.44041  0.33265  0.02507  1.0000
  C   C111      1.0  0.42313  0.29853  0.00537  1.0000
  C   C112      1.0  0.59437  0.28331  0.06335  1.0000
  C   C113      1.0  0.58707  0.98070  0.11916  1.0000
  C   C114      1.0  0.61284  0.01017  0.11949  1.0000
  C   C115      1.0  0.63792  0.01375  0.04872  1.0000
  H   H73       1.0  0.43302  0.05754  0.01660  1.0000
  H   H74       1.0  0.43528  0.27401  0.02295  1.0000
  H   H75       1.0  0.57572  0.26198  0.05950  1.0000
  H   H76       1.0  0.60724  0.03345  0.15598  1.0000
  H   H77       1.0  0.65173  0.03840  0.04283  1.0000
  C   C116      1.0  0.28970  0.20892  0.33336  1.0000
  C   C117      1.0  0.61880  0.13352  0.37296  1.0000
  N   N13       1.0  0.63333  0.14604  0.29475  1.0000
  C   C118      1.0  0.30196  0.18240  0.27057  1.0000
  C   C119      1.0  0.31404  0.19160  0.18608  1.0000
  C   C120      1.0  0.35161  0.20395  0.16968  1.0000
  H   H78       1.0  0.68693  0.23356  0.18297  1.0000
  H   H79       1.0  0.35972  0.19949  0.10053  1.0000
  H   H80       1.0  0.37123  0.18926  0.21193  1.0000
  O   O7        1.0  0.29743  0.17688  0.12461  1.0000
  C   C121      1.0  0.47660  0.00009  0.06164  1.0000
  N   N14       1.0  0.48578  0.97480  0.12530  1.0000
  C   C122      1.0  0.52058  0.96973  0.15701  1.0000
  C   C123      1.0  0.54941  0.99109  0.12062  1.0000
  N   N15       1.0  0.54015  0.01527  0.05537  1.0000
  C   C124      1.0  0.50558  0.02200  0.02537  1.0000
  H   H81       1.0  0.52584  0.94858  0.20026  1.0000
  C   C125      1.0  0.63494  0.24596  0.34171  1.0000
  C   C126      1.0  0.60847  0.27179  0.37164  1.0000
  C   C127      1.0  0.61784  0.29713  0.43852  1.0000
  C   C128      1.0  0.65441  0.29962  0.47242  1.0000
  C   C129      1.0  0.34869  0.27808  0.43090  1.0000
  C   C130      1.0  0.33887  0.25078  0.36867  1.0000
  Si  Si4       1.0  0.66318  0.99582  0.55462  1.0000
  C   C131      1.0  0.65081  0.03518  0.50614  1.0000
  C   C132      1.0  0.33941  0.04980  0.43647  1.0000
  C   C133      1.0  0.32767  0.08086  0.38805  1.0000
  C   C134      1.0  0.62633  0.09742  0.40542  1.0000
  C   C135      1.0  0.60305  0.08063  0.46941  1.0000
  C   C136      1.0  0.61526  0.05046  0.51989  1.0000
  C   C137      1.0  0.63926  0.98697  0.64667  1.0000
  C   C138      1.0  0.37267  0.33036  0.59422  1.0000
  C   C139      1.0  0.38913  0.03117  0.61821  1.0000
  C   C140      1.0  0.38938  0.29746  0.62583  1.0000
  C   C141      1.0  0.61991  0.28673  0.66002  1.0000
  H   H82       1.0  0.37682  0.05595  0.60386  1.0000
  H   H83       1.0  0.37727  0.27215  0.61574  1.0000
  H   H84       1.0  0.62090  0.26590  0.61408  1.0000
  H   H85       1.0  0.59730  0.03957  0.56546  1.0000
  H   H86       1.0  0.57739  0.09122  0.48279  1.0000
  H   H87       1.0  0.34562  0.09229  0.34308  1.0000
  H   H88       1.0  0.36474  0.03869  0.42154  1.0000
  H   H89       1.0  0.37567  0.27929  0.45096  1.0000
  H   H90       1.0  0.59664  0.31198  0.46610  1.0000
  H   H91       1.0  0.58091  0.26745  0.35922  1.0000
  H   H92       1.0  0.35844  0.23132  0.35336  1.0000
  N   N16       1.0  0.27480  0.19607  0.41013  1.0000
  C   C142      1.0  0.60353  0.16024  0.43048  1.0000
  H   H93       1.0  0.59481  0.15412  0.49333  1.0000
  C   C143      1.0  0.50267  0.04438  0.61748  1.0000
  C   C144      1.0  0.50502  0.02647  0.53129  1.0000
  H   H94       1.0  0.48572  0.33658  0.52692  1.0000
  H   H95       1.0  0.53295  0.01620  0.51932  1.0000
  H   H96       1.0  0.49789  0.04601  0.47869  1.0000
  O   O8        1.0  0.51802  0.07452  0.62238  1.0000
  C   C145      1.0  0.42221  0.36560  0.00011  1.0000
  C   C146      1.0  0.44041  0.66598  0.02507  1.0000
  C   C147      1.0  0.42313  0.63186  0.00537  1.0000
  C   C148      1.0  0.59437  0.61665  0.06335  1.0000
  C   C149      1.0  0.58707  0.31403  0.11916  1.0000
  C   C150      1.0  0.61283  0.34350  0.11949  1.0000
  C   C151      1.0  0.63792  0.34708  0.04872  1.0000
  H   H97       1.0  0.43303  0.39087  0.01660  1.0000
  H   H98       1.0  0.43528  0.60735  0.02295  1.0000
  H   H99       1.0  0.57572  0.59531  0.05950  1.0000
  H   H100      1.0  0.60723  0.36678  0.15598  1.0000
  H   H101      1.0  0.65173  0.37174  0.04283  1.0000
  C   C152      1.0  0.28970  0.54225  0.33336  1.0000
  C   C153      1.0  0.61879  0.46685  0.37296  1.0000
  N   N17       1.0  0.63333  0.47938  0.29475  1.0000
  C   C154      1.0  0.30196  0.51574  0.27057  1.0000
  C   C155      1.0  0.31405  0.52494  0.18608  1.0000
  C   C156      1.0  0.35161  0.53728  0.16968  1.0000
  H   H102      1.0  0.68694  0.56689  0.18297  1.0000
  H   H103      1.0  0.35973  0.53282  0.10053  1.0000
  H   H104      1.0  0.37123  0.52260  0.21193  1.0000
  O   O9        1.0  0.29743  0.51022  0.12461  1.0000
  C   C157      1.0  0.47660  0.33342  0.06164  1.0000
  N   N18       1.0  0.48578  0.30814  0.12530  1.0000
  C   C158      1.0  0.52058  0.30306  0.15701  1.0000
  C   C159      1.0  0.54941  0.32442  0.12062  1.0000
  N   N19       1.0  0.54015  0.34860  0.05537  1.0000
  C   C160      1.0  0.50558  0.35533  0.02537  1.0000
  H   H105      1.0  0.52584  0.28192  0.20026  1.0000
  C   C161      1.0  0.63494  0.57929  0.34171  1.0000
  C   C162      1.0  0.60847  0.60512  0.37164  1.0000
  C   C163      1.0  0.61784  0.63046  0.43852  1.0000
  C   C164      1.0  0.65441  0.63296  0.47242  1.0000
  C   C165      1.0  0.34869  0.61141  0.43090  1.0000
  C   C166      1.0  0.33887  0.58411  0.36867  1.0000
  Si  Si5       1.0  0.66318  0.32915  0.55462  1.0000
  C   C167      1.0  0.65081  0.36851  0.50614  1.0000
  C   C168      1.0  0.33940  0.38313  0.43647  1.0000
  C   C169      1.0  0.32767  0.41420  0.38805  1.0000
  C   C170      1.0  0.62633  0.43075  0.40542  1.0000
  C   C171      1.0  0.60305  0.41396  0.46941  1.0000
  C   C172      1.0  0.61526  0.38379  0.51989  1.0000
  C   C173      1.0  0.63925  0.32030  0.64667  1.0000
  C   C174      1.0  0.37267  0.66369  0.59422  1.0000
  C   C175      1.0  0.38913  0.36451  0.61821  1.0000
  C   C176      1.0  0.38938  0.63079  0.62583  1.0000
  C   C177      1.0  0.61991  0.62006  0.66002  1.0000
  H   H106      1.0  0.37682  0.38928  0.60386  1.0000
  H   H107      1.0  0.37727  0.60548  0.61574  1.0000
  H   H108      1.0  0.62090  0.59923  0.61408  1.0000
  H   H109      1.0  0.59730  0.37290  0.56546  1.0000
  H   H110      1.0  0.57739  0.42455  0.48278  1.0000
  H   H111      1.0  0.34562  0.42563  0.34308  1.0000
  H   H112      1.0  0.36474  0.37202  0.42154  1.0000
  H   H113      1.0  0.37567  0.61262  0.45096  1.0000
  H   H114      1.0  0.59664  0.64531  0.46610  1.0000
  H   H115      1.0  0.58091  0.60079  0.35922  1.0000
  H   H116      1.0  0.35844  0.56465  0.35336  1.0000
  N   N20       1.0  0.27480  0.52940  0.41013  1.0000
  C   C178      1.0  0.60353  0.49357  0.43048  1.0000
  H   H117      1.0  0.59481  0.48745  0.49333  1.0000
  C   C179      1.0  0.50267  0.37771  0.61748  1.0000
  C   C180      1.0  0.50502  0.35980  0.53129  1.0000
  H   H118      1.0  0.48572  0.66991  0.52692  1.0000
  H   H119      1.0  0.53295  0.34953  0.51932  1.0000
  H   H120      1.0  0.49789  0.37935  0.47869  1.0000
  O   O10       1.0  0.51801  0.40786  0.62238  1.0000
  C   C181      1.0  0.42221  0.69893  0.00011  1.0000
  C   C182      1.0  0.44041  0.99931  0.02507  1.0000
  C   C183      1.0  0.42313  0.96519  0.00537  1.0000
  C   C184      1.0  0.59437  0.94998  0.06334  1.0000
  C   C185      1.0  0.58707  0.64736  0.11916  1.0000
  C   C186      1.0  0.61283  0.67684  0.11949  1.0000
  C   C187      1.0  0.63792  0.68042  0.04872  1.0000
  H   H121      1.0  0.43302  0.72421  0.01660  1.0000
  H   H122      1.0  0.43528  0.94068  0.02295  1.0000
  H   H123      1.0  0.57572  0.92865  0.05950  1.0000
  H   H124      1.0  0.60724  0.70012  0.15598  1.0000
  H   H125      1.0  0.65173  0.70507  0.04283  1.0000
  C   C188      1.0  0.28970  0.87558  0.33336  1.0000
  C   C189      1.0  0.61879  0.80019  0.37296  1.0000
  N   N21       1.0  0.63333  0.81271  0.29475  1.0000
  C   C190      1.0  0.30196  0.84907  0.27057  1.0000
  C   C191      1.0  0.31405  0.85827  0.18608  1.0000
  C   C192      1.0  0.35161  0.87062  0.16968  1.0000
  H   H126      1.0  0.68693  0.90023  0.18297  1.0000
  H   H127      1.0  0.35973  0.86616  0.10053  1.0000
  H   H128      1.0  0.37123  0.85593  0.21193  1.0000
  O   O11       1.0  0.29743  0.84355  0.12461  1.0000
  C   C193      1.0  0.47660  0.66675  0.06164  1.0000
  N   N22       1.0  0.48578  0.64147  0.12530  1.0000
  C   C194      1.0  0.52058  0.63639  0.15701  1.0000
  C   C195      1.0  0.54941  0.65775  0.12062  1.0000
  N   N23       1.0  0.54015  0.68194  0.05537  1.0000
  C   C196      1.0  0.50558  0.68866  0.02537  1.0000
  H   H129      1.0  0.52584  0.61525  0.20026  1.0000
  C   C197      1.0  0.63494  0.91262  0.34171  1.0000
  C   C198      1.0  0.60846  0.93846  0.37164  1.0000
  C   C199      1.0  0.61784  0.96379  0.43852  1.0000
  C   C200      1.0  0.65441  0.96629  0.47242  1.0000
  C   C201      1.0  0.34869  0.94474  0.43090  1.0000
  C   C202      1.0  0.33887  0.91745  0.36867  1.0000
  Si  Si6       1.0  0.66317  0.66248  0.55462  1.0000
  C   C203      1.0  0.65081  0.70185  0.50614  1.0000
  C   C204      1.0  0.33940  0.71647  0.43647  1.0000
  C   C205      1.0  0.32767  0.74753  0.38805  1.0000
  C   C206      1.0  0.62633  0.76408  0.40542  1.0000
  C   C207      1.0  0.60305  0.74730  0.46941  1.0000
  C   C208      1.0  0.61526  0.71712  0.51989  1.0000
  C   C209      1.0  0.63926  0.65364  0.64667  1.0000
  C   C210      1.0  0.37267  0.99703  0.59422  1.0000
  C   C211      1.0  0.38913  0.69784  0.61821  1.0000
  C   C212      1.0  0.38937  0.96413  0.62583  1.0000
  C   C213      1.0  0.61991  0.95340  0.66002  1.0000
  H   H130      1.0  0.37682  0.72261  0.60386  1.0000
  H   H131      1.0  0.37727  0.93882  0.61574  1.0000
  H   H132      1.0  0.62090  0.93257  0.61408  1.0000
  H   H133      1.0  0.59730  0.70624  0.56546  1.0000
  H   H134      1.0  0.57739  0.75788  0.48279  1.0000
  H   H135      1.0  0.34562  0.75896  0.34308  1.0000
  H   H136      1.0  0.36474  0.70535  0.42154  1.0000
  H   H137      1.0  0.37567  0.94595  0.45096  1.0000
  H   H138      1.0  0.59664  0.97865  0.46610  1.0000
  H   H139      1.0  0.58090  0.93412  0.35922  1.0000
  H   H140      1.0  0.35844  0.89799  0.35336  1.0000
  N   N24       1.0  0.27480  0.86274  0.41013  1.0000
  C   C214      1.0  0.60353  0.82691  0.43048  1.0000
  H   H141      1.0  0.59481  0.82078  0.49333  1.0000
  C   C215      1.0  0.50267  0.71105  0.61748  1.0000
  C   C216      1.0  0.50502  0.69313  0.53129  1.0000
  H   H142      1.0  0.48572  0.00324  0.52692  1.0000
  H   H143      1.0  0.53296  0.68287  0.51932  1.0000
  H   H144      1.0  0.49789  0.71268  0.47869  1.0000
  O   O12       1.0  0.51802  0.74119  0.62238  1.0000
  C   C217      1.0  0.75554  0.03226  0.00011  1.0000
  C   C218      1.0  0.77374  0.33265  0.02507  1.0000
  C   C219      1.0  0.75646  0.29853  0.00537  1.0000
  C   C220      1.0  0.92771  0.28331  0.06335  1.0000
  C   C221      1.0  0.92041  0.98070  0.11916  1.0000
  C   C222      1.0  0.94617  0.01017  0.11949  1.0000
  C   C223      1.0  0.97125  0.01375  0.04872  1.0000
  H   H145      1.0  0.76636  0.05754  0.01660  1.0000
  H   H146      1.0  0.76861  0.27401  0.02295  1.0000
  H   H147      1.0  0.90905  0.26198  0.05950  1.0000
  H   H148      1.0  0.94057  0.03345  0.15598  1.0000
  H   H149      1.0  0.98506  0.03840  0.04283  1.0000
  C   C224      1.0  0.62304  0.20892  0.33336  1.0000
  C   C225      1.0  0.95213  0.13352  0.37296  1.0000
  N   N25       1.0  0.96666  0.14604  0.29475  1.0000
  C   C226      1.0  0.63530  0.18240  0.27057  1.0000
  C   C227      1.0  0.64738  0.19160  0.18608  1.0000
  C   C228      1.0  0.68495  0.20395  0.16968  1.0000
  H   H150      1.0  0.02027  0.23356  0.18297  1.0000
  H   H151      1.0  0.69306  0.19949  0.10053  1.0000
  H   H152      1.0  0.70457  0.18926  0.21193  1.0000
  O   O13       1.0  0.63076  0.17688  0.12461  1.0000
  C   C229      1.0  0.80993  0.00009  0.06164  1.0000
  N   N26       1.0  0.81911  0.97480  0.12530  1.0000
  C   C230      1.0  0.85391  0.96973  0.15701  1.0000
  C   C231      1.0  0.88275  0.99109  0.12062  1.0000
  N   N27       1.0  0.87348  0.01527  0.05537  1.0000
  C   C232      1.0  0.83891  0.02200  0.02537  1.0000
  H   H153      1.0  0.85917  0.94858  0.20026  1.0000
  C   C233      1.0  0.96828  0.24596  0.34171  1.0000
  C   C234      1.0  0.94180  0.27179  0.37164  1.0000
  C   C235      1.0  0.95117  0.29713  0.43852  1.0000
  C   C236      1.0  0.98774  0.29962  0.47242  1.0000
  C   C237      1.0  0.68202  0.27808  0.43090  1.0000
  C   C238      1.0  0.67220  0.25078  0.36867  1.0000
  Si  Si7       1.0  0.99651  0.99582  0.55462  1.0000
  C   C239      1.0  0.98414  0.03518  0.50614  1.0000
  C   C240      1.0  0.67274  0.04980  0.43647  1.0000
  C   C241      1.0  0.66100  0.08086  0.38805  1.0000
  C   C242      1.0  0.95966  0.09742  0.40542  1.0000
  C   C243      1.0  0.93639  0.08063  0.46941  1.0000
  C   C244      1.0  0.94860  0.05046  0.51989  1.0000
  C   C245      1.0  0.97259  0.98697  0.64667  1.0000
  C   C246      1.0  0.70601  0.33036  0.59422  1.0000
  C   C247      1.0  0.72246  0.03117  0.61821  1.0000
  C   C248      1.0  0.72271  0.29746  0.62583  1.0000
  C   C249      1.0  0.95325  0.28673  0.66002  1.0000
  H   H154      1.0  0.71015  0.05595  0.60386  1.0000
  H   H155      1.0  0.71061  0.27215  0.61574  1.0000
  H   H156      1.0  0.95423  0.26590  0.61408  1.0000
  H   H157      1.0  0.93063  0.03957  0.56546  1.0000
  H   H158      1.0  0.91072  0.09122  0.48279  1.0000
  H   H159      1.0  0.67895  0.09229  0.34308  1.0000
  H   H160      1.0  0.69808  0.03869  0.42154  1.0000
  H   H161      1.0  0.70900  0.27929  0.45096  1.0000
  H   H162      1.0  0.92997  0.31198  0.46610  1.0000
  H   H163      1.0  0.91424  0.26745  0.35922  1.0000
  H   H164      1.0  0.69177  0.23132  0.35336  1.0000
  N   N28       1.0  0.60814  0.19607  0.41013  1.0000
  C   C250      1.0  0.93686  0.16024  0.43048  1.0000
  H   H165      1.0  0.92815  0.15412  0.49333  1.0000
  C   C251      1.0  0.83600  0.04438  0.61748  1.0000
  C   C252      1.0  0.83835  0.02647  0.53129  1.0000
  H   H166      1.0  0.81905  0.33658  0.52692  1.0000
  H   H167      1.0  0.86629  0.01620  0.51932  1.0000
  H   H168      1.0  0.83122  0.04601  0.47869  1.0000
  O   O14       1.0  0.85135  0.07452  0.62238  1.0000
  C   C253      1.0  0.75554  0.36560  0.00011  1.0000
  C   C254      1.0  0.77374  0.66598  0.02507  1.0000
  C   C255      1.0  0.75646  0.63186  0.00537  1.0000
  C   C256      1.0  0.92771  0.61665  0.06335  1.0000
  C   C257      1.0  0.92040  0.31403  0.11916  1.0000
  C   C258      1.0  0.94617  0.34350  0.11949  1.0000
  C   C259      1.0  0.97125  0.34708  0.04872  1.0000
  H   H169      1.0  0.76636  0.39087  0.01660  1.0000
  H   H170      1.0  0.76861  0.60735  0.02295  1.0000
  H   H171      1.0  0.90905  0.59531  0.05950  1.0000
  H   H172      1.0  0.94057  0.36678  0.15598  1.0000
  H   H173      1.0  0.98507  0.37174  0.04283  1.0000
  C   C260      1.0  0.62303  0.54225  0.33336  1.0000
  C   C261      1.0  0.95213  0.46685  0.37296  1.0000
  N   N29       1.0  0.96666  0.47938  0.29475  1.0000
  C   C262      1.0  0.63530  0.51574  0.27057  1.0000
  C   C263      1.0  0.64738  0.52494  0.18608  1.0000
  C   C264      1.0  0.68495  0.53728  0.16968  1.0000
  H   H174      1.0  0.02027  0.56689  0.18297  1.0000
  H   H175      1.0  0.69306  0.53282  0.10053  1.0000
  H   H176      1.0  0.70457  0.52260  0.21193  1.0000
  O   O15       1.0  0.63076  0.51022  0.12461  1.0000
  C   C265      1.0  0.80993  0.33342  0.06164  1.0000
  N   N30       1.0  0.81911  0.30814  0.12530  1.0000
  C   C266      1.0  0.85391  0.30306  0.15701  1.0000
  C   C267      1.0  0.88275  0.32442  0.12062  1.0000
  N   N31       1.0  0.87348  0.34860  0.05537  1.0000
  C   C268      1.0  0.83891  0.35533  0.02537  1.0000
  H   H177      1.0  0.85917  0.28192  0.20026  1.0000
  C   C269      1.0  0.96828  0.57929  0.34171  1.0000
  C   C270      1.0  0.94180  0.60512  0.37164  1.0000
  C   C271      1.0  0.95117  0.63046  0.43852  1.0000
  C   C272      1.0  0.98774  0.63296  0.47242  1.0000
  C   C273      1.0  0.68202  0.61141  0.43090  1.0000
  C   C274      1.0  0.67220  0.58411  0.36867  1.0000
  Si  Si8       1.0  0.99651  0.32915  0.55462  1.0000
  C   C275      1.0  0.98414  0.36851  0.50614  1.0000
  C   C276      1.0  0.67274  0.38313  0.43647  1.0000
  C   C277      1.0  0.66100  0.41420  0.38805  1.0000
  C   C278      1.0  0.95966  0.43075  0.40542  1.0000
  C   C279      1.0  0.93639  0.41396  0.46941  1.0000
  C   C280      1.0  0.94860  0.38379  0.51989  1.0000
  C   C281      1.0  0.97259  0.32030  0.64667  1.0000
  C   C282      1.0  0.70601  0.66369  0.59422  1.0000
  C   C283      1.0  0.72247  0.36451  0.61821  1.0000
  C   C284      1.0  0.72271  0.63079  0.62583  1.0000
  C   C285      1.0  0.95325  0.62006  0.66002  1.0000
  H   H178      1.0  0.71015  0.38928  0.60386  1.0000
  H   H179      1.0  0.71061  0.60548  0.61574  1.0000
  H   H180      1.0  0.95424  0.59923  0.61408  1.0000
  H   H181      1.0  0.93063  0.37290  0.56546  1.0000
  H   H182      1.0  0.91072  0.42455  0.48278  1.0000
  H   H183      1.0  0.67895  0.42563  0.34308  1.0000
  H   H184      1.0  0.69807  0.37202  0.42154  1.0000
  H   H185      1.0  0.70900  0.61262  0.45096  1.0000
  H   H186      1.0  0.92997  0.64531  0.46610  1.0000
  H   H187      1.0  0.91424  0.60079  0.35922  1.0000
  H   H188      1.0  0.69177  0.56465  0.35336  1.0000
  N   N32       1.0  0.60813  0.52940  0.41013  1.0000
  C   C286      1.0  0.93686  0.49357  0.43048  1.0000
  H   H189      1.0  0.92815  0.48745  0.49333  1.0000
  C   C287      1.0  0.83600  0.37771  0.61748  1.0000
  C   C288      1.0  0.83835  0.35980  0.53129  1.0000
  H   H190      1.0  0.81905  0.66991  0.52692  1.0000
  H   H191      1.0  0.86629  0.34953  0.51932  1.0000
  H   H192      1.0  0.83123  0.37935  0.47869  1.0000
  O   O16       1.0  0.85135  0.40786  0.62238  1.0000
  C   C289      1.0  0.75554  0.69893  0.00011  1.0000
  C   C290      1.0  0.77374  0.99931  0.02507  1.0000
  C   C291      1.0  0.75646  0.96519  0.00537  1.0000
  C   C292      1.0  0.92770  0.94998  0.06334  1.0000
  C   C293      1.0  0.92041  0.64736  0.11916  1.0000
  C   C294      1.0  0.94617  0.67684  0.11949  1.0000
  C   C295      1.0  0.97125  0.68042  0.04872  1.0000
  H   H193      1.0  0.76636  0.72421  0.01660  1.0000
  H   H194      1.0  0.76861  0.94068  0.02295  1.0000
  H   H195      1.0  0.90905  0.92865  0.05950  1.0000
  H   H196      1.0  0.94057  0.70012  0.15598  1.0000
  H   H197      1.0  0.98506  0.70507  0.04283  1.0000
  C   C296      1.0  0.62304  0.87558  0.33336  1.0000
  C   C297      1.0  0.95213  0.80019  0.37296  1.0000
  N   N33       1.0  0.96666  0.81271  0.29475  1.0000
  C   C298      1.0  0.63530  0.84907  0.27057  1.0000
  C   C299      1.0  0.64738  0.85827  0.18608  1.0000
  C   C300      1.0  0.68495  0.87062  0.16968  1.0000
  H   H198      1.0  0.02027  0.90023  0.18297  1.0000
  H   H199      1.0  0.69306  0.86616  0.10053  1.0000
  H   H200      1.0  0.70457  0.85593  0.21193  1.0000
  O   O17       1.0  0.63076  0.84355  0.12461  1.0000
  C   C301      1.0  0.80993  0.66675  0.06164  1.0000
  N   N34       1.0  0.81911  0.64147  0.12530  1.0000
  C   C302      1.0  0.85391  0.63639  0.15701  1.0000
  C   C303      1.0  0.88275  0.65775  0.12062  1.0000
  N   N35       1.0  0.87348  0.68194  0.05537  1.0000
  C   C304      1.0  0.83891  0.68866  0.02537  1.0000
  H   H201      1.0  0.85917  0.61525  0.20026  1.0000
  C   C305      1.0  0.96828  0.91262  0.34171  1.0000
  C   C306      1.0  0.94180  0.93846  0.37164  1.0000
  C   C307      1.0  0.95117  0.96379  0.43852  1.0000
  C   C308      1.0  0.98774  0.96629  0.47242  1.0000
  C   C309      1.0  0.68202  0.94474  0.43090  1.0000
  C   C310      1.0  0.67221  0.91745  0.36867  1.0000
  Si  Si9       1.0  0.99651  0.66248  0.55462  1.0000
  C   C311      1.0  0.98414  0.70185  0.50614  1.0000
  C   C312      1.0  0.67274  0.71647  0.43647  1.0000
  C   C313      1.0  0.66100  0.74753  0.38805  1.0000
  C   C314      1.0  0.95966  0.76408  0.40542  1.0000
  C   C315      1.0  0.93639  0.74730  0.46941  1.0000
  C   C316      1.0  0.94860  0.71712  0.51989  1.0000
  C   C317      1.0  0.97259  0.65364  0.64667  1.0000
  C   C318      1.0  0.70600  0.99703  0.59422  1.0000
  C   C319      1.0  0.72246  0.69784  0.61821  1.0000
  C   C320      1.0  0.72271  0.96413  0.62583  1.0000
  C   C321      1.0  0.95325  0.95340  0.66002  1.0000
  H   H202      1.0  0.71015  0.72261  0.60386  1.0000
  H   H203      1.0  0.71060  0.93882  0.61574  1.0000
  H   H204      1.0  0.95423  0.93257  0.61408  1.0000
  H   H205      1.0  0.93063  0.70624  0.56546  1.0000
  H   H206      1.0  0.91072  0.75788  0.48279  1.0000
  H   H207      1.0  0.67895  0.75896  0.34308  1.0000
  H   H208      1.0  0.69808  0.70535  0.42154  1.0000
  H   H209      1.0  0.70900  0.94595  0.45096  1.0000
  H   H210      1.0  0.92997  0.97865  0.46610  1.0000
  H   H211      1.0  0.91424  0.93412  0.35922  1.0000
  H   H212      1.0  0.69177  0.89799  0.35336  1.0000
  N   N36       1.0  0.60814  0.86274  0.41013  1.0000
  C   C322      1.0  0.93686  0.82691  0.43048  1.0000
  H   H213      1.0  0.92814  0.82078  0.49333  1.0000
  C   C323      1.0  0.83600  0.71105  0.61748  1.0000
  C   C324      1.0  0.83835  0.69313  0.53129  1.0000
  H   H214      1.0  0.81905  0.00324  0.52692  1.0000
  H   H215      1.0  0.86629  0.68287  0.51932  1.0000
  H   H216      1.0  0.83123  0.71268  0.47869  1.0000
  O   O18       1.0  0.85135  0.74119  0.62238  1.0000
