data_image0
_chemical_formula_structural       C3HOHC3HOHC3HOHC3HOHC3HOHC3HOHC3OH2C3OH2C3OH2C3OH2C3OH2C3OH2C3OH2C3OH2C3OH2C3OH2C3OH2C3OH2NC18H12NC18H12NC18H12NC18H12NC18H12NC18H12NC18H12NC18H12NC18H12NC18H12NC18H12NC18H12C3OH2C3OH2C3OH2C3OH2C3OH2C3OH2C3HOHC3HOHC3HOHC3HOHC3HOHC3HOHC3HOHC3HOHC3HOHC3HOHC3HOHC3HOH
_chemical_formula_sum              "C324 H216 O36 N12"
_cell_length_a       64.1886
_cell_length_b       64.1886
_cell_length_c       14.7259
_cell_angle_alpha    90
_cell_angle_beta     90
_cell_angle_gamma    120

_space_group_name_H-M_alt    "P 1"
_space_group_IT_number       1

loop_
  _space_group_symop_operation_xyz
  'x, y, z'

loop_
  _atom_site_type_symbol
  _atom_site_label
  _atom_site_symmetry_multiplicity
  _atom_site_fract_x
  _atom_site_fract_y
  _atom_site_fract_z
  _atom_site_occupancy
  C   C1        1.0  0.21163  0.37958  0.29202  1.0000
  C   C2        1.0  0.22479  0.40504  0.29044  1.0000
  C   C3        1.0  0.21914  0.41886  0.35050  1.0000
  H   H1        1.0  0.21683  0.37057  0.24860  1.0000
  O   O1        1.0  0.24327  0.41567  0.23008  1.0000
  H   H2        1.0  0.25805  0.42012  0.26447  1.0000
  C   C4        1.0  0.63087  0.82385  0.29193  1.0000
  C   C5        1.0  0.60541  0.81152  0.29032  1.0000
  C   C6        1.0  0.59159  0.79214  0.35076  1.0000
  H   H3        1.0  0.63987  0.83798  0.24820  1.0000
  O   O2        1.0  0.59478  0.81927  0.22952  1.0000
  H   H4        1.0  0.59031  0.82964  0.26351  1.0000
  C   C7        1.0  0.18661  0.79886  0.29210  1.0000
  C   C8        1.0  0.19892  0.78572  0.29049  1.0000
  C   C9        1.0  0.21834  0.79131  0.35078  1.0000
  H   H5        1.0  0.17245  0.79371  0.24850  1.0000
  O   O3        1.0  0.19113  0.76730  0.22985  1.0000
  H   H6        1.0  0.18078  0.75248  0.26399  1.0000
  C   C10       1.0  0.80780  0.62199  0.29196  1.0000
  C   C11       1.0  0.79466  0.59653  0.29035  1.0000
  C   C12       1.0  0.80022  0.58271  0.35076  1.0000
  H   H7        1.0  0.80268  0.63100  0.24824  1.0000
  O   O4        1.0  0.77627  0.58590  0.22958  1.0000
  H   H8        1.0  0.76144  0.58144  0.26359  1.0000
  C   C13       1.0  0.38850  0.17782  0.29141  1.0000
  C   C14       1.0  0.41397  0.19014  0.28981  1.0000
  C   C15       1.0  0.42778  0.20946  0.35048  1.0000
  H   H9        1.0  0.37949  0.16373  0.24752  1.0000
  O   O5        1.0  0.42459  0.18244  0.22880  1.0000
  H   H10       1.0  0.42905  0.17203  0.26257  1.0000
  C   C16       1.0  0.83277  0.20273  0.29210  1.0000
  C   C17       1.0  0.82045  0.21588  0.29050  1.0000
  C   C18       1.0  0.80103  0.21027  0.35077  1.0000
  H   H11       1.0  0.84693  0.20789  0.24850  1.0000
  O   O6        1.0  0.82825  0.23430  0.22989  1.0000
  H   H12       1.0  0.83860  0.24911  0.26407  1.0000
  C   C19       1.0  0.21154  0.18913  0.27185  1.0000
  C   C20       1.0  0.19930  0.20235  0.26811  1.0000
  C   C21       1.0  0.19223  0.20951  0.34852  1.0000
  O   O7        1.0  0.19536  0.20842  0.18387  1.0000
  H   H13       1.0  0.21561  0.18408  0.21155  1.0000
  H   H14       1.0  0.20799  0.22521  0.17379  1.0000
  C   C22       1.0  0.82108  0.01434  0.27158  1.0000
  C   C23       1.0  0.80832  0.98885  0.26745  1.0000
  C   C24       1.0  0.80120  0.97462  0.34778  1.0000
  O   O8        1.0  0.80090  0.97845  0.18415  1.0000
  H   H15       1.0  0.82568  0.02351  0.21136  1.0000
  H   H16       1.0  0.81538  0.98162  0.15006  1.0000
  C   C25       1.0  0.99618  0.79869  0.27161  1.0000
  C   C26       1.0  0.02167  0.81141  0.26750  1.0000
  C   C27       1.0  0.03590  0.81850  0.34784  1.0000
  O   O9        1.0  0.03206  0.81440  0.18419  1.0000
  H   H17       1.0  0.98701  0.79414  0.21138  1.0000
  H   H18       1.0  0.02890  0.82573  0.15016  1.0000
  C   C28       1.0  0.80761  0.81225  0.27156  1.0000
  C   C29       1.0  0.82033  0.79948  0.26745  1.0000
  C   C30       1.0  0.82742  0.79234  0.34778  1.0000
  O   O10       1.0  0.82333  0.79208  0.18413  1.0000
  H   H19       1.0  0.80306  0.81686  0.21134  1.0000
  H   H20       1.0  0.83466  0.80658  0.15012  1.0000
  C   C31       1.0  0.19829  0.98724  0.27170  1.0000
  C   C32       1.0  0.21106  0.01273  0.26756  1.0000
  C   C33       1.0  0.21816  0.02697  0.34788  1.0000
  O   O11       1.0  0.21848  0.02312  0.18425  1.0000
  H   H21       1.0  0.19370  0.97807  0.21148  1.0000
  H   H22       1.0  0.20400  0.01995  0.15014  1.0000
  C   C34       1.0  0.02319  0.20289  0.27144  1.0000
  C   C35       1.0  0.99770  0.19018  0.26735  1.0000
  C   C36       1.0  0.98347  0.18308  0.34769  1.0000
  O   O12       1.0  0.98730  0.18721  0.18406  1.0000
  H   H23       1.0  0.03235  0.20746  0.21120  1.0000
  H   H24       1.0  0.99045  0.17589  0.14996  1.0000
  C   C37       1.0  0.24616  0.60604  0.27625  1.0000
  C   C38       1.0  0.24552  0.62759  0.26553  1.0000
  C   C39       1.0  0.24633  0.64152  0.34200  1.0000
  O   O13       1.0  0.24435  0.63427  0.17875  1.0000
  H   H25       1.0  0.24700  0.59760  0.21862  1.0000
  H   H26       1.0  0.22773  0.63074  0.16949  1.0000
  C   C40       1.0  0.40443  0.63194  0.27625  1.0000
  C   C41       1.0  0.38289  0.60975  0.26549  1.0000
  C   C42       1.0  0.36894  0.59663  0.34193  1.0000
  O   O14       1.0  0.37624  0.60190  0.17871  1.0000
  H   H27       1.0  0.41290  0.64123  0.21864  1.0000
  H   H28       1.0  0.37978  0.58881  0.16950  1.0000
  C   C43       1.0  0.37856  0.76443  0.27664  1.0000
  C   C44       1.0  0.40075  0.76508  0.26591  1.0000
  C   C45       1.0  0.41385  0.76421  0.34236  1.0000
  O   O15       1.0  0.40862  0.76630  0.17914  1.0000
  H   H29       1.0  0.36930  0.76364  0.21901  1.0000
  H   H30       1.0  0.42172  0.78294  0.17003  1.0000
  C   C46       1.0  0.77329  0.39558  0.27640  1.0000
  C   C47       1.0  0.77395  0.37404  0.26565  1.0000
  C   C48       1.0  0.77312  0.36009  0.34210  1.0000
  O   O16       1.0  0.77516  0.36739  0.17888  1.0000
  H   H31       1.0  0.77247  0.40403  0.21878  1.0000
  H   H32       1.0  0.79179  0.37092  0.16972  1.0000
  C   C49       1.0  0.61489  0.36967  0.27641  1.0000
  C   C50       1.0  0.63644  0.39186  0.26571  1.0000
  C   C51       1.0  0.65038  0.40497  0.34219  1.0000
  O   O17       1.0  0.64311  0.39972  0.17894  1.0000
  H   H33       1.0  0.60645  0.36040  0.21877  1.0000
  H   H34       1.0  0.63960  0.41283  0.16974  1.0000
  C   C52       1.0  0.64084  0.23722  0.27638  1.0000
  C   C53       1.0  0.61864  0.23656  0.26564  1.0000
  C   C54       1.0  0.60552  0.23738  0.34209  1.0000
  O   O18       1.0  0.61079  0.23536  0.17886  1.0000
  H   H35       1.0  0.65013  0.23806  0.21876  1.0000
  H   H36       1.0  0.59769  0.21874  0.16967  1.0000
  N   N1        1.0  0.14061  0.26232  0.35130  1.0000
  C   C55       1.0  0.11472  0.24953  0.35385  1.0000
  C   C56       1.0  0.15348  0.28814  0.35189  1.0000
  C   C57       1.0  0.15374  0.24957  0.34883  1.0000
  C   C58       1.0  0.14930  0.23208  0.28177  1.0000
  C   C59       1.0  0.16149  0.21883  0.28236  1.0000
  C   C60       1.0  0.17944  0.22293  0.34778  1.0000
  C   C61       1.0  0.18391  0.24078  0.41408  1.0000
  C   C62       1.0  0.17114  0.25342  0.41558  1.0000
  C   C63       1.0  0.10114  0.25346  0.28748  1.0000
  C   C64       1.0  0.07573  0.24078  0.28909  1.0000
  C   C65       1.0  0.06239  0.22284  0.35516  1.0000
  C   C66       1.0  0.07628  0.21866  0.42010  1.0000
  C   C67       1.0  0.10172  0.23193  0.42059  1.0000
  C   C68       1.0  0.16090  0.30145  0.27028  1.0000
  C   C69       1.0  0.17331  0.32688  0.27089  1.0000
  C   C70       1.0  0.17935  0.34027  0.35304  1.0000
  C   C71       1.0  0.17221  0.32662  0.43459  1.0000
  C   C72       1.0  0.15929  0.30119  0.43409  1.0000
  H   H37       1.0  0.06702  0.24507  0.24089  1.0000
  H   H38       1.0  0.10976  0.26593  0.23754  1.0000
  H   H39       1.0  0.11084  0.22814  0.46874  1.0000
  H   H40       1.0  0.06799  0.20531  0.46728  1.0000
  H   H41       1.0  0.13646  0.22834  0.23338  1.0000
  H   H42       1.0  0.15656  0.20557  0.23488  1.0000
  H   H43       1.0  0.15694  0.29257  0.20947  1.0000
  H   H44       1.0  0.17766  0.33559  0.20971  1.0000
  H   H45       1.0  0.17668  0.33513  0.49615  1.0000
  H   H46       1.0  0.15441  0.29213  0.49452  1.0000
  H   H47       1.0  0.17489  0.26581  0.46574  1.0000
  H   H48       1.0  0.19683  0.24503  0.46255  1.0000
  N   N2        1.0  0.74814  0.87019  0.35154  1.0000
  C   C73       1.0  0.76091  0.85708  0.35408  1.0000
  C   C74       1.0  0.72232  0.85726  0.35213  1.0000
  C   C75       1.0  0.76091  0.89607  0.34877  1.0000
  C   C76       1.0  0.77839  0.90903  0.28159  1.0000
  C   C77       1.0  0.79169  0.93447  0.28188  1.0000
  C   C78       1.0  0.78766  0.94841  0.34711  1.0000
  C   C79       1.0  0.76982  0.93511  0.41357  1.0000
  C   C80       1.0  0.75712  0.90970  0.41535  1.0000
  C   C81       1.0  0.75700  0.83958  0.28768  1.0000
  C   C82       1.0  0.76968  0.82686  0.28927  1.0000
  C   C83       1.0  0.78762  0.83145  0.35533  1.0000
  C   C84       1.0  0.79180  0.84952  0.42032  1.0000
  C   C85       1.0  0.77852  0.86168  0.42083  1.0000
  C   C86       1.0  0.70901  0.85125  0.27052  1.0000
  C   C87       1.0  0.68358  0.83823  0.27115  1.0000
  C   C88       1.0  0.67019  0.83099  0.35332  1.0000
  C   C89       1.0  0.68384  0.83762  0.43487  1.0000
  C   C90       1.0  0.70927  0.85013  0.43436  1.0000
  H   H49       1.0  0.76542  0.81388  0.24101  1.0000
  H   H50       1.0  0.74454  0.83574  0.23771  1.0000
  H   H51       1.0  0.78230  0.87458  0.46899  1.0000
  H   H52       1.0  0.80514  0.85457  0.46751  1.0000
  H   H53       1.0  0.78208  0.89988  0.23328  1.0000
  H   H54       1.0  0.80496  0.94273  0.23442  1.0000
  H   H55       1.0  0.71788  0.85608  0.20969  1.0000
  H   H56       1.0  0.67486  0.83377  0.20998  1.0000
  H   H57       1.0  0.67533  0.83367  0.49642  1.0000
  H   H58       1.0  0.71833  0.85439  0.49480  1.0000
  H   H59       1.0  0.74475  0.90112  0.46562  1.0000
  H   H60       1.0  0.76565  0.94385  0.46201  1.0000
  N   N3        1.0  0.14032  0.86984  0.35165  1.0000
  C   C91       1.0  0.15343  0.89572  0.35421  1.0000
  C   C92       1.0  0.15325  0.85694  0.35223  1.0000
  C   C93       1.0  0.11444  0.85673  0.34886  1.0000
  C   C94       1.0  0.10149  0.86128  0.28171  1.0000
  C   C95       1.0  0.07605  0.84914  0.28202  1.0000
  C   C96       1.0  0.06211  0.83116  0.34718  1.0000
  C   C97       1.0  0.07540  0.82660  0.41358  1.0000
  C   C98       1.0  0.10081  0.83930  0.41538  1.0000
  C   C99       1.0  0.17095  0.90930  0.28788  1.0000
  C   C100      1.0  0.18368  0.93471  0.28948  1.0000
  C   C101      1.0  0.17907  0.94806  0.35549  1.0000
  C   C102      1.0  0.16099  0.93417  0.42042  1.0000
  C   C103      1.0  0.14883  0.90873  0.42093  1.0000
  C   C104      1.0  0.15922  0.84961  0.27061  1.0000
  C   C105      1.0  0.17223  0.83719  0.27123  1.0000
  C   C106      1.0  0.17950  0.83107  0.35338  1.0000
  C   C107      1.0  0.17292  0.83813  0.43495  1.0000
  C   C108      1.0  0.16041  0.85104  0.43445  1.0000
  H   H61       1.0  0.19667  0.94342  0.24127  1.0000
  H   H62       1.0  0.17481  0.90068  0.23795  1.0000
  H   H63       1.0  0.13591  0.89960  0.46904  1.0000
  H   H64       1.0  0.15593  0.94246  0.46756  1.0000
  H   H65       1.0  0.11065  0.87413  0.23344  1.0000
  H   H66       1.0  0.06779  0.85416  0.23455  1.0000
  H   H67       1.0  0.15437  0.85363  0.20979  1.0000
  H   H68       1.0  0.17667  0.83291  0.21005  1.0000
  H   H69       1.0  0.17689  0.83359  0.49649  1.0000
  H   H70       1.0  0.15617  0.85587  0.49488  1.0000
  H   H71       1.0  0.10938  0.83548  0.46562  1.0000
  H   H72       1.0  0.06665  0.81366  0.46196  1.0000
  N   N4        1.0  0.87876  0.73925  0.35154  1.0000
  C   C109      1.0  0.90465  0.75202  0.35409  1.0000
  C   C110      1.0  0.86587  0.71343  0.35213  1.0000
  C   C111      1.0  0.86566  0.75203  0.34877  1.0000
  C   C112      1.0  0.87021  0.76953  0.28163  1.0000
  C   C113      1.0  0.85807  0.78284  0.28195  1.0000
  C   C114      1.0  0.84008  0.77879  0.34712  1.0000
  C   C115      1.0  0.83553  0.76094  0.41352  1.0000
  C   C116      1.0  0.84823  0.74823  0.41530  1.0000
  C   C117      1.0  0.91823  0.74810  0.28770  1.0000
  C   C118      1.0  0.94364  0.76078  0.28929  1.0000
  C   C119      1.0  0.95698  0.77871  0.35537  1.0000
  C   C120      1.0  0.94310  0.78289  0.42035  1.0000
  C   C121      1.0  0.91765  0.76962  0.42088  1.0000
  C   C122      1.0  0.85856  0.70012  0.27050  1.0000
  C   C123      1.0  0.84614  0.67469  0.27114  1.0000
  C   C124      1.0  0.84000  0.66130  0.35331  1.0000
  C   C125      1.0  0.84703  0.67495  0.43486  1.0000
  C   C126      1.0  0.85995  0.70038  0.43435  1.0000
  H   H73       1.0  0.95235  0.75651  0.24105  1.0000
  H   H74       1.0  0.90961  0.73564  0.23773  1.0000
  H   H75       1.0  0.90854  0.77341  0.46900  1.0000
  H   H76       1.0  0.95139  0.79623  0.46754  1.0000
  H   H77       1.0  0.88305  0.77323  0.23335  1.0000
  H   H78       1.0  0.86309  0.79612  0.23449  1.0000
  H   H79       1.0  0.86259  0.70899  0.20968  1.0000
  H   H80       1.0  0.84187  0.66598  0.20996  1.0000
  H   H81       1.0  0.84247  0.66645  0.49641  1.0000
  H   H82       1.0  0.86476  0.70944  0.49478  1.0000
  H   H83       1.0  0.84441  0.73584  0.46553  1.0000
  H   H84       1.0  0.82259  0.75675  0.46189  1.0000
  N   N5        1.0  0.27123  0.13139  0.35133  1.0000
  C   C127      1.0  0.25845  0.14449  0.35383  1.0000
  C   C128      1.0  0.29705  0.14434  0.35186  1.0000
  C   C129      1.0  0.25845  0.10551  0.34872  1.0000
  C   C130      1.0  0.24096  0.09254  0.28157  1.0000
  C   C131      1.0  0.22765  0.06710  0.28195  1.0000
  C   C132      1.0  0.23170  0.05318  0.34719  1.0000
  C   C133      1.0  0.24954  0.06649  0.41363  1.0000
  C   C134      1.0  0.26224  0.09189  0.41534  1.0000
  C   C135      1.0  0.26216  0.16178  0.28680  1.0000
  C   C136      1.0  0.24949  0.17452  0.28841  1.0000
  C   C137      1.0  0.23179  0.17016  0.35525  1.0000
  C   C138      1.0  0.22780  0.15229  0.42087  1.0000
  C   C139      1.0  0.24106  0.14010  0.42126  1.0000
  C   C140      1.0  0.31036  0.15043  0.27022  1.0000
  C   C141      1.0  0.33579  0.16345  0.27085  1.0000
  C   C142      1.0  0.34918  0.17062  0.35302  1.0000
  C   C143      1.0  0.33554  0.16393  0.43458  1.0000
  C   C144      1.0  0.31011  0.15141  0.43409  1.0000
  H   H85       1.0  0.25360  0.18735  0.23967  1.0000
  H   H86       1.0  0.27447  0.16547  0.23637  1.0000
  H   H87       1.0  0.23743  0.12735  0.46988  1.0000
  H   H88       1.0  0.21464  0.14742  0.46870  1.0000
  H   H89       1.0  0.23727  0.10168  0.23321  1.0000
  H   H90       1.0  0.21439  0.05883  0.23445  1.0000
  H   H91       1.0  0.30149  0.14563  0.20940  1.0000
  H   H92       1.0  0.34450  0.16795  0.20967  1.0000
  H   H93       1.0  0.34404  0.16781  0.49613  1.0000
  H   H94       1.0  0.30105  0.14709  0.49454  1.0000
  H   H95       1.0  0.27462  0.10048  0.46557  1.0000
  H   H96       1.0  0.25372  0.05775  0.46206  1.0000
  N   N6        1.0  0.87905  0.13175  0.35156  1.0000
  C   C145      1.0  0.86594  0.10587  0.35411  1.0000
  C   C146      1.0  0.86612  0.14464  0.35215  1.0000
  C   C147      1.0  0.90493  0.14485  0.34875  1.0000
  C   C148      1.0  0.91788  0.14032  0.28154  1.0000
  C   C149      1.0  0.94332  0.15245  0.28186  1.0000
  C   C150      1.0  0.95726  0.17042  0.34706  1.0000
  C   C151      1.0  0.94397  0.17498  0.41350  1.0000
  C   C152      1.0  0.91857  0.16227  0.41531  1.0000
  C   C153      1.0  0.84842  0.09228  0.28776  1.0000
  C   C154      1.0  0.83569  0.06687  0.28935  1.0000
  C   C155      1.0  0.84030  0.05353  0.35537  1.0000
  C   C156      1.0  0.85839  0.06742  0.42030  1.0000
  C   C157      1.0  0.87054  0.09286  0.42083  1.0000
  C   C158      1.0  0.86015  0.15198  0.27053  1.0000
  C   C159      1.0  0.84714  0.16440  0.27116  1.0000
  C   C160      1.0  0.83986  0.17051  0.35332  1.0000
  C   C161      1.0  0.84644  0.16345  0.43488  1.0000
  C   C162      1.0  0.85895  0.15052  0.43437  1.0000
  H   H97       1.0  0.82270  0.05816  0.24116  1.0000
  H   H98       1.0  0.84456  0.10090  0.23785  1.0000
  H   H99       1.0  0.88347  0.10198  0.46892  1.0000
  H   H100      1.0  0.86345  0.05912  0.46742  1.0000
  H   H101      1.0  0.90872  0.12747  0.23328  1.0000
  H   H102      1.0  0.95157  0.14743  0.23436  1.0000
  H   H103      1.0  0.86502  0.14798  0.20971  1.0000
  H   H104      1.0  0.84272  0.16870  0.20998  1.0000
  H   H105      1.0  0.84247  0.16798  0.49643  1.0000
  H   H106      1.0  0.86320  0.14570  0.49480  1.0000
  H   H107      1.0  0.90999  0.16608  0.46557  1.0000
  H   H108      1.0  0.95273  0.18790  0.46191  1.0000
  N   N7        1.0  0.27086  0.52268  0.35226  1.0000
  C   C163      1.0  0.29617  0.53655  0.33458  1.0000
  C   C164      1.0  0.25801  0.49696  0.35170  1.0000
  C   C165      1.0  0.25937  0.53650  0.36972  1.0000
  C   C166      1.0  0.26822  0.55410  0.43902  1.0000
  C   C167      1.0  0.26347  0.57329  0.43790  1.0000
  C   C168      1.0  0.24864  0.57513  0.37059  1.0000
  C   C169      1.0  0.23806  0.55606  0.30647  1.0000
  C   C170      1.0  0.24357  0.53735  0.30509  1.0000
  C   C171      1.0  0.31279  0.53747  0.39947  1.0000
  C   C172      1.0  0.33700  0.55620  0.39812  1.0000
  C   C173      1.0  0.34547  0.57526  0.33396  1.0000
  C   C174      1.0  0.32879  0.57337  0.26658  1.0000
  C   C175      1.0  0.30489  0.55411  0.26516  1.0000
  C   C176      1.0  0.25224  0.48371  0.43340  1.0000
  C   C177      1.0  0.23966  0.45827  0.43280  1.0000
  C   C178      1.0  0.23213  0.44493  0.35065  1.0000
  C   C179      1.0  0.23779  0.45849  0.26909  1.0000
  C   C180      1.0  0.25059  0.48393  0.26950  1.0000
  H   H109      1.0  0.34810  0.55645  0.44843  1.0000
  H   H110      1.0  0.30691  0.52555  0.45239  1.0000
  H   H111      1.0  0.29308  0.55475  0.22014  1.0000
  H   H112      1.0  0.33322  0.58708  0.22156  1.0000
  H   H113      1.0  0.28064  0.55471  0.48411  1.0000
  H   H114      1.0  0.27275  0.58700  0.48290  1.0000
  H   H115      1.0  0.25745  0.49261  0.49409  1.0000
  H   H116      1.0  0.23633  0.44950  0.49372  1.0000
  H   H117      1.0  0.23227  0.44990  0.20791  1.0000
  H   H118      1.0  0.25427  0.49300  0.20918  1.0000
  H   H119      1.0  0.23758  0.52547  0.25208  1.0000
  H   H120      1.0  0.22716  0.55627  0.25627  1.0000
  N   N8        1.0  0.48778  0.74001  0.35233  1.0000
  C   C181      1.0  0.47392  0.75147  0.33500  1.0000
  C   C182      1.0  0.51350  0.75289  0.35185  1.0000
  C   C183      1.0  0.47396  0.71469  0.36980  1.0000
  C   C184      1.0  0.45639  0.70594  0.43920  1.0000
  C   C185      1.0  0.43717  0.68201  0.43790  1.0000
  C   C186      1.0  0.43534  0.66533  0.37064  1.0000
  C   C187      1.0  0.45442  0.67382  0.30659  1.0000
  C   C188      1.0  0.47308  0.69805  0.30507  1.0000
  C   C189      1.0  0.47299  0.76716  0.39990  1.0000
  C   C190      1.0  0.45426  0.77264  0.39864  1.0000
  C   C191      1.0  0.43521  0.76208  0.33443  1.0000
  C   C192      1.0  0.43711  0.74735  0.26686  1.0000
  C   C193      1.0  0.45631  0.74261  0.26574  1.0000
  C   C194      1.0  0.52674  0.76053  0.43354  1.0000
  C   C195      1.0  0.55218  0.77339  0.43298  1.0000
  C   C196      1.0  0.56553  0.77905  0.35088  1.0000
  C   C197      1.0  0.55197  0.77100  0.26934  1.0000
  C   C198      1.0  0.52654  0.75835  0.26971  1.0000
  H   H121      1.0  0.45401  0.78349  0.44896  1.0000
  H   H122      1.0  0.48492  0.77321  0.45279  1.0000
  H   H123      1.0  0.45574  0.73026  0.22037  1.0000
  H   H124      1.0  0.42341  0.73806  0.22183  1.0000
  H   H125      1.0  0.45571  0.71773  0.48417  1.0000
  H   H126      1.0  0.42345  0.67759  0.48284  1.0000
  H   H127      1.0  0.51783  0.75693  0.49418  1.0000
  H   H128      1.0  0.56095  0.77894  0.49386  1.0000
  H   H129      1.0  0.56058  0.77397  0.20821  1.0000
  H   H130      1.0  0.51748  0.75285  0.20941  1.0000
  H   H131      1.0  0.48501  0.70393  0.25220  1.0000
  H   H132      1.0  0.45421  0.66272  0.25636  1.0000
  N   N9        1.0  0.27048  0.73964  0.35220  1.0000
  C   C199      1.0  0.25905  0.71433  0.33478  1.0000
  C   C200      1.0  0.25759  0.75247  0.35177  1.0000
  C   C201      1.0  0.29579  0.75114  0.36995  1.0000
  C   C202      1.0  0.30453  0.74231  0.43935  1.0000
  C   C203      1.0  0.32846  0.74704  0.43816  1.0000
  C   C204      1.0  0.34516  0.76191  0.37098  1.0000
  C   C205      1.0  0.33667  0.77251  0.30692  1.0000
  C   C206      1.0  0.31244  0.76693  0.30534  1.0000
  C   C207      1.0  0.24332  0.69768  0.39955  1.0000
  C   C208      1.0  0.23783  0.67346  0.39817  1.0000
  C   C209      1.0  0.24846  0.66501  0.33411  1.0000
  C   C210      1.0  0.26327  0.68169  0.26679  1.0000
  C   C211      1.0  0.26795  0.70561  0.26559  1.0000
  C   C212      1.0  0.25002  0.75813  0.43349  1.0000
  C   C213      1.0  0.23716  0.77071  0.43297  1.0000
  C   C214      1.0  0.23143  0.77833  0.35087  1.0000
  C   C215      1.0  0.23942  0.77278  0.26929  1.0000
  C   C216      1.0  0.25207  0.75999  0.26963  1.0000
  H   H133      1.0  0.22698  0.66236  0.44847  1.0000
  H   H134      1.0  0.23724  0.70354  0.45241  1.0000
  H   H135      1.0  0.28032  0.71740  0.22030  1.0000
  H   H136      1.0  0.27254  0.67727  0.22168  1.0000
  H   H137      1.0  0.29272  0.72981  0.48421  1.0000
  H   H138      1.0  0.33288  0.73772  0.48301  1.0000
  H   H139      1.0  0.25366  0.75286  0.49414  1.0000
  H   H140      1.0  0.23165  0.77396  0.49387  1.0000
  H   H141      1.0  0.23640  0.77837  0.20816  1.0000
  H   H142      1.0  0.25752  0.75639  0.20930  1.0000
  H   H143      1.0  0.30657  0.77300  0.25247  1.0000
  H   H144      1.0  0.34780  0.78344  0.25681  1.0000
  N   N10       1.0  0.74852  0.47889  0.35235  1.0000
  C   C217      1.0  0.72320  0.46504  0.33495  1.0000
  C   C218      1.0  0.76136  0.50462  0.35186  1.0000
  C   C219      1.0  0.76002  0.46508  0.36984  1.0000
  C   C220      1.0  0.75115  0.44746  0.43908  1.0000
  C   C221      1.0  0.75593  0.42829  0.43807  1.0000
  C   C222      1.0  0.77077  0.42646  0.37078  1.0000
  C   C223      1.0  0.78135  0.44553  0.30668  1.0000
  C   C224      1.0  0.77580  0.46422  0.30522  1.0000
  C   C225      1.0  0.70657  0.46411  0.39980  1.0000
  C   C226      1.0  0.68236  0.44538  0.39849  1.0000
  C   C227      1.0  0.67388  0.42633  0.33432  1.0000
  C   C228      1.0  0.69054  0.42821  0.26691  1.0000
  C   C229      1.0  0.71446  0.44743  0.26571  1.0000
  C   C230      1.0  0.76699  0.51786  0.43355  1.0000
  C   C231      1.0  0.77956  0.54329  0.43299  1.0000
  C   C232      1.0  0.78724  0.55664  0.35088  1.0000
  C   C233      1.0  0.78173  0.54309  0.26934  1.0000
  C   C234      1.0  0.76894  0.51766  0.26972  1.0000
  H   H145      1.0  0.67125  0.44515  0.44874  1.0000
  H   H146      1.0  0.71244  0.47604  0.45267  1.0000
  H   H147      1.0  0.72624  0.44686  0.22035  1.0000
  H   H148      1.0  0.68611  0.41453  0.22174  1.0000
  H   H149      1.0  0.73875  0.44684  0.48429  1.0000
  H   H150      1.0  0.74664  0.41457  0.48303  1.0000
  H   H151      1.0  0.76166  0.50895  0.49420  1.0000
  H   H152      1.0  0.78278  0.55206  0.49387  1.0000
  H   H153      1.0  0.78736  0.55169  0.20821  1.0000
  H   H154      1.0  0.76536  0.50859  0.20941  1.0000
  H   H155      1.0  0.78184  0.47613  0.25227  1.0000
  H   H156      1.0  0.79226  0.44533  0.25651  1.0000
  N   N11       1.0  0.53160  0.26158  0.35216  1.0000
  C   C235      1.0  0.54547  0.25013  0.33480  1.0000
  C   C236      1.0  0.50587  0.24870  0.35165  1.0000
  C   C237      1.0  0.54541  0.28690  0.36963  1.0000
  C   C238      1.0  0.56299  0.29563  0.43899  1.0000
  C   C239      1.0  0.58217  0.31958  0.43790  1.0000
  C   C240      1.0  0.58399  0.33627  0.37071  1.0000
  C   C241      1.0  0.56493  0.32777  0.30654  1.0000
  C   C242      1.0  0.54626  0.30353  0.30498  1.0000
  C   C243      1.0  0.54637  0.23442  0.39968  1.0000
  C   C244      1.0  0.56510  0.22895  0.39837  1.0000
  C   C245      1.0  0.58416  0.23951  0.33417  1.0000
  C   C246      1.0  0.58228  0.25430  0.26676  1.0000
  C   C247      1.0  0.56306  0.25900  0.26552  1.0000
  C   C248      1.0  0.49262  0.24100  0.43330  1.0000
  C   C249      1.0  0.46719  0.22814  0.43272  1.0000
  C   C250      1.0  0.45384  0.22254  0.35062  1.0000
  C   C251      1.0  0.46740  0.23067  0.26912  1.0000
  C   C252      1.0  0.49284  0.24331  0.26951  1.0000
  H   H157      1.0  0.56534  0.21807  0.44862  1.0000
  H   H158      1.0  0.53444  0.22836  0.45255  1.0000
  H   H159      1.0  0.56363  0.27135  0.22016  1.0000
  H   H160      1.0  0.59596  0.26354  0.22160  1.0000
  H   H161      1.0  0.56360  0.28385  0.48424  1.0000
  H   H162      1.0  0.59585  0.32403  0.48307  1.0000
  H   H163      1.0  0.50153  0.24453  0.49395  1.0000
  H   H164      1.0  0.45842  0.22253  0.49357  1.0000
  H   H165      1.0  0.45880  0.22775  0.20800  1.0000
  H   H166      1.0  0.50191  0.24886  0.20923  1.0000
  H   H167      1.0  0.53436  0.29766  0.25199  1.0000
  H   H168      1.0  0.56513  0.33888  0.25634  1.0000
  N   N12       1.0  0.74891  0.26198  0.35235  1.0000
  C   C253      1.0  0.76036  0.28729  0.33474  1.0000
  C   C254      1.0  0.76178  0.24912  0.35186  1.0000
  C   C255      1.0  0.72360  0.25051  0.36989  1.0000
  C   C256      1.0  0.71486  0.25938  0.43915  1.0000
  C   C257      1.0  0.69093  0.25462  0.43797  1.0000
  C   C258      1.0  0.67425  0.23975  0.37074  1.0000
  C   C259      1.0  0.68274  0.22915  0.30672  1.0000
  C   C260      1.0  0.70697  0.23471  0.30522  1.0000
  C   C261      1.0  0.77607  0.30390  0.39963  1.0000
  C   C262      1.0  0.78156  0.32811  0.39832  1.0000
  C   C263      1.0  0.77098  0.33660  0.33417  1.0000
  C   C264      1.0  0.75621  0.31994  0.26670  1.0000
  C   C265      1.0  0.75153  0.29603  0.26537  1.0000
  C   C266      1.0  0.76933  0.24343  0.43356  1.0000
  C   C267      1.0  0.78218  0.23085  0.43301  1.0000
  C   C268      1.0  0.78794  0.22325  0.35089  1.0000
  C   C269      1.0  0.77997  0.22884  0.26932  1.0000
  C   C270      1.0  0.76733  0.24163  0.26970  1.0000
  H   H169      1.0  0.79239  0.33920  0.44872  1.0000
  H   H170      1.0  0.78207  0.29800  0.45260  1.0000
  H   H171      1.0  0.73915  0.28422  0.22016  1.0000
  H   H172      1.0  0.74697  0.32438  0.22155  1.0000
  H   H173      1.0  0.72665  0.27177  0.48438  1.0000
  H   H174      1.0  0.68647  0.26386  0.48307  1.0000
  H   H175      1.0  0.76568  0.24869  0.49423  1.0000
  H   H176      1.0  0.78768  0.22758  0.49391  1.0000
  H   H177      1.0  0.78299  0.22326  0.20817  1.0000
  H   H178      1.0  0.76189  0.24525  0.20938  1.0000
  H   H179      1.0  0.71286  0.22868  0.25228  1.0000
  H   H180      1.0  0.67164  0.21826  0.25647  1.0000
  C   C271      1.0  0.19991  0.40574  0.41186  1.0000
  C   C272      1.0  0.18665  0.38027  0.41299  1.0000
  C   C273      1.0  0.19234  0.36640  0.35322  1.0000
  O   O19       1.0  0.16798  0.36981  0.47260  1.0000
  H   H181      1.0  0.19481  0.41482  0.45536  1.0000
  H   H182      1.0  0.15330  0.36518  0.43726  1.0000
  C   C274      1.0  0.60472  0.78615  0.41254  1.0000
  C   C275      1.0  0.63019  0.79837  0.41367  1.0000
  C   C276      1.0  0.64406  0.81785  0.35352  1.0000
  O   O20       1.0  0.64066  0.79026  0.47368  1.0000
  H   H183      1.0  0.59564  0.77204  0.45630  1.0000
  H   H184      1.0  0.64529  0.78016  0.43871  1.0000
  C   C277      1.0  0.22437  0.81047  0.41241  1.0000
  C   C278      1.0  0.21216  0.82372  0.41357  1.0000
  C   C279      1.0  0.19265  0.81808  0.35357  1.0000
  O   O21       1.0  0.22030  0.84233  0.47346  1.0000
  H   H185      1.0  0.23851  0.81552  0.45608  1.0000
  H   H186      1.0  0.23039  0.85705  0.43837  1.0000
  C   C280      1.0  0.81935  0.59583  0.41251  1.0000
  C   C281      1.0  0.83261  0.62130  0.41364  1.0000
  C   C282      1.0  0.82700  0.63518  0.35351  1.0000
  O   O22       1.0  0.85120  0.63176  0.47362  1.0000
  H   H187      1.0  0.82439  0.58675  0.45626  1.0000
  H   H188      1.0  0.86593  0.63639  0.43862  1.0000
  C   C283      1.0  0.41465  0.21540  0.41245  1.0000
  C   C284      1.0  0.38919  0.20319  0.41360  1.0000
  C   C285      1.0  0.37531  0.18376  0.35321  1.0000
  O   O23       1.0  0.37872  0.21124  0.47385  1.0000
  H   H189      1.0  0.42373  0.22947  0.45641  1.0000
  H   H190      1.0  0.37409  0.22138  0.43910  1.0000
  C   C286      1.0  0.79499  0.19111  0.41237  1.0000
  C   C287      1.0  0.80720  0.17785  0.41351  1.0000
  C   C288      1.0  0.82672  0.18350  0.35353  1.0000
  O   O24       1.0  0.79905  0.15923  0.47335  1.0000
  H   H191      1.0  0.78084  0.18604  0.45601  1.0000
  H   H192      1.0  0.78897  0.14452  0.43823  1.0000
  C   C289      1.0  0.19894  0.20317  0.43142  1.0000
  C   C290      1.0  0.21166  0.19040  0.43525  1.0000
  C   C291      1.0  0.21839  0.18296  0.35478  1.0000
  H   H193      1.0  0.19447  0.20782  0.49175  1.0000
  O   O25       1.0  0.21930  0.18757  0.51830  1.0000
  H   H194      1.0  0.20491  0.17637  0.55310  1.0000
  C   C292      1.0  0.80783  0.98760  0.43082  1.0000
  C   C293      1.0  0.82059  0.01309  0.43495  1.0000
  C   C294      1.0  0.82759  0.02732  0.35463  1.0000
  H   H195      1.0  0.80334  0.97843  0.49104  1.0000
  O   O26       1.0  0.82370  0.02348  0.51832  1.0000
  H   H196      1.0  0.83504  0.02028  0.55205  1.0000
  C   C295      1.0  0.02291  0.81212  0.43087  1.0000
  C   C296      1.0  0.99743  0.79940  0.43497  1.0000
  C   C297      1.0  0.98319  0.79220  0.35465  1.0000
  H   H197      1.0  0.03207  0.81677  0.49110  1.0000
  O   O27       1.0  0.98703  0.79209  0.51831  1.0000
  H   H198      1.0  0.99022  0.80661  0.55215  1.0000
  C   C298      1.0  0.82104  0.79894  0.43081  1.0000
  C   C299      1.0  0.80831  0.81170  0.43493  1.0000
  C   C300      1.0  0.80112  0.81874  0.35460  1.0000
  H   H199      1.0  0.82569  0.79443  0.49104  1.0000
  O   O28       1.0  0.80100  0.81479  0.51828  1.0000
  H   H200      1.0  0.81553  0.82612  0.55210  1.0000
  C   C301      1.0  0.21154  0.01399  0.43092  1.0000
  C   C302      1.0  0.19878  0.98850  0.43505  1.0000
  C   C303      1.0  0.19178  0.97426  0.35474  1.0000
  H   H201      1.0  0.21603  0.02315  0.49115  1.0000
  O   O29       1.0  0.19568  0.97811  0.51842  1.0000
  H   H202      1.0  0.18433  0.98130  0.55217  1.0000
  C   C304      1.0  0.99646  0.18944  0.43071  1.0000
  C   C305      1.0  0.02195  0.20215  0.43481  1.0000
  C   C306      1.0  0.03618  0.20936  0.35446  1.0000
  H   H203      1.0  0.98730  0.18477  0.49094  1.0000
  O   O30       1.0  0.03235  0.20944  0.51816  1.0000
  H   H204      1.0  0.02915  0.19490  0.55191  1.0000
  C   C307      1.0  0.24619  0.63173  0.42852  1.0000
  C   C308      1.0  0.24565  0.60959  0.43924  1.0000
  C   C309      1.0  0.24642  0.59645  0.36276  1.0000
  H   H205      1.0  0.24705  0.64103  0.48612  1.0000
  O   O31       1.0  0.24460  0.60181  0.52605  1.0000
  H   H206      1.0  0.22801  0.58867  0.53557  1.0000
  C   C310      1.0  0.37870  0.60630  0.42847  1.0000
  C   C311      1.0  0.40084  0.62790  0.43924  1.0000
  C   C312      1.0  0.41401  0.64181  0.36278  1.0000
  H   H207      1.0  0.36939  0.59785  0.48605  1.0000
  O   O32       1.0  0.40860  0.63463  0.52607  1.0000
  H   H208      1.0  0.42173  0.63118  0.53568  1.0000
  C   C313      1.0  0.40417  0.76430  0.42888  1.0000
  C   C314      1.0  0.38258  0.76484  0.43963  1.0000
  C   C315      1.0  0.36868  0.76411  0.36315  1.0000
  H   H209      1.0  0.41261  0.76341  0.48647  1.0000
  O   O33       1.0  0.37582  0.76583  0.52645  1.0000
  H   H210      1.0  0.37927  0.78242  0.53612  1.0000
  C   C316      1.0  0.77320  0.36985  0.42863  1.0000
  C   C317      1.0  0.77374  0.39198  0.43940  1.0000
  C   C318      1.0  0.77298  0.40514  0.36293  1.0000
  H   H211      1.0  0.77233  0.36053  0.48621  1.0000
  O   O34       1.0  0.77475  0.39973  0.52622  1.0000
  H   H212      1.0  0.79133  0.41288  0.53584  1.0000
  C   C319      1.0  0.64059  0.39531  0.42870  1.0000
  C   C320      1.0  0.61844  0.37372  0.43940  1.0000
  C   C321      1.0  0.60530  0.35980  0.36291  1.0000
  H   H213      1.0  0.64989  0.40375  0.48631  1.0000
  O   O35       1.0  0.61066  0.36697  0.52621  1.0000
  H   H214      1.0  0.59751  0.37041  0.53572  1.0000
  C   C322      1.0  0.61518  0.23728  0.42861  1.0000
  C   C323      1.0  0.63679  0.23674  0.43937  1.0000
  C   C324      1.0  0.65071  0.23752  0.36290  1.0000
  H   H215      1.0  0.60674  0.23813  0.48620  1.0000
  O   O36       1.0  0.64353  0.23572  0.52619  1.0000
  H   H216      1.0  0.64010  0.21913  0.53574  1.0000
