data_image0
_chemical_formula_structural       NC3H3NC3H3CNCHCNCHCNCHCNCHCNCHCNCHNC3H3NC3H3CNCHCNCHNC3H3NC3H3CNCHCNCHCNCHCNCHNC3H3NC3H3CNCHCNCHNC3H3NC3H3CNCHCNCHCNCHCNCHNC3H3NC3H3CNCNCNCNCNCNCNCNCNCNCNCNCNCNCNCNCNCNCNCNCNCNCNCNCNCNCNCNCNCNCNCNCNCNCNCNCNCNCNCNCNCNCNCNCNCNCNCNCNCNCNCNCNCNCNCNCNCNCNCNCNCHCNCHNC3H3NC3H3NC3H3NC3H3NC3H3NC3H3CNCHCNCHNC3H3NC3H3CNCHCNCHNC3H3NC3H3NC3H3NC3H3CNCHCNCHNC3H3NC3H3CNCHCNCHNC3H3NC3H3NC3H3NC3H3CNCHCNCHNC3H3NC3H3CNCHCNCHCNCHCNCHCNCHCNCHNC3H3NC3H3CNCHCNCHNC3H3NC3H3CNCHCNCHCNCHCNCHNC3H3NC3H3CNCHCNCHNC3H3NC3H3CNCHCNCHCNCHCNCHNC3H3NC3H3CNCNCNCNCNCNCNCNCNCNCNCNCNCNCNCNCNCNCNCNCNCNCNCNCNCNCNCNCNCNCNCNCNCNCNCNCNCNCNCNCNCNCNCNCNCNCNCNCNCNCNCNCNCNCNCNCNCNCNCNCNCHCNCHNC3H3NC3H3NC3H3NC3H3NC3H3NC3H3CNCHCNCHNC3H3NC3H3CNCHCNCHNC3H3NC3H3NC3H3NC3H3CNCHCNCHNC3H3NC3H3CNCHCNCHNC3H3NC3H3NC3H3NC3H3CNCHCNCH
_chemical_formula_sum              "N240 C420 H240"
_cell_length_a       83.544
_cell_length_b       44.0068
_cell_length_c       14.8712
_cell_angle_alpha    90
_cell_angle_beta     90
_cell_angle_gamma    90

_space_group_name_H-M_alt    "P 1"
_space_group_IT_number       1

loop_
  _space_group_symop_operation_xyz
  'x, y, z'

loop_
  _atom_site_type_symbol
  _atom_site_label
  _atom_site_symmetry_multiplicity
  _atom_site_fract_x
  _atom_site_fract_y
  _atom_site_fract_z
  _atom_site_occupancy
  N   N1        1.0  0.24813  0.14970  0.27415  1.0000
  C   C1        1.0  0.26420  0.14445  0.27213  1.0000
  C   C2        1.0  0.27065  0.12449  0.33769  1.0000
  C   C3        1.0  0.27364  0.15847  0.19902  1.0000
  H   H1        1.0  0.26604  0.17179  0.15413  1.0000
  H   H2        1.0  0.27948  0.14081  0.15927  1.0000
  H   H3        1.0  0.28270  0.17354  0.22723  1.0000
  N   N2        1.0  0.76039  0.35876  0.27656  1.0000
  C   C4        1.0  0.74434  0.36421  0.27421  1.0000
  C   C5        1.0  0.73808  0.38578  0.33577  1.0000
  C   C6        1.0  0.73476  0.34858  0.20464  1.0000
  H   H4        1.0  0.74225  0.33419  0.16217  1.0000
  H   H5        1.0  0.72888  0.36532  0.16168  1.0000
  H   H6        1.0  0.72571  0.33427  0.23633  1.0000
  C   C7        1.0  0.77063  0.13711  0.39657  1.0000
  N   N3        1.0  0.74988  0.10342  0.35467  1.0000
  C   C8        1.0  0.76577  0.10942  0.35851  1.0000
  H   H7        1.0  0.77380  0.09427  0.33245  1.0000
  C   C9        1.0  0.23787  0.37249  0.39652  1.0000
  N   N4        1.0  0.25853  0.40665  0.35644  1.0000
  C   C10       1.0  0.24265  0.40054  0.36045  1.0000
  H   H8        1.0  0.23457  0.41588  0.33590  1.0000
  C   C11       1.0  0.30334  0.03812  0.36851  1.0000
  N   N5        1.0  0.31383  0.48912  0.33922  1.0000
  C   C12       1.0  0.31511  0.01951  0.32908  1.0000
  H   H9        1.0  0.32394  0.02807  0.28895  1.0000
  C   C13       1.0  0.70517  0.47182  0.36867  1.0000
  N   N6        1.0  0.69449  0.02080  0.34129  1.0000
  C   C14       1.0  0.69321  0.49041  0.33097  1.0000
  H   H10       1.0  0.68422  0.48185  0.29194  1.0000
  C   C15       1.0  0.80318  0.28698  0.37717  1.0000
  N   N7        1.0  0.81485  0.23815  0.36457  1.0000
  C   C16       1.0  0.81604  0.26838  0.35044  1.0000
  H   H11       1.0  0.82560  0.27667  0.31546  1.0000
  C   C17       1.0  0.20545  0.22258  0.37754  1.0000
  N   N8        1.0  0.19370  0.27138  0.36512  1.0000
  C   C18       1.0  0.19258  0.24115  0.35071  1.0000
  H   H12       1.0  0.18301  0.23281  0.31582  1.0000
  N   N9        1.0  0.35746  0.12702  0.26237  1.0000
  C   C19       1.0  0.34228  0.11706  0.24825  1.0000
  C   C20       1.0  0.32974  0.13003  0.30067  1.0000
  C   C21       1.0  0.33995  0.09333  0.17888  1.0000
  H   H13       1.0  0.35085  0.08988  0.13951  1.0000
  H   H14       1.0  0.33042  0.10012  0.13288  1.0000
  H   H15       1.0  0.33685  0.07175  0.20992  1.0000
  N   N10       1.0  0.65133  0.38295  0.25938  1.0000
  C   C22       1.0  0.66656  0.39273  0.24541  1.0000
  C   C23       1.0  0.67898  0.37989  0.29895  1.0000
  C   C24       1.0  0.66906  0.41609  0.17518  1.0000
  H   H16       1.0  0.65817  0.41973  0.13583  1.0000
  H   H17       1.0  0.67851  0.40879  0.12929  1.0000
  H   H18       1.0  0.67239  0.43769  0.20530  1.0000
  C   C25       1.0  0.64641  0.14510  0.34562  1.0000
  N   N11       1.0  0.66757  0.11083  0.31331  1.0000
  C   C26       1.0  0.65202  0.11831  0.30460  1.0000
  H   H19       1.0  0.64465  0.10390  0.27050  1.0000
  C   C27       1.0  0.36202  0.36517  0.34200  1.0000
  N   N12       1.0  0.34072  0.39909  0.30942  1.0000
  C   C28       1.0  0.35629  0.39170  0.30014  1.0000
  H   H20       1.0  0.36357  0.40604  0.26522  1.0000
  N   N13       1.0  0.85760  0.37587  0.26983  1.0000
  C   C29       1.0  0.84245  0.36548  0.25778  1.0000
  C   C30       1.0  0.83002  0.37859  0.31073  1.0000
  C   C31       1.0  0.84006  0.34134  0.18968  1.0000
  H   H21       1.0  0.85091  0.33779  0.14977  1.0000
  H   H22       1.0  0.83043  0.34781  0.14382  1.0000
  H   H23       1.0  0.83707  0.31994  0.22177  1.0000
  N   N14       1.0  0.15122  0.13407  0.26652  1.0000
  C   C32       1.0  0.16642  0.14422  0.25452  1.0000
  C   C33       1.0  0.17874  0.13114  0.30825  1.0000
  C   C34       1.0  0.16898  0.16809  0.18581  1.0000
  H   H24       1.0  0.15816  0.17184  0.14589  1.0000
  H   H25       1.0  0.17855  0.16119  0.14008  1.0000
  H   H26       1.0  0.17216  0.18950  0.21731  1.0000
  C   C35       1.0  0.14655  0.39520  0.34210  1.0000
  N   N15       1.0  0.16784  0.36051  0.31661  1.0000
  C   C36       1.0  0.15233  0.36796  0.30460  1.0000
  H   H27       1.0  0.14509  0.35305  0.27157  1.0000
  C   C37       1.0  0.86192  0.11495  0.33830  1.0000
  N   N16       1.0  0.84048  0.14927  0.31302  1.0000
  C   C38       1.0  0.85600  0.14204  0.30060  1.0000
  H   H28       1.0  0.86315  0.15697  0.26702  1.0000
  C   C39       1.0  0.07172  0.19804  0.33029  1.0000
  N   N17       1.0  0.07680  0.14410  0.33704  1.0000
  C   C40       1.0  0.06611  0.16776  0.33638  1.0000
  H   H29       1.0  0.05416  0.16329  0.34230  1.0000
  C   C41       1.0  0.93710  0.31267  0.33022  1.0000
  N   N18       1.0  0.93198  0.36659  0.33772  1.0000
  C   C42       1.0  0.94270  0.34296  0.33619  1.0000
  H   H30       1.0  0.95467  0.34746  0.34061  1.0000
  N   N19       1.0  0.92029  0.20577  0.31932  1.0000
  C   C43       1.0  0.90958  0.18261  0.31808  1.0000
  C   C44       1.0  0.91544  0.15196  0.32404  1.0000
  C   C45       1.0  0.89279  0.19312  0.30976  1.0000
  H   H31       1.0  0.89189  0.21786  0.30545  1.0000
  H   H32       1.0  0.88585  0.18602  0.36821  1.0000
  H   H33       1.0  0.88760  0.18384  0.24837  1.0000
  N   N20       1.0  0.08799  0.30502  0.32415  1.0000
  C   C46       1.0  0.09870  0.32815  0.32147  1.0000
  C   C47       1.0  0.09291  0.35876  0.32973  1.0000
  C   C48       1.0  0.11541  0.31764  0.30857  1.0000
  H   H34       1.0  0.11622  0.29295  0.30175  1.0000
  H   H35       1.0  0.12274  0.32405  0.36620  1.0000
  H   H36       1.0  0.12021  0.32755  0.24706  1.0000
  C   C49       1.0  0.57182  0.44794  0.33287  1.0000
  N   N21       1.0  0.57698  0.39401  0.33894  1.0000
  C   C50       1.0  0.56625  0.41763  0.33884  1.0000
  H   H37       1.0  0.55431  0.41310  0.34517  1.0000
  C   C51       1.0  0.43698  0.06278  0.33256  1.0000
  N   N22       1.0  0.43179  0.11670  0.33939  1.0000
  C   C52       1.0  0.44254  0.09310  0.33849  1.0000
  H   H38       1.0  0.45450  0.09766  0.34335  1.0000
  N   N23       1.0  0.42030  0.45581  0.32447  1.0000
  C   C53       1.0  0.40961  0.43262  0.32388  1.0000
  C   C54       1.0  0.41550  0.40198  0.32980  1.0000
  C   C55       1.0  0.39281  0.44313  0.31609  1.0000
  H   H39       1.0  0.39189  0.46788  0.31227  1.0000
  H   H40       1.0  0.38589  0.43590  0.37448  1.0000
  H   H41       1.0  0.38760  0.43399  0.25459  1.0000
  N   N24       1.0  0.58796  0.05500  0.32931  1.0000
  C   C56       1.0  0.59864  0.07816  0.32723  1.0000
  C   C57       1.0  0.59281  0.10876  0.33552  1.0000
  C   C58       1.0  0.61536  0.06767  0.31452  1.0000
  H   H42       1.0  0.61620  0.04297  0.30813  1.0000
  H   H43       1.0  0.62270  0.07422  0.37198  1.0000
  H   H44       1.0  0.62013  0.07747  0.25279  1.0000
  C   C59       1.0  0.10611  0.47046  0.36502  1.0000
  N   N25       1.0  0.09436  0.02032  0.34843  1.0000
  C   C60       1.0  0.09269  0.48913  0.34677  1.0000
  H   H45       1.0  0.08226  0.47979  0.32392  1.0000
  C   C61       1.0  0.90251  0.04019  0.36205  1.0000
  N   N26       1.0  0.91427  0.49028  0.34693  1.0000
  C   C62       1.0  0.91594  0.02147  0.34424  1.0000
  H   H46       1.0  0.92632  0.03074  0.32064  1.0000
  C   C63       1.0  0.60611  0.22055  0.36994  1.0000
  N   N27       1.0  0.59440  0.27039  0.35184  1.0000
  C   C64       1.0  0.59268  0.23920  0.35151  1.0000
  H   H47       1.0  0.58225  0.22980  0.32905  1.0000
  C   C65       1.0  0.40246  0.29014  0.36706  1.0000
  N   N28       1.0  0.41419  0.24027  0.35032  1.0000
  C   C66       1.0  0.41590  0.27146  0.34895  1.0000
  H   H48       1.0  0.42629  0.28077  0.32556  1.0000
  N   N29       1.0  0.01293  0.23090  0.30171  1.0000
  C   C67       1.0  0.99670  0.22947  0.29446  1.0000
  C   C68       1.0  0.98752  0.25462  0.32638  1.0000
  C   C69       1.0  0.99016  0.20230  0.24866  1.0000
  H   H49       1.0  0.99969  0.18796  0.22157  1.0000
  H   H50       1.0  0.98251  0.20920  0.19278  1.0000
  H   H51       1.0  0.98328  0.18865  0.29602  1.0000
  N   N30       1.0  0.51288  0.98079  0.30513  1.0000
  C   C70       1.0  0.49665  0.97947  0.29782  1.0000
  C   C71       1.0  0.48749  0.00472  0.32938  1.0000
  C   C72       1.0  0.49007  0.95223  0.25257  1.0000
  H   H52       1.0  0.49957  0.93780  0.22562  1.0000
  H   H53       1.0  0.48240  0.95904  0.19666  1.0000
  H   H54       1.0  0.48319  0.43869  0.30025  1.0000
  C   C73       1.0  0.31478  0.11571  0.31322  1.0000
  N   N31       1.0  0.30017  0.12976  0.31784  1.0000
  C   C74       1.0  0.28664  0.11364  0.33897  1.0000
  N   N32       1.0  0.28820  0.08362  0.35683  1.0000
  C   C75       1.0  0.30248  0.06937  0.35402  1.0000
  N   N33       1.0  0.31556  0.08568  0.33220  1.0000
  C   C76       1.0  0.69391  0.39429  0.31175  1.0000
  N   N34       1.0  0.70854  0.38035  0.31591  1.0000
  C   C77       1.0  0.72206  0.39653  0.33704  1.0000
  N   N35       1.0  0.72040  0.42649  0.35564  1.0000
  C   C78       1.0  0.70608  0.44062  0.35349  1.0000
  N   N36       1.0  0.69303  0.42425  0.33145  1.0000
  C   C79       1.0  0.69382  0.11366  0.36870  1.0000
  N   N37       1.0  0.70839  0.12779  0.37319  1.0000
  C   C80       1.0  0.72218  0.11124  0.38181  1.0000
  N   N38       1.0  0.72093  0.08073  0.38808  1.0000
  C   C81       1.0  0.70683  0.06610  0.38686  1.0000
  N   N39       1.0  0.69348  0.08286  0.37498  1.0000
  C   C82       1.0  0.31462  0.39632  0.36689  1.0000
  N   N40       1.0  0.30006  0.38218  0.37190  1.0000
  C   C83       1.0  0.28629  0.39872  0.38143  1.0000
  N   N41       1.0  0.28754  0.42923  0.38791  1.0000
  C   C84       1.0  0.30165  0.44385  0.38615  1.0000
  N   N42       1.0  0.31498  0.42711  0.37341  1.0000
  C   C85       1.0  0.81501  0.36449  0.32279  1.0000
  N   N43       1.0  0.80042  0.37864  0.32230  1.0000
  C   C86       1.0  0.78675  0.36211  0.33619  1.0000
  N   N44       1.0  0.78796  0.33205  0.35394  1.0000
  C   C87       1.0  0.80231  0.31799  0.35812  1.0000
  N   N45       1.0  0.81561  0.33444  0.34198  1.0000
  C   C88       1.0  0.19374  0.14520  0.32101  1.0000
  N   N46       1.0  0.20832  0.13102  0.32123  1.0000
  C   C89       1.0  0.22194  0.14748  0.33659  1.0000
  N   N47       1.0  0.22073  0.17751  0.35481  1.0000
  C   C90       1.0  0.20637  0.19159  0.35822  1.0000
  N   N48       1.0  0.19310  0.17520  0.34083  1.0000
  C   C91       1.0  0.19375  0.36402  0.37709  1.0000
  N   N49       1.0  0.20833  0.37817  0.38105  1.0000
  C   C92       1.0  0.22194  0.36183  0.39780  1.0000
  N   N50       1.0  0.22051  0.33152  0.40931  1.0000
  C   C93       1.0  0.20647  0.31672  0.40702  1.0000
  N   N51       1.0  0.19328  0.33338  0.38883  1.0000
  C   C94       1.0  0.81472  0.14558  0.37520  1.0000
  N   N52       1.0  0.80015  0.13142  0.37975  1.0000
  C   C95       1.0  0.78657  0.14773  0.39764  1.0000
  N   N53       1.0  0.78802  0.17803  0.40931  1.0000
  C   C96       1.0  0.80205  0.19284  0.40644  1.0000
  N   N54       1.0  0.81520  0.17620  0.38731  1.0000
  C   C97       1.0  0.10317  0.12061  0.33439  1.0000
  N   N55       1.0  0.09886  0.09054  0.34899  1.0000
  C   C98       1.0  0.11007  0.06760  0.36006  1.0000
  N   N56       1.0  0.12559  0.07631  0.35163  1.0000
  C   C99       1.0  0.13063  0.10462  0.33429  1.0000
  N   N57       1.0  0.11912  0.12581  0.32630  1.0000
  C   C100      1.0  0.90556  0.38999  0.33655  1.0000
  N   N58       1.0  0.90983  0.42013  0.34994  1.0000
  C   C101      1.0  0.89858  0.44303  0.36056  1.0000
  N   N59       1.0  0.88306  0.43422  0.35295  1.0000
  C   C102      1.0  0.87805  0.40581  0.33677  1.0000
  N   N60       1.0  0.88961  0.38468  0.32910  1.0000
  C   C103      1.0  0.90569  0.12533  0.32877  1.0000
  N   N61       1.0  0.91063  0.09550  0.33893  1.0000
  C   C104      1.0  0.89988  0.07202  0.35150  1.0000
  N   N62       1.0  0.88404  0.07982  0.35148  1.0000
  C   C105      1.0  0.87846  0.10807  0.33786  1.0000
  N   N63       1.0  0.88964  0.12986  0.32772  1.0000
  C   C106      1.0  0.10274  0.38531  0.33375  1.0000
  N   N64       1.0  0.09789  0.41519  0.34371  1.0000
  C   C107      1.0  0.10871  0.43859  0.35551  1.0000
  N   N65       1.0  0.12453  0.43066  0.35524  1.0000
  C   C108      1.0  0.13003  0.40232  0.34199  1.0000
  N   N66       1.0  0.11878  0.38063  0.33243  1.0000
  C   C109      1.0  0.60336  0.37059  0.33472  1.0000
  N   N67       1.0  0.59904  0.34061  0.35055  1.0000
  C   C110      1.0  0.61023  0.31761  0.36085  1.0000
  N   N68       1.0  0.62574  0.32610  0.35012  1.0000
  C   C111      1.0  0.63079  0.35431  0.33119  1.0000
  N   N69       1.0  0.61930  0.37563  0.32427  1.0000
  C   C112      1.0  0.40535  0.14004  0.33655  1.0000
  N   N70       1.0  0.40964  0.17009  0.35137  1.0000
  C   C113      1.0  0.39842  0.19305  0.36139  1.0000
  N   N71       1.0  0.38291  0.18445  0.35134  1.0000
  C   C114      1.0  0.37789  0.15615  0.33336  1.0000
  N   N72       1.0  0.38941  0.13490  0.32668  1.0000
  C   C115      1.0  0.40577  0.37532  0.33474  1.0000
  N   N73       1.0  0.41066  0.34546  0.34483  1.0000
  C   C116      1.0  0.39987  0.32201  0.35719  1.0000
  N   N74       1.0  0.38405  0.32986  0.35698  1.0000
  C   C117      1.0  0.37853  0.35816  0.34338  1.0000
  N   N75       1.0  0.38973  0.37988  0.33335  1.0000
  C   C118      1.0  0.60261  0.13534  0.33966  1.0000
  N   N76       1.0  0.59780  0.16526  0.34954  1.0000
  C   C119      1.0  0.60865  0.18864  0.36106  1.0000
  N   N77       1.0  0.62447  0.18067  0.36050  1.0000
  C   C120      1.0  0.62992  0.15229  0.34734  1.0000
  N   N78       1.0  0.61864  0.13065  0.33795  1.0000
  C   C121      1.0  0.06298  0.28026  0.33453  1.0000
  N   N79       1.0  0.04675  0.27996  0.33825  1.0000
  C   C122      1.0  0.03821  0.25357  0.33784  1.0000
  N   N80       1.0  0.04636  0.22658  0.33434  1.0000
  C   C123      1.0  0.06267  0.22539  0.33166  1.0000
  N   N81       1.0  0.07046  0.25270  0.33111  1.0000
  C   C124      1.0  0.94540  0.23044  0.32573  1.0000
  N   N82       1.0  0.96161  0.23052  0.32620  1.0000
  C   C125      1.0  0.97047  0.25649  0.32675  1.0000
  N   N83       1.0  0.96246  0.28368  0.32940  1.0000
  C   C126      1.0  0.94611  0.28526  0.32880  1.0000
  N   N84       1.0  0.93811  0.25817  0.32643  1.0000
  C   C127      1.0  0.56297  0.03012  0.33855  1.0000
  N   N85       1.0  0.54675  0.02975  0.34204  1.0000
  C   C128      1.0  0.53821  0.00336  0.34112  1.0000
  N   N86       1.0  0.54639  0.47640  0.33729  1.0000
  C   C129      1.0  0.56271  0.47524  0.33475  1.0000
  N   N87       1.0  0.57048  0.00258  0.33474  1.0000
  C   C130      1.0  0.44538  0.48058  0.32963  1.0000
  N   N88       1.0  0.46158  0.48070  0.32988  1.0000
  C   C131      1.0  0.47044  0.50667  0.32987  1.0000
  N   N89       1.0  0.46240  0.03386  0.33218  1.0000
  C   C132      1.0  0.44605  0.03541  0.33166  1.0000
  N   N90       1.0  0.43807  0.50828  0.32986  1.0000
  C   C133      1.0  0.23766  0.13633  0.33203  1.0000
  N   N91       1.0  0.26008  0.11137  0.39606  1.0000
  C   C134      1.0  0.24406  0.11651  0.39678  1.0000
  H   H55       1.0  0.23706  0.10672  0.44515  1.0000
  C   C135      1.0  0.77102  0.37323  0.33116  1.0000
  N   N92       1.0  0.74883  0.39999  0.39089  1.0000
  C   C136      1.0  0.76483  0.39470  0.39175  1.0000
  H   H56       1.0  0.77194  0.40546  0.43771  1.0000
  N   N93       1.0  0.75880  0.15584  0.42704  1.0000
  C   C137      1.0  0.74284  0.15016  0.42391  1.0000
  C   C138      1.0  0.73804  0.12235  0.38464  1.0000
  C   C139      1.0  0.73185  0.17262  0.46434  1.0000
  H   H57       1.0  0.73841  0.19144  0.49479  1.0000
  H   H58       1.0  0.72464  0.16183  0.51658  1.0000
  H   H59       1.0  0.72400  0.18188  0.41260  1.0000
  N   N94       1.0  0.24978  0.35358  0.42506  1.0000
  C   C140      1.0  0.26572  0.35936  0.42173  1.0000
  C   C141      1.0  0.27044  0.38754  0.38449  1.0000
  C   C142      1.0  0.27679  0.33657  0.45984  1.0000
  H   H60       1.0  0.27029  0.31746  0.48909  1.0000
  H   H61       1.0  0.28407  0.34690  0.51258  1.0000
  H   H62       1.0  0.28457  0.32780  0.40700  1.0000
  N   N95       1.0  0.29179  0.02467  0.41862  1.0000
  C   C143      1.0  0.29062  0.49431  0.43195  1.0000
  C   C144      1.0  0.30209  0.47560  0.38819  1.0000
  C   C145      1.0  0.27778  0.48354  0.49268  1.0000
  H   H63       1.0  0.27181  0.50250  0.52613  1.0000
  H   H64       1.0  0.28284  0.46882  0.54448  1.0000
  H   H65       1.0  0.26876  0.47103  0.45473  1.0000
  N   N96       1.0  0.71689  0.48529  0.41753  1.0000
  C   C146      1.0  0.71805  0.01563  0.43112  1.0000
  C   C147      1.0  0.70639  0.03434  0.38894  1.0000
  C   C148      1.0  0.73115  0.02634  0.49019  1.0000
  H   H66       1.0  0.73725  0.00735  0.52278  1.0000
  H   H67       1.0  0.72632  0.04105  0.54271  1.0000
  H   H68       1.0  0.74002  0.03884  0.45113  1.0000
  N   N97       1.0  0.79083  0.27379  0.42143  1.0000
  C   C149      1.0  0.78976  0.24369  0.43954  1.0000
  C   C150      1.0  0.80230  0.22474  0.40721  1.0000
  C   C151      1.0  0.77555  0.23363  0.49103  1.0000
  H   H69       1.0  0.76887  0.25296  0.51777  1.0000
  H   H70       1.0  0.77926  0.21950  0.54764  1.0000
  H   H71       1.0  0.76750  0.22078  0.44767  1.0000
  N   N98       1.0  0.21777  0.23582  0.42190  1.0000
  C   C152      1.0  0.21879  0.26590  0.44015  1.0000
  C   C153      1.0  0.20622  0.28482  0.40797  1.0000
  C   C154      1.0  0.23299  0.27601  0.49167  1.0000
  H   H72       1.0  0.23968  0.25670  0.51847  1.0000
  H   H73       1.0  0.22927  0.29014  0.54825  1.0000
  H   H74       1.0  0.24103  0.28888  0.44831  1.0000
  C   C155      1.0  0.36155  0.14906  0.32182  1.0000
  N   N99       1.0  0.33383  0.15222  0.36009  1.0000
  C   C156      1.0  0.34897  0.16295  0.37011  1.0000
  H   H75       1.0  0.35117  0.17889  0.41838  1.0000
  C   C157      1.0  0.64714  0.36122  0.31962  1.0000
  N   N100      1.0  0.67480  0.35803  0.35918  1.0000
  C   C158      1.0  0.65963  0.34745  0.36896  1.0000
  H   H76       1.0  0.65732  0.33185  0.41802  1.0000
  N   N101      1.0  0.65754  0.16282  0.38740  1.0000
  C   C159      1.0  0.67346  0.15588  0.39396  1.0000
  C   C160      1.0  0.67874  0.12789  0.35675  1.0000
  C   C161      1.0  0.68396  0.17658  0.44518  1.0000
  H   H77       1.0  0.67728  0.19597  0.47144  1.0000
  H   H78       1.0  0.69339  0.18518  0.40138  1.0000
  H   H79       1.0  0.68934  0.16455  0.50181  1.0000
  N   N102      1.0  0.35101  0.34755  0.38514  1.0000
  C   C162      1.0  0.33509  0.35436  0.39222  1.0000
  C   C163      1.0  0.32967  0.38211  0.35405  1.0000
  C   C164      1.0  0.32474  0.33385  0.44507  1.0000
  H   H80       1.0  0.33152  0.31466  0.47181  1.0000
  H   H81       1.0  0.31524  0.32495  0.40226  1.0000
  H   H82       1.0  0.31944  0.34615  0.50145  1.0000
  C   C165      1.0  0.86173  0.39839  0.32751  1.0000
  N   N103      1.0  0.83411  0.40133  0.36823  1.0000
  C   C166      1.0  0.84923  0.41239  0.37620  1.0000
  H   H83       1.0  0.85151  0.42871  0.42322  1.0000
  C   C167      1.0  0.14697  0.11185  0.32497  1.0000
  N   N104      1.0  0.17454  0.10876  0.36668  1.0000
  C   C168      1.0  0.15937  0.09796  0.37469  1.0000
  H   H84       1.0  0.15702  0.08188  0.42232  1.0000
  N   N105      1.0  0.15751  0.41341  0.38346  1.0000
  C   C169      1.0  0.17340  0.40660  0.39286  1.0000
  C   C170      1.0  0.17880  0.37812  0.35972  1.0000
  C   C171      1.0  0.18366  0.42781  0.44387  1.0000
  H   H85       1.0  0.17693  0.44772  0.46596  1.0000
  H   H86       1.0  0.19352  0.43553  0.40152  1.0000
  H   H87       1.0  0.18850  0.41649  0.50325  1.0000
  N   N106      1.0  0.85109  0.09666  0.38044  1.0000
  C   C172      1.0  0.83519  0.10325  0.39031  1.0000
  C   C173      1.0  0.82963  0.13157  0.35676  1.0000
  C   C174      1.0  0.82508  0.08204  0.44227  1.0000
  H   H88       1.0  0.83193  0.06226  0.46442  1.0000
  H   H89       1.0  0.81519  0.07410  0.40058  1.0000
  H   H90       1.0  0.82031  0.09344  0.50167  1.0000
  N   N107      1.0  0.08782  0.20062  0.32371  1.0000
  C   C175      1.0  0.09871  0.17772  0.32253  1.0000
  C   C176      1.0  0.09309  0.14694  0.33030  1.0000
  C   C177      1.0  0.11549  0.18866  0.31520  1.0000
  H   H91       1.0  0.11619  0.21341  0.31041  1.0000
  H   H92       1.0  0.12107  0.17938  0.25482  1.0000
  H   H93       1.0  0.12229  0.18190  0.37455  1.0000
  N   N108      1.0  0.92098  0.31010  0.32538  1.0000
  C   C178      1.0  0.91005  0.33291  0.32559  1.0000
  C   C179      1.0  0.91568  0.36371  0.33247  1.0000
  C   C180      1.0  0.89327  0.32184  0.32022  1.0000
  H   H94       1.0  0.89260  0.29707  0.31626  1.0000
  H   H95       1.0  0.88749  0.33087  0.26013  1.0000
  H   H96       1.0  0.88665  0.32877  0.38003  1.0000
  C   C181      1.0  0.93637  0.20323  0.32466  1.0000
  N   N109      1.0  0.93172  0.14926  0.32901  1.0000
  C   C182      1.0  0.94224  0.17309  0.32857  1.0000
  H   H97       1.0  0.95422  0.16880  0.33316  1.0000
  C   C183      1.0  0.07196  0.30753  0.33316  1.0000
  N   N110      1.0  0.07667  0.36146  0.33810  1.0000
  C   C184      1.0  0.06614  0.33765  0.33921  1.0000
  H   H98       1.0  0.05418  0.34191  0.34619  1.0000
  N   N111      1.0  0.58792  0.45057  0.32591  1.0000
  C   C185      1.0  0.59883  0.42770  0.32404  1.0000
  C   C186      1.0  0.59325  0.39690  0.33158  1.0000
  C   C187      1.0  0.61561  0.43864  0.31684  1.0000
  H   H99       1.0  0.61632  0.46342  0.31306  1.0000
  H   H100      1.0  0.62115  0.42964  0.25599  1.0000
  H   H101      1.0  0.62244  0.43158  0.37578  1.0000
  N   N112      1.0  0.42087  0.06016  0.32716  1.0000
  C   C188      1.0  0.40992  0.08296  0.32663  1.0000
  C   C189      1.0  0.41550  0.11378  0.33338  1.0000
  C   C190      1.0  0.39314  0.07191  0.32109  1.0000
  H   H102      1.0  0.39246  0.04713  0.31801  1.0000
  H   H103      1.0  0.38742  0.08071  0.26049  1.0000
  H   H104      1.0  0.38645  0.07911  0.38042  1.0000
  C   C191      1.0  0.43639  0.45332  0.32925  1.0000
  N   N113      1.0  0.43178  0.39934  0.33432  1.0000
  C   C192      1.0  0.44228  0.42320  0.33335  1.0000
  H   H105      1.0  0.45427  0.41895  0.33763  1.0000
  C   C193      1.0  0.57192  0.05743  0.33786  1.0000
  N   N114      1.0  0.57657  0.11139  0.34348  1.0000
  C   C194      1.0  0.56606  0.08752  0.34414  1.0000
  H   H106      1.0  0.55409  0.09173  0.35075  1.0000
  N   N115      1.0  0.11898  0.48620  0.39484  1.0000
  C   C195      1.0  0.12081  0.01645  0.40316  1.0000
  C   C196      1.0  0.10805  0.03557  0.37259  1.0000
  C   C197      1.0  0.13630  0.02517  0.44469  1.0000
  H   H107      1.0  0.14179  0.00620  0.48080  1.0000
  H   H108      1.0  0.13453  0.04349  0.49314  1.0000
  H   H109      1.0  0.14467  0.03226  0.39253  1.0000
  N   N116      1.0  0.88967  0.02453  0.39269  1.0000
  C   C198      1.0  0.88785  0.49432  0.40211  1.0000
  C   C199      1.0  0.90059  0.47511  0.37192  1.0000
  C   C200      1.0  0.87238  0.48574  0.44418  1.0000
  H   H110      1.0  0.86688  0.50487  0.47951  1.0000
  H   H111      1.0  0.87419  0.46768  0.49341  1.0000
  H   H112      1.0  0.86400  0.47835  0.39246  1.0000
  N   N117      1.0  0.61903  0.23635  0.39884  1.0000
  C   C201      1.0  0.62090  0.26663  0.40595  1.0000
  C   C202      1.0  0.60815  0.28567  0.37493  1.0000
  C   C203      1.0  0.63641  0.27555  0.44677  1.0000
  H   H113      1.0  0.64184  0.25683  0.48426  1.0000
  H   H114      1.0  0.63471  0.29430  0.49385  1.0000
  H   H115      1.0  0.64479  0.28212  0.39407  1.0000
  N   N118      1.0  0.38959  0.27440  0.39696  1.0000
  C   C204      1.0  0.38776  0.24414  0.40520  1.0000
  C   C205      1.0  0.40049  0.22504  0.37444  1.0000
  C   C206      1.0  0.37229  0.23532  0.44681  1.0000
  H   H116      1.0  0.36689  0.25416  0.48388  1.0000
  H   H117      1.0  0.37406  0.21674  0.49441  1.0000
  H   H118      1.0  0.36386  0.22854  0.39460  1.0000
  C   C207      1.0  0.02124  0.25458  0.33681  1.0000
  N   N119      1.0  0.99590  0.27865  0.35982  1.0000
  C   C208      1.0  0.01212  0.27980  0.36551  1.0000
  H   H119      1.0  0.01741  0.29872  0.39205  1.0000
  C   C209      1.0  0.52124  0.00446  0.33990  1.0000
  N   N120      1.0  0.49592  0.02874  0.36253  1.0000
  C   C210      1.0  0.51214  0.02977  0.36827  1.0000
  H   H120      1.0  0.51746  0.04870  0.39455  1.0000
  N   N121      1.0  0.24813  0.64970  0.27415  1.0000
  C   C211      1.0  0.26420  0.64445  0.27213  1.0000
  C   C212      1.0  0.27065  0.62449  0.33769  1.0000
  C   C213      1.0  0.27364  0.65847  0.19902  1.0000
  H   H121      1.0  0.26604  0.67179  0.15413  1.0000
  H   H122      1.0  0.27948  0.64081  0.15927  1.0000
  H   H123      1.0  0.28270  0.67354  0.22723  1.0000
  N   N122      1.0  0.76039  0.85876  0.27656  1.0000
  C   C214      1.0  0.74434  0.86420  0.27421  1.0000
  C   C215      1.0  0.73808  0.88578  0.33577  1.0000
  C   C216      1.0  0.73476  0.84858  0.20464  1.0000
  H   H124      1.0  0.74225  0.83419  0.16217  1.0000
  H   H125      1.0  0.72888  0.86532  0.16168  1.0000
  H   H126      1.0  0.72571  0.83427  0.23633  1.0000
  C   C217      1.0  0.77063  0.63711  0.39657  1.0000
  N   N123      1.0  0.74988  0.60342  0.35467  1.0000
  C   C218      1.0  0.76577  0.60942  0.35851  1.0000
  H   H127      1.0  0.77380  0.59427  0.33245  1.0000
  C   C219      1.0  0.23787  0.87249  0.39652  1.0000
  N   N124      1.0  0.25853  0.90665  0.35644  1.0000
  C   C220      1.0  0.24265  0.90054  0.36045  1.0000
  H   H128      1.0  0.23457  0.91588  0.33590  1.0000
  C   C221      1.0  0.30334  0.53812  0.36851  1.0000
  N   N125      1.0  0.31383  0.98912  0.33922  1.0000
  C   C222      1.0  0.31511  0.51951  0.32908  1.0000
  H   H129      1.0  0.32394  0.52807  0.28895  1.0000
  C   C223      1.0  0.70517  0.97182  0.36867  1.0000
  N   N126      1.0  0.69449  0.52080  0.34129  1.0000
  C   C224      1.0  0.69321  0.99041  0.33097  1.0000
  H   H130      1.0  0.68422  0.98185  0.29194  1.0000
  C   C225      1.0  0.80318  0.78698  0.37717  1.0000
  N   N127      1.0  0.81485  0.73815  0.36457  1.0000
  C   C226      1.0  0.81604  0.76838  0.35044  1.0000
  H   H131      1.0  0.82560  0.77667  0.31546  1.0000
  C   C227      1.0  0.20545  0.72258  0.37754  1.0000
  N   N128      1.0  0.19370  0.77138  0.36512  1.0000
  C   C228      1.0  0.19258  0.74115  0.35071  1.0000
  H   H132      1.0  0.18301  0.73281  0.31582  1.0000
  N   N129      1.0  0.35746  0.62702  0.26237  1.0000
  C   C229      1.0  0.34228  0.61705  0.24825  1.0000
  C   C230      1.0  0.32974  0.63003  0.30067  1.0000
  C   C231      1.0  0.33995  0.59333  0.17888  1.0000
  H   H133      1.0  0.35085  0.58988  0.13951  1.0000
  H   H134      1.0  0.33042  0.60011  0.13288  1.0000
  H   H135      1.0  0.33685  0.57176  0.20992  1.0000
  N   N130      1.0  0.65133  0.88294  0.25938  1.0000
  C   C232      1.0  0.66656  0.89272  0.24541  1.0000
  C   C233      1.0  0.67898  0.87989  0.29895  1.0000
  C   C234      1.0  0.66906  0.91610  0.17518  1.0000
  H   H136      1.0  0.65817  0.91973  0.13583  1.0000
  H   H137      1.0  0.67851  0.90879  0.12929  1.0000
  H   H138      1.0  0.67239  0.93769  0.20530  1.0000
  C   C235      1.0  0.64641  0.64510  0.34562  1.0000
  N   N131      1.0  0.66757  0.61083  0.31331  1.0000
  C   C236      1.0  0.65202  0.61831  0.30460  1.0000
  H   H139      1.0  0.64465  0.60391  0.27050  1.0000
  C   C237      1.0  0.36202  0.86517  0.34200  1.0000
  N   N132      1.0  0.34072  0.89909  0.30942  1.0000
  C   C238      1.0  0.35629  0.89170  0.30014  1.0000
  H   H140      1.0  0.36357  0.90604  0.26522  1.0000
  N   N133      1.0  0.85760  0.87587  0.26983  1.0000
  C   C239      1.0  0.84245  0.86548  0.25778  1.0000
  C   C240      1.0  0.83002  0.87859  0.31073  1.0000
  C   C241      1.0  0.84006  0.84134  0.18968  1.0000
  H   H141      1.0  0.85091  0.83779  0.14977  1.0000
  H   H142      1.0  0.83043  0.84781  0.14382  1.0000
  H   H143      1.0  0.83707  0.81994  0.22177  1.0000
  N   N134      1.0  0.15122  0.63407  0.26652  1.0000
  C   C242      1.0  0.16642  0.64422  0.25452  1.0000
  C   C243      1.0  0.17874  0.63114  0.30825  1.0000
  C   C244      1.0  0.16898  0.66809  0.18581  1.0000
  H   H144      1.0  0.15816  0.67184  0.14589  1.0000
  H   H145      1.0  0.17855  0.66119  0.14008  1.0000
  H   H146      1.0  0.17216  0.68950  0.21731  1.0000
  C   C245      1.0  0.14655  0.89520  0.34210  1.0000
  N   N135      1.0  0.16784  0.86051  0.31661  1.0000
  C   C246      1.0  0.15233  0.86796  0.30460  1.0000
  H   H147      1.0  0.14509  0.85305  0.27157  1.0000
  C   C247      1.0  0.86192  0.61495  0.33830  1.0000
  N   N136      1.0  0.84048  0.64927  0.31302  1.0000
  C   C248      1.0  0.85600  0.64204  0.30060  1.0000
  H   H148      1.0  0.86315  0.65697  0.26702  1.0000
  C   C249      1.0  0.07172  0.69805  0.33029  1.0000
  N   N137      1.0  0.07680  0.64410  0.33704  1.0000
  C   C250      1.0  0.06611  0.66776  0.33638  1.0000
  H   H149      1.0  0.05416  0.66329  0.34230  1.0000
  C   C251      1.0  0.93710  0.81267  0.33022  1.0000
  N   N138      1.0  0.93198  0.86659  0.33772  1.0000
  C   C252      1.0  0.94270  0.84296  0.33619  1.0000
  H   H150      1.0  0.95467  0.84746  0.34061  1.0000
  N   N139      1.0  0.92029  0.70577  0.31932  1.0000
  C   C253      1.0  0.90958  0.68261  0.31808  1.0000
  C   C254      1.0  0.91544  0.65196  0.32404  1.0000
  C   C255      1.0  0.89279  0.69311  0.30976  1.0000
  H   H151      1.0  0.89189  0.71786  0.30545  1.0000
  H   H152      1.0  0.88585  0.68602  0.36821  1.0000
  H   H153      1.0  0.88760  0.68384  0.24837  1.0000
  N   N140      1.0  0.08799  0.80502  0.32415  1.0000
  C   C256      1.0  0.09870  0.82814  0.32147  1.0000
  C   C257      1.0  0.09291  0.85876  0.32973  1.0000
  C   C258      1.0  0.11541  0.81764  0.30857  1.0000
  H   H154      1.0  0.11622  0.79295  0.30175  1.0000
  H   H155      1.0  0.12274  0.82405  0.36620  1.0000
  H   H156      1.0  0.12021  0.82755  0.24706  1.0000
  C   C259      1.0  0.57182  0.94794  0.33287  1.0000
  N   N141      1.0  0.57698  0.89401  0.33894  1.0000
  C   C260      1.0  0.56625  0.91763  0.33884  1.0000
  H   H157      1.0  0.55431  0.91310  0.34517  1.0000
  C   C261      1.0  0.43698  0.56278  0.33256  1.0000
  N   N142      1.0  0.43179  0.61670  0.33939  1.0000
  C   C262      1.0  0.44254  0.59310  0.33849  1.0000
  H   H158      1.0  0.45450  0.59766  0.34335  1.0000
  N   N143      1.0  0.42030  0.95581  0.32447  1.0000
  C   C263      1.0  0.40961  0.93262  0.32388  1.0000
  C   C264      1.0  0.41550  0.90198  0.32980  1.0000
  C   C265      1.0  0.39281  0.94313  0.31609  1.0000
  H   H159      1.0  0.39189  0.96788  0.31227  1.0000
  H   H160      1.0  0.38589  0.93590  0.37448  1.0000
  H   H161      1.0  0.38760  0.93399  0.25459  1.0000
  N   N144      1.0  0.58796  0.55500  0.32931  1.0000
  C   C266      1.0  0.59864  0.57815  0.32723  1.0000
  C   C267      1.0  0.59281  0.60876  0.33552  1.0000
  C   C268      1.0  0.61536  0.56767  0.31452  1.0000
  H   H162      1.0  0.61620  0.54297  0.30813  1.0000
  H   H163      1.0  0.62270  0.57422  0.37197  1.0000
  H   H164      1.0  0.62013  0.57747  0.25279  1.0000
  C   C269      1.0  0.10611  0.97045  0.36502  1.0000
  N   N145      1.0  0.09436  0.52032  0.34843  1.0000
  C   C270      1.0  0.09269  0.98913  0.34677  1.0000
  H   H165      1.0  0.08226  0.97979  0.32392  1.0000
  C   C271      1.0  0.90251  0.54019  0.36205  1.0000
  N   N146      1.0  0.91427  0.99028  0.34693  1.0000
  C   C272      1.0  0.91594  0.52147  0.34424  1.0000
  H   H166      1.0  0.92632  0.53074  0.32064  1.0000
  C   C273      1.0  0.60611  0.72055  0.36994  1.0000
  N   N147      1.0  0.59440  0.77039  0.35184  1.0000
  C   C274      1.0  0.59268  0.73920  0.35151  1.0000
  H   H167      1.0  0.58225  0.72980  0.32905  1.0000
  C   C275      1.0  0.40246  0.79014  0.36706  1.0000
  N   N148      1.0  0.41419  0.74028  0.35032  1.0000
  C   C276      1.0  0.41590  0.77146  0.34895  1.0000
  H   H168      1.0  0.42629  0.78077  0.32556  1.0000
  N   N149      1.0  0.01293  0.73090  0.30171  1.0000
  C   C277      1.0  0.99670  0.72947  0.29446  1.0000
  C   C278      1.0  0.98752  0.75462  0.32638  1.0000
  C   C279      1.0  0.99016  0.70230  0.24866  1.0000
  H   H169      1.0  0.99969  0.68796  0.22157  1.0000
  H   H170      1.0  0.98251  0.70920  0.19278  1.0000
  H   H171      1.0  0.98328  0.68865  0.29602  1.0000
  N   N150      1.0  0.51288  0.48079  0.30513  1.0000
  C   C280      1.0  0.49665  0.47947  0.29782  1.0000
  C   C281      1.0  0.48749  0.50472  0.32938  1.0000
  C   C282      1.0  0.49007  0.45223  0.25257  1.0000
  H   H172      1.0  0.49957  0.43780  0.22562  1.0000
  H   H173      1.0  0.48240  0.45904  0.19666  1.0000
  H   H174      1.0  0.48319  0.93869  0.30025  1.0000
  C   C283      1.0  0.31478  0.61571  0.31322  1.0000
  N   N151      1.0  0.30017  0.62977  0.31784  1.0000
  C   C284      1.0  0.28664  0.61364  0.33897  1.0000
  N   N152      1.0  0.28820  0.58361  0.35683  1.0000
  C   C285      1.0  0.30248  0.56937  0.35402  1.0000
  N   N153      1.0  0.31556  0.58568  0.33220  1.0000
  C   C286      1.0  0.69391  0.89429  0.31175  1.0000
  N   N154      1.0  0.70854  0.88035  0.31591  1.0000
  C   C287      1.0  0.72206  0.89653  0.33704  1.0000
  N   N155      1.0  0.72040  0.92649  0.35564  1.0000
  C   C288      1.0  0.70608  0.94061  0.35349  1.0000
  N   N156      1.0  0.69303  0.92425  0.33145  1.0000
  C   C289      1.0  0.69382  0.61367  0.36870  1.0000
  N   N157      1.0  0.70839  0.62779  0.37319  1.0000
  C   C290      1.0  0.72218  0.61124  0.38181  1.0000
  N   N158      1.0  0.72093  0.58073  0.38808  1.0000
  C   C291      1.0  0.70683  0.56610  0.38686  1.0000
  N   N159      1.0  0.69348  0.58286  0.37498  1.0000
  C   C292      1.0  0.31462  0.89632  0.36689  1.0000
  N   N160      1.0  0.30006  0.88218  0.37190  1.0000
  C   C293      1.0  0.28629  0.89872  0.38143  1.0000
  N   N161      1.0  0.28754  0.92923  0.38791  1.0000
  C   C294      1.0  0.30165  0.94385  0.38615  1.0000
  N   N162      1.0  0.31498  0.92711  0.37341  1.0000
  C   C295      1.0  0.81501  0.86448  0.32279  1.0000
  N   N163      1.0  0.80042  0.87863  0.32230  1.0000
  C   C296      1.0  0.78675  0.86211  0.33619  1.0000
  N   N164      1.0  0.78796  0.83205  0.35394  1.0000
  C   C297      1.0  0.80231  0.81799  0.35812  1.0000
  N   N165      1.0  0.81561  0.83444  0.34198  1.0000
  C   C298      1.0  0.19374  0.64520  0.32101  1.0000
  N   N166      1.0  0.20832  0.63102  0.32123  1.0000
  C   C299      1.0  0.22194  0.64748  0.33659  1.0000
  N   N167      1.0  0.22073  0.67751  0.35481  1.0000
  C   C300      1.0  0.20637  0.69159  0.35822  1.0000
  N   N168      1.0  0.19310  0.67520  0.34083  1.0000
  C   C301      1.0  0.19375  0.86402  0.37709  1.0000
  N   N169      1.0  0.20833  0.87817  0.38105  1.0000
  C   C302      1.0  0.22194  0.86182  0.39780  1.0000
  N   N170      1.0  0.22051  0.83152  0.40931  1.0000
  C   C303      1.0  0.20647  0.81672  0.40702  1.0000
  N   N171      1.0  0.19328  0.83338  0.38883  1.0000
  C   C304      1.0  0.81472  0.64558  0.37520  1.0000
  N   N172      1.0  0.80015  0.63142  0.37975  1.0000
  C   C305      1.0  0.78657  0.64773  0.39764  1.0000
  N   N173      1.0  0.78802  0.67802  0.40931  1.0000
  C   C306      1.0  0.80205  0.69284  0.40644  1.0000
  N   N174      1.0  0.81520  0.67620  0.38731  1.0000
  C   C307      1.0  0.10317  0.62061  0.33439  1.0000
  N   N175      1.0  0.09886  0.59054  0.34899  1.0000
  C   C308      1.0  0.11007  0.56760  0.36006  1.0000
  N   N176      1.0  0.12559  0.57631  0.35163  1.0000
  C   C309      1.0  0.13063  0.60462  0.33429  1.0000
  N   N177      1.0  0.11912  0.62580  0.32630  1.0000
  C   C310      1.0  0.90556  0.88998  0.33655  1.0000
  N   N178      1.0  0.90983  0.92013  0.34994  1.0000
  C   C311      1.0  0.89858  0.94303  0.36056  1.0000
  N   N179      1.0  0.88306  0.93422  0.35295  1.0000
  C   C312      1.0  0.87805  0.90580  0.33677  1.0000
  N   N180      1.0  0.88961  0.88468  0.32910  1.0000
  C   C313      1.0  0.90569  0.62533  0.32877  1.0000
  N   N181      1.0  0.91063  0.59550  0.33893  1.0000
  C   C314      1.0  0.89988  0.57202  0.35150  1.0000
  N   N182      1.0  0.88404  0.57982  0.35148  1.0000
  C   C315      1.0  0.87846  0.60807  0.33786  1.0000
  N   N183      1.0  0.88964  0.62986  0.32772  1.0000
  C   C316      1.0  0.10274  0.88531  0.33375  1.0000
  N   N184      1.0  0.09789  0.91519  0.34371  1.0000
  C   C317      1.0  0.10871  0.93859  0.35551  1.0000
  N   N185      1.0  0.12453  0.93066  0.35524  1.0000
  C   C318      1.0  0.13003  0.90232  0.34199  1.0000
  N   N186      1.0  0.11878  0.88063  0.33243  1.0000
  C   C319      1.0  0.60336  0.87059  0.33472  1.0000
  N   N187      1.0  0.59904  0.84061  0.35055  1.0000
  C   C320      1.0  0.61023  0.81761  0.36085  1.0000
  N   N188      1.0  0.62574  0.82610  0.35012  1.0000
  C   C321      1.0  0.63079  0.85431  0.33119  1.0000
  N   N189      1.0  0.61930  0.87562  0.32427  1.0000
  C   C322      1.0  0.40535  0.64004  0.33655  1.0000
  N   N190      1.0  0.40964  0.67009  0.35137  1.0000
  C   C323      1.0  0.39842  0.69305  0.36139  1.0000
  N   N191      1.0  0.38291  0.68445  0.35134  1.0000
  C   C324      1.0  0.37789  0.65615  0.33336  1.0000
  N   N192      1.0  0.38941  0.63490  0.32668  1.0000
  C   C325      1.0  0.40577  0.87533  0.33474  1.0000
  N   N193      1.0  0.41066  0.84546  0.34483  1.0000
  C   C326      1.0  0.39987  0.82201  0.35719  1.0000
  N   N194      1.0  0.38405  0.82986  0.35698  1.0000
  C   C327      1.0  0.37853  0.85816  0.34338  1.0000
  N   N195      1.0  0.38973  0.87988  0.33335  1.0000
  C   C328      1.0  0.60261  0.63534  0.33966  1.0000
  N   N196      1.0  0.59780  0.66526  0.34954  1.0000
  C   C329      1.0  0.60865  0.68864  0.36106  1.0000
  N   N197      1.0  0.62447  0.68067  0.36050  1.0000
  C   C330      1.0  0.62992  0.65229  0.34734  1.0000
  N   N198      1.0  0.61864  0.63065  0.33795  1.0000
  C   C331      1.0  0.06298  0.78026  0.33453  1.0000
  N   N199      1.0  0.04675  0.77995  0.33825  1.0000
  C   C332      1.0  0.03821  0.75357  0.33784  1.0000
  N   N200      1.0  0.04636  0.72658  0.33434  1.0000
  C   C333      1.0  0.06267  0.72539  0.33166  1.0000
  N   N201      1.0  0.07046  0.75270  0.33111  1.0000
  C   C334      1.0  0.94540  0.73044  0.32573  1.0000
  N   N202      1.0  0.96161  0.73052  0.32620  1.0000
  C   C335      1.0  0.97047  0.75649  0.32675  1.0000
  N   N203      1.0  0.96246  0.78368  0.32940  1.0000
  C   C336      1.0  0.94611  0.78526  0.32880  1.0000
  N   N204      1.0  0.93811  0.75816  0.32643  1.0000
  C   C337      1.0  0.56297  0.53012  0.33855  1.0000
  N   N205      1.0  0.54675  0.52975  0.34204  1.0000
  C   C338      1.0  0.53821  0.50336  0.34112  1.0000
  N   N206      1.0  0.54639  0.97639  0.33729  1.0000
  C   C339      1.0  0.56271  0.97525  0.33475  1.0000
  N   N207      1.0  0.57048  0.50258  0.33474  1.0000
  C   C340      1.0  0.44538  0.98057  0.32963  1.0000
  N   N208      1.0  0.46158  0.98070  0.32988  1.0000
  C   C341      1.0  0.47044  0.00667  0.32987  1.0000
  N   N209      1.0  0.46240  0.53385  0.33218  1.0000
  C   C342      1.0  0.44605  0.53541  0.33166  1.0000
  N   N210      1.0  0.43807  0.00828  0.32986  1.0000
  C   C343      1.0  0.23766  0.63633  0.33203  1.0000
  N   N211      1.0  0.26008  0.61137  0.39606  1.0000
  C   C344      1.0  0.24406  0.61650  0.39678  1.0000
  H   H175      1.0  0.23706  0.60672  0.44515  1.0000
  C   C345      1.0  0.77102  0.87323  0.33116  1.0000
  N   N212      1.0  0.74883  0.89999  0.39089  1.0000
  C   C346      1.0  0.76483  0.89470  0.39175  1.0000
  H   H176      1.0  0.77194  0.90546  0.43771  1.0000
  N   N213      1.0  0.75880  0.65584  0.42704  1.0000
  C   C347      1.0  0.74284  0.65016  0.42391  1.0000
  C   C348      1.0  0.73804  0.62235  0.38464  1.0000
  C   C349      1.0  0.73185  0.67262  0.46434  1.0000
  H   H177      1.0  0.73841  0.69144  0.49479  1.0000
  H   H178      1.0  0.72464  0.66183  0.51658  1.0000
  H   H179      1.0  0.72400  0.68188  0.41260  1.0000
  N   N214      1.0  0.24978  0.85358  0.42506  1.0000
  C   C350      1.0  0.26572  0.85936  0.42173  1.0000
  C   C351      1.0  0.27044  0.88754  0.38449  1.0000
  C   C352      1.0  0.27679  0.83657  0.45984  1.0000
  H   H180      1.0  0.27029  0.81745  0.48909  1.0000
  H   H181      1.0  0.28407  0.84690  0.51258  1.0000
  H   H182      1.0  0.28457  0.82780  0.40700  1.0000
  N   N215      1.0  0.29179  0.52467  0.41862  1.0000
  C   C353      1.0  0.29062  0.99431  0.43195  1.0000
  C   C354      1.0  0.30209  0.97560  0.38819  1.0000
  C   C355      1.0  0.27778  0.98354  0.49268  1.0000
  H   H183      1.0  0.27181  0.00250  0.52613  1.0000
  H   H184      1.0  0.28284  0.96882  0.54448  1.0000
  H   H185      1.0  0.26876  0.97103  0.45473  1.0000
  N   N216      1.0  0.71689  0.98528  0.41753  1.0000
  C   C356      1.0  0.71805  0.51563  0.43112  1.0000
  C   C357      1.0  0.70639  0.53434  0.38894  1.0000
  C   C358      1.0  0.73115  0.52634  0.49019  1.0000
  H   H186      1.0  0.73725  0.50735  0.52278  1.0000
  H   H187      1.0  0.72632  0.54105  0.54271  1.0000
  H   H188      1.0  0.74002  0.53884  0.45113  1.0000
  N   N217      1.0  0.79083  0.77379  0.42143  1.0000
  C   C359      1.0  0.78976  0.74369  0.43954  1.0000
  C   C360      1.0  0.80230  0.72474  0.40721  1.0000
  C   C361      1.0  0.77555  0.73363  0.49103  1.0000
  H   H189      1.0  0.76887  0.75296  0.51777  1.0000
  H   H190      1.0  0.77926  0.71950  0.54764  1.0000
  H   H191      1.0  0.76750  0.72078  0.44767  1.0000
  N   N218      1.0  0.21777  0.73582  0.42190  1.0000
  C   C362      1.0  0.21879  0.76590  0.44015  1.0000
  C   C363      1.0  0.20622  0.78482  0.40797  1.0000
  C   C364      1.0  0.23299  0.77601  0.49167  1.0000
  H   H192      1.0  0.23968  0.75670  0.51847  1.0000
  H   H193      1.0  0.22927  0.79014  0.54825  1.0000
  H   H194      1.0  0.24103  0.78887  0.44831  1.0000
  C   C365      1.0  0.36155  0.64906  0.32182  1.0000
  N   N219      1.0  0.33383  0.65222  0.36009  1.0000
  C   C366      1.0  0.34897  0.66295  0.37011  1.0000
  H   H195      1.0  0.35117  0.67889  0.41838  1.0000
  C   C367      1.0  0.64714  0.86123  0.31962  1.0000
  N   N220      1.0  0.67480  0.85803  0.35918  1.0000
  C   C368      1.0  0.65963  0.84745  0.36896  1.0000
  H   H196      1.0  0.65732  0.83185  0.41802  1.0000
  N   N221      1.0  0.65754  0.66282  0.38740  1.0000
  C   C369      1.0  0.67346  0.65588  0.39396  1.0000
  C   C370      1.0  0.67874  0.62789  0.35675  1.0000
  C   C371      1.0  0.68396  0.67658  0.44518  1.0000
  H   H197      1.0  0.67728  0.69597  0.47144  1.0000
  H   H198      1.0  0.69339  0.68518  0.40138  1.0000
  H   H199      1.0  0.68934  0.66455  0.50181  1.0000
  N   N222      1.0  0.35101  0.84755  0.38514  1.0000
  C   C372      1.0  0.33509  0.85436  0.39222  1.0000
  C   C373      1.0  0.32967  0.88211  0.35405  1.0000
  C   C374      1.0  0.32474  0.83385  0.44507  1.0000
  H   H200      1.0  0.33152  0.81466  0.47181  1.0000
  H   H201      1.0  0.31524  0.82495  0.40226  1.0000
  H   H202      1.0  0.31944  0.84615  0.50145  1.0000
  C   C375      1.0  0.86173  0.89839  0.32751  1.0000
  N   N223      1.0  0.83411  0.90133  0.36823  1.0000
  C   C376      1.0  0.84923  0.91239  0.37620  1.0000
  H   H203      1.0  0.85151  0.92871  0.42322  1.0000
  C   C377      1.0  0.14697  0.61185  0.32497  1.0000
  N   N224      1.0  0.17454  0.60876  0.36668  1.0000
  C   C378      1.0  0.15937  0.59796  0.37469  1.0000
  H   H204      1.0  0.15702  0.58188  0.42232  1.0000
  N   N225      1.0  0.15751  0.91341  0.38346  1.0000
  C   C379      1.0  0.17340  0.90660  0.39286  1.0000
  C   C380      1.0  0.17880  0.87812  0.35972  1.0000
  C   C381      1.0  0.18366  0.92781  0.44387  1.0000
  H   H205      1.0  0.17693  0.94772  0.46596  1.0000
  H   H206      1.0  0.19352  0.93553  0.40152  1.0000
  H   H207      1.0  0.18850  0.91649  0.50325  1.0000
  N   N226      1.0  0.85109  0.59666  0.38044  1.0000
  C   C382      1.0  0.83519  0.60325  0.39031  1.0000
  C   C383      1.0  0.82963  0.63157  0.35676  1.0000
  C   C384      1.0  0.82508  0.58204  0.44228  1.0000
  H   H208      1.0  0.83193  0.56226  0.46442  1.0000
  H   H209      1.0  0.81519  0.57410  0.40058  1.0000
  H   H210      1.0  0.82031  0.59344  0.50167  1.0000
  N   N227      1.0  0.08782  0.70062  0.32371  1.0000
  C   C385      1.0  0.09871  0.67772  0.32253  1.0000
  C   C386      1.0  0.09309  0.64694  0.33030  1.0000
  C   C387      1.0  0.11549  0.68866  0.31520  1.0000
  H   H211      1.0  0.11619  0.71341  0.31041  1.0000
  H   H212      1.0  0.12107  0.67938  0.25482  1.0000
  H   H213      1.0  0.12229  0.68190  0.37455  1.0000
  N   N228      1.0  0.92098  0.81009  0.32538  1.0000
  C   C388      1.0  0.91005  0.83291  0.32559  1.0000
  C   C389      1.0  0.91568  0.86371  0.33247  1.0000
  C   C390      1.0  0.89327  0.82184  0.32022  1.0000
  H   H214      1.0  0.89260  0.79707  0.31626  1.0000
  H   H215      1.0  0.88749  0.83087  0.26013  1.0000
  H   H216      1.0  0.88665  0.82877  0.38003  1.0000
  C   C391      1.0  0.93637  0.70323  0.32466  1.0000
  N   N229      1.0  0.93172  0.64926  0.32901  1.0000
  C   C392      1.0  0.94224  0.67309  0.32857  1.0000
  H   H217      1.0  0.95422  0.66880  0.33316  1.0000
  C   C393      1.0  0.07196  0.80753  0.33316  1.0000
  N   N230      1.0  0.07667  0.86147  0.33810  1.0000
  C   C394      1.0  0.06614  0.83765  0.33921  1.0000
  H   H218      1.0  0.05418  0.84191  0.34619  1.0000
  N   N231      1.0  0.58792  0.95057  0.32591  1.0000
  C   C395      1.0  0.59883  0.92770  0.32404  1.0000
  C   C396      1.0  0.59325  0.89690  0.33158  1.0000
  C   C397      1.0  0.61561  0.93864  0.31684  1.0000
  H   H219      1.0  0.61632  0.96342  0.31306  1.0000
  H   H220      1.0  0.62115  0.92964  0.25599  1.0000
  H   H221      1.0  0.62244  0.93158  0.37578  1.0000
  N   N232      1.0  0.42087  0.56016  0.32716  1.0000
  C   C398      1.0  0.40992  0.58296  0.32663  1.0000
  C   C399      1.0  0.41550  0.61378  0.33338  1.0000
  C   C400      1.0  0.39314  0.57191  0.32109  1.0000
  H   H222      1.0  0.39246  0.54712  0.31801  1.0000
  H   H223      1.0  0.38742  0.58071  0.26049  1.0000
  H   H224      1.0  0.38645  0.57911  0.38042  1.0000
  C   C401      1.0  0.43639  0.95332  0.32925  1.0000
  N   N233      1.0  0.43178  0.89934  0.33432  1.0000
  C   C402      1.0  0.44228  0.92320  0.33335  1.0000
  H   H225      1.0  0.45427  0.91895  0.33763  1.0000
  C   C403      1.0  0.57192  0.55743  0.33786  1.0000
  N   N234      1.0  0.57657  0.61139  0.34348  1.0000
  C   C404      1.0  0.56606  0.58752  0.34414  1.0000
  H   H226      1.0  0.55409  0.59172  0.35075  1.0000
  N   N235      1.0  0.11898  0.98619  0.39484  1.0000
  C   C405      1.0  0.12081  0.51645  0.40316  1.0000
  C   C406      1.0  0.10805  0.53557  0.37259  1.0000
  C   C407      1.0  0.13630  0.52517  0.44469  1.0000
  H   H227      1.0  0.14179  0.50620  0.48080  1.0000
  H   H228      1.0  0.13453  0.54349  0.49314  1.0000
  H   H229      1.0  0.14467  0.53226  0.39253  1.0000
  N   N236      1.0  0.88967  0.52453  0.39269  1.0000
  C   C408      1.0  0.88785  0.99432  0.40211  1.0000
  C   C409      1.0  0.90059  0.97511  0.37192  1.0000
  C   C410      1.0  0.87238  0.98574  0.44418  1.0000
  H   H230      1.0  0.86688  0.00487  0.47951  1.0000
  H   H231      1.0  0.87419  0.96767  0.49341  1.0000
  H   H232      1.0  0.86400  0.97835  0.39246  1.0000
  N   N237      1.0  0.61903  0.73635  0.39885  1.0000
  C   C411      1.0  0.62090  0.76663  0.40595  1.0000
  C   C412      1.0  0.60815  0.78567  0.37493  1.0000
  C   C413      1.0  0.63641  0.77555  0.44677  1.0000
  H   H233      1.0  0.64184  0.75682  0.48426  1.0000
  H   H234      1.0  0.63471  0.79430  0.49385  1.0000
  H   H235      1.0  0.64479  0.78212  0.39407  1.0000
  N   N238      1.0  0.38959  0.77440  0.39696  1.0000
  C   C414      1.0  0.38776  0.74414  0.40520  1.0000
  C   C415      1.0  0.40049  0.72504  0.37444  1.0000
  C   C416      1.0  0.37229  0.73532  0.44681  1.0000
  H   H236      1.0  0.36689  0.75416  0.48388  1.0000
  H   H237      1.0  0.37406  0.71674  0.49441  1.0000
  H   H238      1.0  0.36386  0.72854  0.39460  1.0000
  C   C417      1.0  0.02124  0.75458  0.33681  1.0000
  N   N239      1.0  0.99590  0.77865  0.35982  1.0000
  C   C418      1.0  0.01212  0.77980  0.36551  1.0000
  H   H239      1.0  0.01741  0.79872  0.39204  1.0000
  C   C419      1.0  0.52124  0.50446  0.33990  1.0000
  N   N240      1.0  0.49592  0.52874  0.36253  1.0000
  C   C420      1.0  0.51214  0.52977  0.36827  1.0000
  H   H240      1.0  0.51746  0.54870  0.39455  1.0000
