data_image0
_chemical_formula_structural       C8H3NH2C8H3NH2C8H3NH2C8H3NH2C2H2C2H2C2H2C2H2C2H2C2H2C2H2C2H2C2H2C2H2C2H2C2H2C2H2C2H2C2H2C2H2C8H3NH2C8H3NH2C8H3NH2C8H3NH2C8H3NH2C8H3NH2C8H3NH2C8H3NH2C2H2C2H2C2H2C2H2C2H2C2H2C2H2C2H2C2H2C2H2C2H2C2H2C2H2C2H2C2H2C2H2C2H2C2H2C2H2C2H2CNCNCNCNCNCNCNCNCNCNCNCNCNCNCNCNCNCNCNCNCNCNCNCNCNCNCNCNCNCNCNCNCNCNCNCNCNCNCNCNCNCNCNCNCNCNCNCNCNCNCNCNCNCNCNCNCNCNCNCNC2H2C2H2C2H2C2H2C2H2C2H2C2H2C2H2C8H3NH2C8H3NH2C8H3NH2C8H3NH2C8H3NH2C8H3NH2C8H3NH2C8H3NH2C2H2C2H2C2H2C2H2C2H2C2H2C2H2C2H2C2H2C2H2C2H2C2H2C2H2C2H2C2H2C2H2C8H3NH2C8H3NH2C8H3NH2C8H3NH2C8H3NH2C8H3NH2C8H3NH2C8H3NH2C8H3NH2C8H3NH2
_chemical_formula_sum              "C420 H270 N90"
_cell_length_a       66.0071
_cell_length_b       66.0071
_cell_length_c       14.8671
_cell_angle_alpha    90
_cell_angle_beta     90
_cell_angle_gamma    90

_space_group_name_H-M_alt    "P 1"
_space_group_IT_number       1

loop_
  _space_group_symop_operation_xyz
  'x, y, z'

loop_
  _atom_site_type_symbol
  _atom_site_label
  _atom_site_symmetry_multiplicity
  _atom_site_fract_x
  _atom_site_fract_y
  _atom_site_fract_z
  _atom_site_occupancy
  C   C1        1.0  0.29009  0.03512  0.33989  1.0000
  C   C2        1.0  0.30327  0.02401  0.28346  1.0000
  C   C3        1.0  0.32418  0.02874  0.27603  1.0000
  C   C4        1.0  0.33232  0.04460  0.33039  1.0000
  C   C5        1.0  0.35324  0.05004  0.33087  1.0000
  C   C6        1.0  0.35934  0.07020  0.31343  1.0000
  C   C7        1.0  0.37989  0.07578  0.31723  1.0000
  C   C8        1.0  0.39512  0.06140  0.33804  1.0000
  H   H1        1.0  0.34883  0.08101  0.29733  1.0000
  H   H2        1.0  0.38357  0.09050  0.30339  1.0000
  H   H3        1.0  0.29735  0.01285  0.24349  1.0000
  N   N1        1.0  0.33542  0.01840  0.21444  1.0000
  H   H4        1.0  0.32940  0.00797  0.17660  1.0000
  H   H5        1.0  0.34938  0.02197  0.20154  1.0000
  C   C9        1.0  0.71843  0.97382  0.34526  1.0000
  C   C10       1.0  0.70507  0.98501  0.28994  1.0000
  C   C11       1.0  0.68413  0.98032  0.28384  1.0000
  C   C12       1.0  0.67615  0.96444  0.33858  1.0000
  C   C13       1.0  0.65526  0.95891  0.33976  1.0000
  C   C14       1.0  0.64923  0.93879  0.32116  1.0000
  C   C15       1.0  0.62870  0.93314  0.32445  1.0000
  C   C16       1.0  0.61340  0.94739  0.34606  1.0000
  H   H6        1.0  0.65977  0.92809  0.30411  1.0000
  H   H7        1.0  0.62509  0.91846  0.30929  1.0000
  H   H8        1.0  0.71089  0.99616  0.24960  1.0000
  N   N2        1.0  0.67271  0.99071  0.22310  1.0000
  H   H9        1.0  0.67862  0.00114  0.18497  1.0000
  H   H10       1.0  0.65869  0.98720  0.21118  1.0000
  C   C17       1.0  0.97371  0.29007  0.33990  1.0000
  C   C18       1.0  0.98482  0.30325  0.28344  1.0000
  C   C19       1.0  0.98010  0.32416  0.27604  1.0000
  C   C20       1.0  0.96426  0.33231  0.33050  1.0000
  C   C21       1.0  0.95884  0.35323  0.33101  1.0000
  C   C22       1.0  0.93867  0.35934  0.31381  1.0000
  C   C23       1.0  0.93311  0.37990  0.31757  1.0000
  C   C24       1.0  0.94751  0.39512  0.33815  1.0000
  H   H11       1.0  0.92785  0.34884  0.29786  1.0000
  H   H12       1.0  0.91838  0.38359  0.30390  1.0000
  H   H13       1.0  0.99596  0.29731  0.24341  1.0000
  N   N3        1.0  0.99043  0.33539  0.21440  1.0000
  H   H14       1.0  0.00075  0.32933  0.17611  1.0000
  H   H15       1.0  0.98676  0.34931  0.20114  1.0000
  C   C25       1.0  0.03502  0.71840  0.34529  1.0000
  C   C26       1.0  0.02389  0.70504  0.28979  1.0000
  C   C27       1.0  0.02860  0.68410  0.28371  1.0000
  C   C28       1.0  0.04446  0.67613  0.33861  1.0000
  C   C29       1.0  0.05000  0.65524  0.33984  1.0000
  C   C30       1.0  0.07014  0.64923  0.32155  1.0000
  C   C31       1.0  0.07581  0.62870  0.32486  1.0000
  C   C32       1.0  0.06156  0.61339  0.34618  1.0000
  H   H16       1.0  0.08085  0.65978  0.30464  1.0000
  H   H17       1.0  0.09050  0.62510  0.30985  1.0000
  H   H18       1.0  0.01274  0.71084  0.24940  1.0000
  N   N4        1.0  0.01826  0.67267  0.22285  1.0000
  H   H19       1.0  0.00789  0.67860  0.18441  1.0000
  H   H20       1.0  0.02185  0.65868  0.21072  1.0000
  C   C33       1.0  0.18994  0.55580  0.29049  1.0000
  C   C34       1.0  0.21074  0.55147  0.28825  1.0000
  H   H21       1.0  0.18462  0.56721  0.25022  1.0000
  H   H22       1.0  0.21978  0.55990  0.24672  1.0000
  C   C35       1.0  0.12005  0.54146  0.31925  1.0000
  C   C36       1.0  0.14065  0.53595  0.32121  1.0000
  H   H23       1.0  0.10968  0.53060  0.30217  1.0000
  H   H24       1.0  0.14458  0.52140  0.30518  1.0000
  C   C37       1.0  0.81949  0.45288  0.29762  1.0000
  C   C38       1.0  0.79871  0.45722  0.29414  1.0000
  H   H25       1.0  0.82493  0.44147  0.25766  1.0000
  H   H26       1.0  0.78978  0.44877  0.25217  1.0000
  C   C39       1.0  0.88928  0.46734  0.32849  1.0000
  C   C40       1.0  0.86868  0.47285  0.33083  1.0000
  H   H27       1.0  0.89963  0.47820  0.31136  1.0000
  H   H28       1.0  0.86475  0.48742  0.31509  1.0000
  C   C41       1.0  0.55588  0.81900  0.29043  1.0000
  C   C42       1.0  0.55155  0.79820  0.28822  1.0000
  H   H29       1.0  0.56728  0.82432  0.25013  1.0000
  H   H30       1.0  0.56000  0.78915  0.24673  1.0000
  C   C43       1.0  0.54148  0.88889  0.31933  1.0000
  C   C44       1.0  0.53599  0.86829  0.32131  1.0000
  H   H31       1.0  0.53060  0.89925  0.30241  1.0000
  H   H32       1.0  0.52143  0.86435  0.30542  1.0000
  C   C45       1.0  0.45295  0.18944  0.29753  1.0000
  C   C46       1.0  0.45731  0.21022  0.29406  1.0000
  H   H33       1.0  0.44155  0.18401  0.25749  1.0000
  H   H34       1.0  0.44889  0.21915  0.25198  1.0000
  C   C47       1.0  0.46735  0.11964  0.32860  1.0000
  C   C48       1.0  0.47287  0.14024  0.33096  1.0000
  H   H35       1.0  0.47822  0.10928  0.31160  1.0000
  H   H36       1.0  0.48745  0.14416  0.31538  1.0000
  C   C49       1.0  0.19884  0.08555  0.30792  1.0000
  C   C50       1.0  0.20776  0.06613  0.30733  1.0000
  H   H37       1.0  0.18879  0.08908  0.25785  1.0000
  H   H38       1.0  0.20416  0.05633  0.25646  1.0000
  C   C51       1.0  0.16911  0.14529  0.35636  1.0000
  C   C52       1.0  0.17615  0.12514  0.36266  1.0000
  H   H39       1.0  0.15383  0.14772  0.35938  1.0000
  H   H40       1.0  0.16582  0.11371  0.37048  1.0000
  C   C53       1.0  0.80985  0.92333  0.30896  1.0000
  C   C54       1.0  0.80085  0.94271  0.30859  1.0000
  H   H41       1.0  0.81995  0.91989  0.25897  1.0000
  H   H42       1.0  0.80448  0.95261  0.25813  1.0000
  C   C55       1.0  0.83973  0.86360  0.35698  1.0000
  C   C56       1.0  0.83264  0.88374  0.36332  1.0000
  H   H43       1.0  0.85502  0.86120  0.36018  1.0000
  H   H44       1.0  0.84293  0.89518  0.37148  1.0000
  C   C57       1.0  0.92331  0.19871  0.30814  1.0000
  C   C58       1.0  0.94271  0.20767  0.30744  1.0000
  H   H45       1.0  0.91982  0.18861  0.25828  1.0000
  H   H46       1.0  0.95257  0.20400  0.25687  1.0000
  C   C59       1.0  0.86355  0.16901  0.35664  1.0000
  C   C60       1.0  0.88370  0.17606  0.36291  1.0000
  H   H47       1.0  0.86113  0.15373  0.35973  1.0000
  H   H48       1.0  0.89513  0.16574  0.37080  1.0000
  C   C61       1.0  0.08549  0.80981  0.30908  1.0000
  C   C62       1.0  0.06610  0.80084  0.30879  1.0000
  H   H49       1.0  0.08894  0.81990  0.25907  1.0000
  H   H50       1.0  0.05623  0.80446  0.25822  1.0000
  C   C63       1.0  0.14525  0.83963  0.35694  1.0000
  C   C64       1.0  0.12511  0.83255  0.36335  1.0000
  H   H51       1.0  0.14765  0.85492  0.36016  1.0000
  H   H52       1.0  0.11367  0.84285  0.37152  1.0000
  C   C65       1.0  0.28593  0.56179  0.31322  1.0000
  C   C66       1.0  0.28073  0.57634  0.24732  1.0000
  C   C67       1.0  0.29003  0.59567  0.24313  1.0000
  C   C68       1.0  0.30457  0.60107  0.31011  1.0000
  C   C69       1.0  0.31213  0.62133  0.31956  1.0000
  C   C70       1.0  0.29860  0.63778  0.33006  1.0000
  C   C71       1.0  0.30571  0.65785  0.33620  1.0000
  C   C72       1.0  0.32670  0.66241  0.33373  1.0000
  H   H53       1.0  0.28331  0.63529  0.33230  1.0000
  H   H54       1.0  0.29520  0.66914  0.34255  1.0000
  H   H55       1.0  0.26968  0.57282  0.20147  1.0000
  N   N5        1.0  0.28470  0.60826  0.17452  1.0000
  H   H56       1.0  0.27501  0.60410  0.12875  1.0000
  H   H57       1.0  0.29163  0.62103  0.16421  1.0000
  C   C73       1.0  0.72337  0.44699  0.31528  1.0000
  C   C74       1.0  0.72862  0.43247  0.24931  1.0000
  C   C75       1.0  0.71924  0.41317  0.24467  1.0000
  C   C76       1.0  0.70462  0.40778  0.31125  1.0000
  C   C77       1.0  0.69698  0.38753  0.32034  1.0000
  C   C78       1.0  0.71047  0.37103  0.33078  1.0000
  C   C79       1.0  0.70331  0.35098  0.33673  1.0000
  C   C80       1.0  0.68231  0.34647  0.33416  1.0000
  H   H58       1.0  0.72577  0.37348  0.33314  1.0000
  H   H59       1.0  0.71379  0.33966  0.34307  1.0000
  H   H60       1.0  0.73972  0.43598  0.20376  1.0000
  N   N6        1.0  0.72461  0.40061  0.17598  1.0000
  H   H61       1.0  0.73435  0.40478  0.13047  1.0000
  H   H62       1.0  0.71763  0.38788  0.16532  1.0000
  C   C81       1.0  0.56190  0.72299  0.31345  1.0000
  C   C82       1.0  0.57648  0.72824  0.24771  1.0000
  C   C83       1.0  0.59581  0.71892  0.24349  1.0000
  C   C84       1.0  0.60117  0.70433  0.31029  1.0000
  C   C85       1.0  0.62143  0.69674  0.31970  1.0000
  C   C86       1.0  0.63789  0.71026  0.33033  1.0000
  C   C87       1.0  0.65796  0.70314  0.33644  1.0000
  C   C88       1.0  0.66251  0.68215  0.33387  1.0000
  H   H63       1.0  0.63541  0.72556  0.33265  1.0000
  H   H64       1.0  0.66925  0.71364  0.34289  1.0000
  H   H65       1.0  0.57299  0.73932  0.20200  1.0000
  N   N7        1.0  0.60843  0.72430  0.17506  1.0000
  H   H66       1.0  0.60421  0.73391  0.12906  1.0000
  H   H67       1.0  0.62111  0.71724  0.16439  1.0000
  C   C89       1.0  0.44711  0.28555  0.31513  1.0000
  C   C90       1.0  0.43257  0.28026  0.24931  1.0000
  C   C91       1.0  0.41327  0.28961  0.24463  1.0000
  C   C92       1.0  0.40788  0.30427  0.31110  1.0000
  C   C93       1.0  0.38762  0.31188  0.32022  1.0000
  C   C94       1.0  0.37113  0.29839  0.33078  1.0000
  C   C95       1.0  0.35107  0.30554  0.33671  1.0000
  C   C96       1.0  0.34655  0.32653  0.33402  1.0000
  H   H68       1.0  0.37359  0.28309  0.33321  1.0000
  H   H69       1.0  0.33976  0.29505  0.34313  1.0000
  H   H70       1.0  0.43608  0.26912  0.20386  1.0000
  N   N8        1.0  0.40068  0.28420  0.17609  1.0000
  H   H71       1.0  0.40489  0.27449  0.13049  1.0000
  H   H72       1.0  0.38799  0.29122  0.16524  1.0000
  C   C97       1.0  0.23436  0.98795  0.32122  1.0000
  C   C98       1.0  0.24512  0.97408  0.26651  1.0000
  C   C99       1.0  0.24011  0.95320  0.26183  1.0000
  C   C100      1.0  0.22427  0.94551  0.31765  1.0000
  C   C101      1.0  0.21969  0.92427  0.32487  1.0000
  C   C102      1.0  0.23493  0.90999  0.34664  1.0000
  C   C103      1.0  0.23067  0.88907  0.35107  1.0000
  C   C104      1.0  0.21086  0.88148  0.33619  1.0000
  H   H73       1.0  0.24944  0.91472  0.35870  1.0000
  H   H74       1.0  0.24231  0.87944  0.36616  1.0000
  H   H75       1.0  0.25677  0.97940  0.22764  1.0000
  N   N9        1.0  0.25047  0.94145  0.20213  1.0000
  H   H76       1.0  0.26090  0.94714  0.16335  1.0000
  H   H77       1.0  0.24660  0.92752  0.19011  1.0000
  C   C105      1.0  0.77424  0.02081  0.32285  1.0000
  C   C106      1.0  0.76346  0.03464  0.26807  1.0000
  C   C107      1.0  0.76850  0.05552  0.26301  1.0000
  C   C108      1.0  0.78439  0.06323  0.31856  1.0000
  C   C109      1.0  0.78899  0.08447  0.32547  1.0000
  C   C110      1.0  0.77377  0.09878  0.34711  1.0000
  C   C111      1.0  0.77806  0.11969  0.35137  1.0000
  C   C112      1.0  0.79787  0.12725  0.33643  1.0000
  H   H78       1.0  0.75926  0.09407  0.35923  1.0000
  H   H79       1.0  0.76643  0.12935  0.36638  1.0000
  H   H80       1.0  0.75178  0.02930  0.22942  1.0000
  N   N10       1.0  0.75814  0.06723  0.20323  1.0000
  H   H81       1.0  0.74768  0.06152  0.16464  1.0000
  H   H82       1.0  0.76203  0.08114  0.19094  1.0000
  C   C113      1.0  0.02088  0.23436  0.32126  1.0000
  C   C114      1.0  0.03474  0.24515  0.26661  1.0000
  C   C115      1.0  0.05563  0.24016  0.26193  1.0000
  C   C116      1.0  0.06333  0.22430  0.31769  1.0000
  C   C117      1.0  0.08457  0.21974  0.32484  1.0000
  C   C118      1.0  0.09885  0.23498  0.34657  1.0000
  C   C119      1.0  0.11976  0.23073  0.35095  1.0000
  C   C120      1.0  0.12736  0.21092  0.33608  1.0000
  H   H83       1.0  0.09411  0.24949  0.35861  1.0000
  H   H84       1.0  0.12940  0.24237  0.36601  1.0000
  H   H85       1.0  0.02941  0.25681  0.22782  1.0000
  N   N11       1.0  0.06738  0.25055  0.20236  1.0000
  H   H86       1.0  0.06163  0.26087  0.16318  1.0000
  H   H87       1.0  0.08125  0.24656  0.18989  1.0000
  C   C121      1.0  0.98801  0.77422  0.32292  1.0000
  C   C122      1.0  0.97416  0.76343  0.26826  1.0000
  C   C123      1.0  0.95329  0.76849  0.26317  1.0000
  C   C124      1.0  0.94560  0.78441  0.31857  1.0000
  C   C125      1.0  0.92437  0.78903  0.32554  1.0000
  C   C126      1.0  0.91005  0.77382  0.34727  1.0000
  C   C127      1.0  0.88914  0.77811  0.35153  1.0000
  C   C128      1.0  0.88158  0.79793  0.33655  1.0000
  H   H88       1.0  0.91475  0.75931  0.35940  1.0000
  H   H89       1.0  0.87948  0.76649  0.36661  1.0000
  H   H90       1.0  0.97948  0.75171  0.22975  1.0000
  N   N12       1.0  0.94155  0.75810  0.20354  1.0000
  H   H91       1.0  0.94728  0.74768  0.16482  1.0000
  H   H92       1.0  0.92768  0.76207  0.19098  1.0000
  C   C129      1.0  0.29575  0.46004  0.31590  1.0000
  C   C130      1.0  0.29104  0.48086  0.31362  1.0000
  H   H93       1.0  0.30685  0.45484  0.27372  1.0000
  H   H94       1.0  0.29873  0.48999  0.26969  1.0000
  C   C131      1.0  0.31343  0.39657  0.37050  1.0000
  C   C132      1.0  0.30925  0.41750  0.37598  1.0000
  H   H95       1.0  0.32805  0.39194  0.38022  1.0000
  H   H96       1.0  0.32091  0.42723  0.38977  1.0000
  C   C133      1.0  0.71352  0.54869  0.31692  1.0000
  C   C134      1.0  0.71828  0.52788  0.31493  1.0000
  H   H97       1.0  0.70243  0.55384  0.27458  1.0000
  H   H98       1.0  0.71060  0.51870  0.27119  1.0000
  C   C135      1.0  0.69572  0.61218  0.37088  1.0000
  C   C136      1.0  0.69992  0.59125  0.37648  1.0000
  H   H99       1.0  0.68108  0.61678  0.38047  1.0000
  H   H100      1.0  0.68827  0.58150  0.39032  1.0000
  C   C137      1.0  0.46014  0.71319  0.31601  1.0000
  C   C138      1.0  0.48096  0.71790  0.31368  1.0000
  H   H101      1.0  0.45494  0.70207  0.27393  1.0000
  H   H102      1.0  0.49010  0.71017  0.26996  1.0000
  C   C139      1.0  0.39666  0.69557  0.37054  1.0000
  C   C140      1.0  0.41759  0.69973  0.37601  1.0000
  H   H103      1.0  0.39203  0.68094  0.38018  1.0000
  H   H104      1.0  0.42733  0.68807  0.38973  1.0000
  C   C141      1.0  0.54877  0.29546  0.31705  1.0000
  C   C142      1.0  0.52796  0.29069  0.31510  1.0000
  H   H105      1.0  0.55391  0.30657  0.27478  1.0000
  H   H106      1.0  0.51878  0.29837  0.27134  1.0000
  C   C143      1.0  0.61227  0.31328  0.37088  1.0000
  C   C144      1.0  0.59134  0.30906  0.37651  1.0000
  H   H107      1.0  0.61687  0.32791  0.38053  1.0000
  H   H108      1.0  0.58159  0.32071  0.39040  1.0000
  C   C145      1.0  0.26086  0.27867  0.30189  1.0000
  C   C146      1.0  0.27641  0.29324  0.29948  1.0000
  H   H109      1.0  0.26286  0.26562  0.26578  1.0000
  H   H110      1.0  0.28907  0.29019  0.26217  1.0000
  C   C147      1.0  0.21838  0.23014  0.37073  1.0000
  C   C148      1.0  0.23294  0.24576  0.37309  1.0000
  H   H111      1.0  0.22297  0.21584  0.38744  1.0000
  H   H112      1.0  0.24745  0.24218  0.39145  1.0000
  C   C149      1.0  0.74814  0.73013  0.30192  1.0000
  C   C150      1.0  0.73262  0.71553  0.29949  1.0000
  H   H113      1.0  0.74613  0.74318  0.26578  1.0000
  H   H114      1.0  0.71994  0.71857  0.26219  1.0000
  C   C151      1.0  0.79057  0.77871  0.37075  1.0000
  C   C152      1.0  0.77602  0.76309  0.37306  1.0000
  H   H115      1.0  0.78597  0.79302  0.38740  1.0000
  H   H116      1.0  0.76151  0.76665  0.39138  1.0000
  C   C153      1.0  0.73022  0.26081  0.30216  1.0000
  C   C154      1.0  0.71564  0.27635  0.29973  1.0000
  H   H117      1.0  0.74329  0.26283  0.26618  1.0000
  H   H118      1.0  0.71871  0.28904  0.26261  1.0000
  C   C155      1.0  0.77872  0.21828  0.37083  1.0000
  C   C156      1.0  0.76311  0.23285  0.37316  1.0000
  H   H119      1.0  0.79302  0.22286  0.38755  1.0000
  H   H120      1.0  0.76669  0.24735  0.39155  1.0000
  C   C157      1.0  0.27872  0.74804  0.30189  1.0000
  C   C158      1.0  0.29331  0.73252  0.29947  1.0000
  H   H121      1.0  0.26566  0.74603  0.26583  1.0000
  H   H122      1.0  0.29026  0.71984  0.26220  1.0000
  C   C159      1.0  0.23015  0.79049  0.37075  1.0000
  C   C160      1.0  0.24578  0.77594  0.37306  1.0000
  H   H123      1.0  0.21585  0.78588  0.38746  1.0000
  H   H124      1.0  0.24222  0.76143  0.39143  1.0000
  C   C161      1.0  0.51116  0.98050  0.29128  1.0000
  C   C162      1.0  0.52603  0.96531  0.28869  1.0000
  H   H125      1.0  0.49985  0.98009  0.24419  1.0000
  H   H126      1.0  0.52511  0.95433  0.24025  1.0000
  C   C163      1.0  0.46089  0.02148  0.35362  1.0000
  C   C164      1.0  0.47588  0.00636  0.35733  1.0000
  H   H127      1.0  0.44608  0.01706  0.35817  1.0000
  H   H128      1.0  0.47150  0.99158  0.36464  1.0000
  C   C165      1.0  0.02846  0.51114  0.29135  1.0000
  C   C166      1.0  0.04364  0.52602  0.28874  1.0000
  H   H129      1.0  0.02887  0.49982  0.24432  1.0000
  H   H130      1.0  0.05465  0.52507  0.24044  1.0000
  C   C167      1.0  0.98745  0.46089  0.35376  1.0000
  C   C168      1.0  0.00258  0.47588  0.35741  1.0000
  H   H131      1.0  0.99187  0.44608  0.35836  1.0000
  H   H132      1.0  0.01735  0.47150  0.36482  1.0000
  C   C169      1.0  0.23531  0.04355  0.35832  1.0000
  N   N13       1.0  0.22810  0.02438  0.34471  1.0000
  C   C170      1.0  0.24096  0.00845  0.33000  1.0000
  N   N14       1.0  0.26124  0.01230  0.32838  1.0000
  C   C171      1.0  0.26896  0.03112  0.34199  1.0000
  N   N15       1.0  0.25566  0.04639  0.35682  1.0000
  C   C172      1.0  0.77326  0.96522  0.36014  1.0000
  N   N16       1.0  0.78047  0.98436  0.34606  1.0000
  C   C173      1.0  0.76761  0.00033  0.33207  1.0000
  N   N17       1.0  0.74732  0.99654  0.33172  1.0000
  C   C174      1.0  0.73958  0.97775  0.34588  1.0000
  N   N18       1.0  0.75289  0.96245  0.35993  1.0000
  C   C175      1.0  0.96527  0.23528  0.35818  1.0000
  N   N19       1.0  0.98444  0.22809  0.34467  1.0000
  C   C176      1.0  0.00037  0.24095  0.33004  1.0000
  N   N20       1.0  0.99652  0.26122  0.32841  1.0000
  C   C177      1.0  0.97770  0.26894  0.34197  1.0000
  N   N21       1.0  0.96243  0.25564  0.35674  1.0000
  C   C178      1.0  0.04360  0.77322  0.36016  1.0000
  N   N22       1.0  0.02446  0.78043  0.34612  1.0000
  C   C179      1.0  0.00849  0.76757  0.33211  1.0000
  N   N23       1.0  0.01228  0.74728  0.33175  1.0000
  C   C180      1.0  0.03107  0.73954  0.34592  1.0000
  N   N24       1.0  0.04637  0.75285  0.35996  1.0000
  C   C181      1.0  0.27376  0.54420  0.32452  1.0000
  N   N25       1.0  0.28101  0.52511  0.33956  1.0000
  C   C182      1.0  0.26817  0.50917  0.35446  1.0000
  N   N26       1.0  0.24788  0.51292  0.35472  1.0000
  C   C183      1.0  0.24010  0.53166  0.33964  1.0000
  N   N27       1.0  0.25339  0.54694  0.32474  1.0000
  C   C184      1.0  0.73556  0.46456  0.32696  1.0000
  N   N28       1.0  0.72830  0.48367  0.34138  1.0000
  C   C185      1.0  0.74111  0.49961  0.35670  1.0000
  N   N29       1.0  0.76140  0.49582  0.35808  1.0000
  C   C186      1.0  0.76919  0.47706  0.34366  1.0000
  N   N30       1.0  0.75593  0.46178  0.32825  1.0000
  C   C187      1.0  0.54432  0.73517  0.32475  1.0000
  N   N31       1.0  0.52522  0.72793  0.33968  1.0000
  C   C188      1.0  0.50928  0.74076  0.35448  1.0000
  N   N32       1.0  0.51303  0.76106  0.35473  1.0000
  C   C189      1.0  0.53177  0.76883  0.33972  1.0000
  N   N33       1.0  0.54706  0.75555  0.32490  1.0000
  C   C190      1.0  0.46467  0.27335  0.32693  1.0000
  N   N34       1.0  0.48378  0.28061  0.34130  1.0000
  C   C191      1.0  0.49972  0.26779  0.35665  1.0000
  N   N35       1.0  0.49593  0.24750  0.35806  1.0000
  C   C192      1.0  0.47717  0.23972  0.34365  1.0000
  N   N36       1.0  0.46189  0.25298  0.32823  1.0000
  C   C193      1.0  0.17572  0.18243  0.34556  1.0000
  N   N37       1.0  0.15566  0.18721  0.34185  1.0000
  C   C194      1.0  0.14865  0.20664  0.33988  1.0000
  N   N38       1.0  0.16283  0.22170  0.34169  1.0000
  C   C195      1.0  0.18315  0.21804  0.34555  1.0000
  N   N39       1.0  0.18896  0.19825  0.34752  1.0000
  C   C196      1.0  0.83322  0.82645  0.34576  1.0000
  N   N40       1.0  0.85328  0.82168  0.34217  1.0000
  C   C197      1.0  0.86029  0.80225  0.34022  1.0000
  N   N41       1.0  0.84612  0.78718  0.34195  1.0000
  C   C198      1.0  0.82580  0.79083  0.34569  1.0000
  N   N42       1.0  0.81999  0.81062  0.34765  1.0000
  C   C199      1.0  0.82641  0.17560  0.34565  1.0000
  N   N43       1.0  0.82162  0.15554  0.34204  1.0000
  C   C200      1.0  0.80219  0.14854  0.34009  1.0000
  N   N44       1.0  0.78713  0.16273  0.34185  1.0000
  C   C201      1.0  0.79080  0.18305  0.34561  1.0000
  N   N45       1.0  0.81060  0.18884  0.34756  1.0000
  C   C202      1.0  0.18240  0.83310  0.34567  1.0000
  N   N46       1.0  0.18715  0.85317  0.34198  1.0000
  C   C203      1.0  0.20658  0.86019  0.33998  1.0000
  N   N47       1.0  0.22165  0.84602  0.34174  1.0000
  C   C204      1.0  0.21801  0.82570  0.34557  1.0000
  N   N48       1.0  0.19823  0.81988  0.34758  1.0000
  C   C205      1.0  0.33377  0.68293  0.33872  1.0000
  N   N49       1.0  0.35385  0.68757  0.34425  1.0000
  C   C206      1.0  0.36096  0.70694  0.34961  1.0000
  N   N50       1.0  0.34688  0.72209  0.34983  1.0000
  C   C207      1.0  0.32660  0.71850  0.34388  1.0000
  N   N51       1.0  0.32059  0.69882  0.33830  1.0000
  C   C208      1.0  0.67520  0.32596  0.33903  1.0000
  N   N52       1.0  0.65511  0.32133  0.34454  1.0000
  C   C209      1.0  0.64799  0.30196  0.34980  1.0000
  N   N53       1.0  0.66206  0.28681  0.34999  1.0000
  C   C210      1.0  0.68234  0.29038  0.34406  1.0000
  N   N54       1.0  0.68836  0.31006  0.33855  1.0000
  C   C211      1.0  0.68303  0.67507  0.33887  1.0000
  N   N55       1.0  0.68767  0.65499  0.34444  1.0000
  C   C212      1.0  0.70704  0.64789  0.34982  1.0000
  N   N56       1.0  0.72219  0.66197  0.35005  1.0000
  C   C213      1.0  0.71859  0.68225  0.34405  1.0000
  N   N57       1.0  0.69891  0.68826  0.33844  1.0000
  C   C214      1.0  0.32604  0.33364  0.33889  1.0000
  N   N58       1.0  0.32143  0.35373  0.34435  1.0000
  C   C215      1.0  0.30206  0.36086  0.34963  1.0000
  N   N59       1.0  0.28690  0.34680  0.34986  1.0000
  C   C216      1.0  0.29047  0.32651  0.34397  1.0000
  N   N60       1.0  0.31014  0.32048  0.33846  1.0000
  C   C217      1.0  0.44159  0.09257  0.34428  1.0000
  N   N61       1.0  0.45576  0.07762  0.34483  1.0000
  C   C218      1.0  0.45089  0.05759  0.34373  1.0000
  N   N62       1.0  0.43086  0.05282  0.34194  1.0000
  C   C219      1.0  0.41596  0.06703  0.34086  1.0000
  N   N63       1.0  0.42181  0.08678  0.34222  1.0000
  C   C220      1.0  0.56701  0.91605  0.33941  1.0000
  N   N64       1.0  0.55270  0.93087  0.34055  1.0000
  C   C221      1.0  0.55770  0.95079  0.34556  1.0000
  N   N65       1.0  0.57760  0.95591  0.34898  1.0000
  C   C222      1.0  0.59254  0.94174  0.34637  1.0000
  N   N66       1.0  0.58676  0.92197  0.34210  1.0000
  C   C223      1.0  0.91636  0.44160  0.34436  1.0000
  N   N67       1.0  0.93132  0.45577  0.34488  1.0000
  C   C224      1.0  0.95134  0.45089  0.34377  1.0000
  N   N68       1.0  0.95611  0.43086  0.34200  1.0000
  C   C225      1.0  0.94190  0.41596  0.34095  1.0000
  N   N69       1.0  0.92214  0.42182  0.34234  1.0000
  C   C226      1.0  0.09290  0.56700  0.33949  1.0000
  N   N70       1.0  0.07808  0.55269  0.34060  1.0000
  C   C227      1.0  0.05816  0.55769  0.34561  1.0000
  N   N71       1.0  0.05304  0.57759  0.34905  1.0000
  C   C228      1.0  0.06721  0.59253  0.34647  1.0000
  N   N72       1.0  0.08698  0.58675  0.34220  1.0000
  C   C229      1.0  0.31916  0.05543  0.38812  1.0000
  C   C230      1.0  0.29840  0.05097  0.39186  1.0000
  H   H133      1.0  0.32459  0.06676  0.42857  1.0000
  H   H134      1.0  0.28948  0.05925  0.43453  1.0000
  C   C231      1.0  0.38890  0.04124  0.35576  1.0000
  C   C232      1.0  0.36831  0.03571  0.35331  1.0000
  H   H135      1.0  0.39926  0.03034  0.37240  1.0000
  H   H136      1.0  0.36441  0.02110  0.36844  1.0000
  C   C233      1.0  0.68948  0.95355  0.39529  1.0000
  C   C234      1.0  0.71026  0.95797  0.39769  1.0000
  H   H137      1.0  0.68417  0.94219  0.43583  1.0000
  H   H138      1.0  0.71931  0.94962  0.43954  1.0000
  C   C235      1.0  0.61956  0.96749  0.36542  1.0000
  C   C236      1.0  0.64013  0.97311  0.36329  1.0000
  H   H139      1.0  0.60915  0.97832  0.38227  1.0000
  H   H140      1.0  0.64399  0.98770  0.37902  1.0000
  C   C237      1.0  0.95343  0.31915  0.38827  1.0000
  C   C238      1.0  0.95788  0.29839  0.39198  1.0000
  H   H141      1.0  0.94212  0.32459  0.42878  1.0000
  H   H142      1.0  0.94960  0.28947  0.43464  1.0000
  C   C239      1.0  0.96768  0.38889  0.35568  1.0000
  C   C240      1.0  0.97319  0.36830  0.35321  1.0000
  H   H143      1.0  0.97859  0.39924  0.37208  1.0000
  H   H144      1.0  0.98781  0.36439  0.36814  1.0000
  C   C241      1.0  0.05530  0.68946  0.39548  1.0000
  C   C242      1.0  0.05086  0.71023  0.39787  1.0000
  H   H145      1.0  0.06664  0.68416  0.43616  1.0000
  H   H146      1.0  0.05916  0.71929  0.43988  1.0000
  C   C243      1.0  0.04143  0.61954  0.36526  1.0000
  C   C244      1.0  0.03580  0.64010  0.36311  1.0000
  H   H147      1.0  0.03060  0.60911  0.38190  1.0000
  H   H148      1.0  0.02119  0.64394  0.37862  1.0000
  C   C245      1.0  0.21893  0.53555  0.34025  1.0000
  C   C246      1.0  0.20558  0.52424  0.39505  1.0000
  C   C247      1.0  0.18461  0.52882  0.40093  1.0000
  C   C248      1.0  0.17661  0.54476  0.34660  1.0000
  C   C249      1.0  0.15569  0.55020  0.34521  1.0000
  C   C250      1.0  0.14956  0.57027  0.36421  1.0000
  C   C251      1.0  0.12900  0.57582  0.36090  1.0000
  C   C252      1.0  0.11378  0.56150  0.33906  1.0000
  H   H149      1.0  0.16003  0.58100  0.38167  1.0000
  H   H150      1.0  0.12530  0.59044  0.37663  1.0000
  H   H151      1.0  0.21139  0.51302  0.43503  1.0000
  N   N73       1.0  0.17318  0.51828  0.46115  1.0000
  H   H152      1.0  0.17911  0.50781  0.49901  1.0000
  H   H153      1.0  0.15914  0.52172  0.47300  1.0000
  C   C253      1.0  0.79036  0.47316  0.34553  1.0000
  C   C254      1.0  0.80357  0.48449  0.40098  1.0000
  C   C255      1.0  0.82451  0.47990  0.40815  1.0000
  C   C256      1.0  0.83268  0.46393  0.35443  1.0000
  C   C257      1.0  0.85362  0.45855  0.35397  1.0000
  C   C258      1.0  0.85976  0.43844  0.37228  1.0000
  C   C259      1.0  0.88032  0.43288  0.36858  1.0000
  C   C260      1.0  0.89553  0.44723  0.34701  1.0000
  H   H154      1.0  0.84928  0.42766  0.38898  1.0000
  H   H155      1.0  0.88402  0.41820  0.38307  1.0000
  H   H156      1.0  0.79763  0.49571  0.44058  1.0000
  N   N74       1.0  0.83576  0.49047  0.46891  1.0000
  H   H157      1.0  0.82973  0.50096  0.50632  1.0000
  H   H158      1.0  0.84976  0.48701  0.48167  1.0000
  C   C261      1.0  0.53565  0.79000  0.34027  1.0000
  C   C262      1.0  0.52433  0.80335  0.39508  1.0000
  C   C263      1.0  0.52891  0.82432  0.40093  1.0000
  C   C264      1.0  0.54483  0.83233  0.34654  1.0000
  C   C265      1.0  0.55025  0.85325  0.34512  1.0000
  C   C266      1.0  0.57033  0.85940  0.36391  1.0000
  C   C267      1.0  0.57587  0.87996  0.36065  1.0000
  C   C268      1.0  0.56153  0.89517  0.33900  1.0000
  H   H159      1.0  0.58108  0.84893  0.38128  1.0000
  H   H160      1.0  0.59049  0.88366  0.37625  1.0000
  H   H161      1.0  0.51313  0.79753  0.43509  1.0000
  N   N75       1.0  0.51836  0.83575  0.46114  1.0000
  H   H162      1.0  0.50799  0.82978  0.49943  1.0000
  H   H163      1.0  0.52190  0.84975  0.47337  1.0000
  C   C269      1.0  0.47324  0.21856  0.34553  1.0000
  C   C270      1.0  0.48454  0.20534  0.40109  1.0000
  C   C271      1.0  0.47992  0.18440  0.40824  1.0000
  C   C272      1.0  0.46397  0.17625  0.35444  1.0000
  C   C273      1.0  0.45856  0.15531  0.35392  1.0000
  C   C274      1.0  0.43845  0.14918  0.37203  1.0000
  C   C275      1.0  0.43287  0.12862  0.36827  1.0000
  C   C276      1.0  0.44722  0.11340  0.34691  1.0000
  H   H164      1.0  0.42766  0.15967  0.38862  1.0000
  H   H165      1.0  0.41818  0.12493  0.38266  1.0000
  H   H166      1.0  0.49577  0.21126  0.44068  1.0000
  N   N76       1.0  0.49047  0.17313  0.46905  1.0000
  H   H167      1.0  0.50091  0.17919  0.50672  1.0000
  H   H168      1.0  0.48694  0.15917  0.48202  1.0000
  C   C277      1.0  0.22312  0.06112  0.36945  1.0000
  C   C278      1.0  0.22835  0.07572  0.43507  1.0000
  C   C279      1.0  0.21911  0.09509  0.43879  1.0000
  C   C280      1.0  0.20462  0.10045  0.37162  1.0000
  C   C281      1.0  0.19711  0.12072  0.36179  1.0000
  C   C282      1.0  0.21069  0.13711  0.35069  1.0000
  C   C283      1.0  0.20366  0.15722  0.34501  1.0000
  C   C284      1.0  0.18270  0.16186  0.34862  1.0000
  H   H169      1.0  0.22597  0.13456  0.34801  1.0000
  H   H170      1.0  0.21420  0.16847  0.33854  1.0000
  H   H171      1.0  0.23939  0.07223  0.48098  1.0000
  N   N77       1.0  0.22449  0.10775  0.50710  1.0000
  H   H172      1.0  0.23416  0.10360  0.55299  1.0000
  H   H173      1.0  0.21761  0.12056  0.51705  1.0000
  C   C285      1.0  0.78544  0.94761  0.37068  1.0000
  C   C286      1.0  0.78025  0.93293  0.43606  1.0000
  C   C287      1.0  0.78955  0.91360  0.43947  1.0000
  C   C288      1.0  0.80409  0.90835  0.37230  1.0000
  C   C289      1.0  0.81167  0.88811  0.36221  1.0000
  C   C290      1.0  0.79814  0.87169  0.35068  1.0000
  C   C291      1.0  0.80523  0.85160  0.34492  1.0000
  C   C292      1.0  0.82620  0.84700  0.34884  1.0000
  H   H174      1.0  0.78286  0.87420  0.34783  1.0000
  H   H175      1.0  0.79472  0.84033  0.33815  1.0000
  H   H176      1.0  0.76920  0.93636  0.48203  1.0000
  N   N78       1.0  0.78420  0.90086  0.50753  1.0000
  H   H177      1.0  0.77450  0.90493  0.55342  1.0000
  H   H178      1.0  0.79112  0.88806  0.51729  1.0000
  C   C293      1.0  0.94770  0.22309  0.36934  1.0000
  C   C294      1.0  0.93307  0.22838  0.43476  1.0000
  C   C295      1.0  0.91371  0.21912  0.43852  1.0000
  C   C296      1.0  0.90838  0.20455  0.37158  1.0000
  C   C297      1.0  0.88811  0.19703  0.36179  1.0000
  C   C298      1.0  0.87171  0.21059  0.35047  1.0000
  C   C299      1.0  0.85161  0.20355  0.34486  1.0000
  C   C300      1.0  0.84698  0.18258  0.34868  1.0000
  H   H179      1.0  0.87425  0.22587  0.34765  1.0000
  H   H180      1.0  0.84035  0.21408  0.33824  1.0000
  H   H181      1.0  0.93653  0.23946  0.48049  1.0000
  N   N79       1.0  0.90101  0.22456  0.50661  1.0000
  H   H182      1.0  0.90521  0.23415  0.55270  1.0000
  H   H183      1.0  0.88828  0.21755  0.51693  1.0000
  C   C301      1.0  0.06120  0.78542  0.37078  1.0000
  C   C302      1.0  0.07589  0.78018  0.43604  1.0000
  C   C303      1.0  0.09523  0.78947  0.43945  1.0000
  C   C304      1.0  0.10049  0.80402  0.37235  1.0000
  C   C305      1.0  0.12073  0.81158  0.36221  1.0000
  C   C306      1.0  0.13714  0.79804  0.35063  1.0000
  C   C307      1.0  0.15723  0.80512  0.34486  1.0000
  C   C308      1.0  0.16184  0.82608  0.34877  1.0000
  H   H184      1.0  0.13462  0.78276  0.34781  1.0000
  H   H185      1.0  0.16850  0.79460  0.33810  1.0000
  H   H186      1.0  0.07247  0.76912  0.48195  1.0000
  N   N80       1.0  0.10799  0.78408  0.50740  1.0000
  H   H187      1.0  0.10388  0.77443  0.55342  1.0000
  H   H188      1.0  0.12076  0.79104  0.51734  1.0000
  C   C309      1.0  0.31031  0.58621  0.37411  1.0000
  C   C310      1.0  0.30133  0.56682  0.37513  1.0000
  H   H189      1.0  0.32037  0.58975  0.42406  1.0000
  H   H190      1.0  0.30493  0.55705  0.42614  1.0000
  C   C311      1.0  0.34022  0.64579  0.32626  1.0000
  C   C312      1.0  0.33311  0.62567  0.31948  1.0000
  H   H191      1.0  0.35552  0.64815  0.32424  1.0000
  H   H192      1.0  0.34341  0.61420  0.31223  1.0000
  C   C313      1.0  0.69884  0.42262  0.37526  1.0000
  C   C314      1.0  0.70790  0.44197  0.37678  1.0000
  H   H193      1.0  0.68869  0.41909  0.42491  1.0000
  H   H194      1.0  0.70423  0.45175  0.42766  1.0000
  C   C315      1.0  0.66883  0.36313  0.32671  1.0000
  C   C316      1.0  0.67599  0.38324  0.32016  1.0000
  H   H195      1.0  0.65352  0.36081  0.32469  1.0000
  H   H196      1.0  0.66572  0.39473  0.31297  1.0000
  C   C317      1.0  0.58629  0.69854  0.37406  1.0000
  C   C318      1.0  0.56691  0.70755  0.37518  1.0000
  H   H197      1.0  0.58980  0.68842  0.42384  1.0000
  H   H198      1.0  0.55710  0.70388  0.42592  1.0000
  C   C319      1.0  0.64588  0.66864  0.32626  1.0000
  C   C320      1.0  0.62576  0.67576  0.31948  1.0000
  H   H199      1.0  0.64823  0.65333  0.32423  1.0000
  H   H200      1.0  0.61429  0.66547  0.31222  1.0000
  C   C321      1.0  0.42273  0.31008  0.37500  1.0000
  C   C322      1.0  0.44210  0.30106  0.37647  1.0000
  H   H201      1.0  0.41918  0.32023  0.42463  1.0000
  H   H202      1.0  0.45185  0.30472  0.42744  1.0000
  C   C323      1.0  0.36321  0.34002  0.32647  1.0000
  C   C324      1.0  0.38332  0.33287  0.31989  1.0000
  H   H203      1.0  0.36088  0.35533  0.32434  1.0000
  H   H204      1.0  0.39480  0.34315  0.31263  1.0000
  C   C325      1.0  0.21321  0.95948  0.37095  1.0000
  C   C326      1.0  0.21796  0.98031  0.37183  1.0000
  H   H205      1.0  0.20191  0.95449  0.41254  1.0000
  H   H206      1.0  0.21008  0.98963  0.41425  1.0000
  C   C327      1.0  0.19550  0.89592  0.31750  1.0000
  C   C328      1.0  0.19981  0.91682  0.31180  1.0000
  H   H207      1.0  0.18094  0.89135  0.30586  1.0000
  H   H208      1.0  0.18830  0.92658  0.29600  1.0000
  C   C329      1.0  0.79546  0.04928  0.37191  1.0000
  C   C330      1.0  0.79068  0.02846  0.37318  1.0000
  H   H209      1.0  0.80679  0.05429  0.41329  1.0000
  H   H210      1.0  0.79859  0.01915  0.41554  1.0000
  C   C331      1.0  0.81321  0.11279  0.31780  1.0000
  C   C332      1.0  0.80888  0.09188  0.31234  1.0000
  H   H211      1.0  0.82779  0.11733  0.30620  1.0000
  H   H212      1.0  0.82037  0.08211  0.29662  1.0000
  C   C333      1.0  0.04936  0.21321  0.37086  1.0000
  C   C334      1.0  0.02853  0.21795  0.37180  1.0000
  H   H213      1.0  0.05436  0.20189  0.41235  1.0000
  H   H214      1.0  0.01920  0.21003  0.41403  1.0000
  C   C335      1.0  0.11292  0.19556  0.31738  1.0000
  C   C336      1.0  0.09202  0.19986  0.31173  1.0000
  H   H215      1.0  0.11750  0.18099  0.30582  1.0000
  H   H216      1.0  0.08227  0.18835  0.29601  1.0000
  C   C337      1.0  0.95957  0.79549  0.37179  1.0000
  C   C338      1.0  0.98038  0.79070  0.37303  1.0000
  H   H217      1.0  0.95458  0.80684  0.41312  1.0000
  H   H218      1.0  0.98970  0.79860  0.41541  1.0000
  C   C339      1.0  0.89605  0.81326  0.31788  1.0000
  C   C340      1.0  0.91695  0.80892  0.31236  1.0000
  H   H219      1.0  0.89151  0.82784  0.30624  1.0000
  H   H220      1.0  0.92673  0.82041  0.29661  1.0000
  C   C341      1.0  0.27484  0.48873  0.36479  1.0000
  C   C342      1.0  0.26428  0.47514  0.42157  1.0000
  C   C343      1.0  0.26930  0.45427  0.42772  1.0000
  C   C344      1.0  0.28491  0.44631  0.37128  1.0000
  C   C345      1.0  0.28934  0.42503  0.36506  1.0000
  C   C346      1.0  0.27390  0.41077  0.34586  1.0000
  C   C347      1.0  0.27803  0.38983  0.34169  1.0000
  C   C348      1.0  0.29790  0.38217  0.35420  1.0000
  H   H221      1.0  0.25935  0.41555  0.33524  1.0000
  H   H222      1.0  0.26626  0.38024  0.32821  1.0000
  H   H223      1.0  0.25277  0.48065  0.46077  1.0000
  N   N81       1.0  0.25920  0.44281  0.48931  1.0000
  H   H224      1.0  0.24894  0.44869  0.52845  1.0000
  H   H225      1.0  0.26313  0.42895  0.50230  1.0000
  C   C349      1.0  0.73444  0.52005  0.36649  1.0000
  C   C350      1.0  0.74494  0.53371  0.42320  1.0000
  C   C351      1.0  0.73989  0.55457  0.42899  1.0000
  C   C352      1.0  0.72432  0.56247  0.37223  1.0000
  C   C353      1.0  0.71985  0.58374  0.36574  1.0000
  C   C354      1.0  0.73527  0.59801  0.34650  1.0000
  C   C355      1.0  0.73111  0.61894  0.34213  1.0000
  C   C356      1.0  0.71123  0.62658  0.35452  1.0000
  H   H226      1.0  0.74983  0.59325  0.33603  1.0000
  H   H227      1.0  0.74288  0.62856  0.32868  1.0000
  H   H228      1.0  0.75642  0.52823  0.46271  1.0000
  N   N82       1.0  0.74995  0.56609  0.49053  1.0000
  H   H229      1.0  0.76018  0.56025  0.52989  1.0000
  H   H230      1.0  0.74599  0.57996  0.50326  1.0000
  C   C357      1.0  0.48884  0.73411  0.36481  1.0000
  C   C358      1.0  0.47525  0.74469  0.42149  1.0000
  C   C359      1.0  0.45438  0.73969  0.42765  1.0000
  C   C360      1.0  0.44642  0.72408  0.37125  1.0000
  C   C361      1.0  0.42513  0.71965  0.36508  1.0000
  C   C362      1.0  0.41087  0.73509  0.34592  1.0000
  C   C363      1.0  0.38993  0.73097  0.34176  1.0000
  C   C364      1.0  0.38227  0.71110  0.35423  1.0000
  H   H231      1.0  0.41565  0.74964  0.33532  1.0000
  H   H232      1.0  0.38034  0.74275  0.32830  1.0000
  H   H233      1.0  0.48077  0.75621  0.46064  1.0000
  N   N83       1.0  0.44291  0.74983  0.48911  1.0000
  H   H234      1.0  0.44885  0.75997  0.52866  1.0000
  H   H235      1.0  0.42910  0.74577  0.50252  1.0000
  C   C365      1.0  0.52016  0.27448  0.36642  1.0000
  C   C366      1.0  0.53383  0.26396  0.42301  1.0000
  C   C367      1.0  0.55469  0.26904  0.42883  1.0000
  C   C368      1.0  0.56257  0.28465  0.37223  1.0000
  C   C369      1.0  0.58384  0.28913  0.36570  1.0000
  C   C370      1.0  0.59812  0.27372  0.34637  1.0000
  C   C371      1.0  0.61905  0.27789  0.34203  1.0000
  C   C372      1.0  0.62668  0.29777  0.35447  1.0000
  H   H236      1.0  0.59336  0.25916  0.33585  1.0000
  H   H237      1.0  0.62866  0.26613  0.32849  1.0000
  H   H238      1.0  0.52838  0.25245  0.46238  1.0000
  N   N84       1.0  0.56623  0.25896  0.49022  1.0000
  H   H239      1.0  0.56037  0.24876  0.52970  1.0000
  H   H240      1.0  0.58007  0.26299  0.50323  1.0000
  C   C373      1.0  0.27446  0.31193  0.34500  1.0000
  C   C374      1.0  0.25639  0.31523  0.39405  1.0000
  C   C375      1.0  0.24086  0.30036  0.40068  1.0000
  C   C376      1.0  0.24289  0.28175  0.35225  1.0000
  C   C377      1.0  0.22779  0.26601  0.35177  1.0000
  C   C378      1.0  0.20744  0.26988  0.32692  1.0000
  C   C379      1.0  0.19278  0.25431  0.32605  1.0000
  C   C380      1.0  0.19789  0.23402  0.34763  1.0000
  H   H241      1.0  0.20311  0.28420  0.30886  1.0000
  H   H242      1.0  0.17831  0.25794  0.30757  1.0000
  H   H243      1.0  0.25495  0.32841  0.42983  1.0000
  N   N85       1.0  0.22501  0.30421  0.45679  1.0000
  H   H244      1.0  0.22422  0.31675  0.49108  1.0000
  H   H245      1.0  0.21488  0.29401  0.47042  1.0000
  C   C381      1.0  0.73458  0.69686  0.34506  1.0000
  C   C382      1.0  0.75265  0.69358  0.39414  1.0000
  C   C383      1.0  0.76815  0.70848  0.40082  1.0000
  C   C384      1.0  0.76611  0.72708  0.35232  1.0000
  C   C385      1.0  0.78119  0.74283  0.35183  1.0000
  C   C386      1.0  0.80154  0.73898  0.32706  1.0000
  C   C387      1.0  0.81619  0.75456  0.32616  1.0000
  C   C388      1.0  0.81107  0.77485  0.34772  1.0000
  H   H246      1.0  0.80589  0.72466  0.30905  1.0000
  H   H247      1.0  0.83068  0.75093  0.30780  1.0000
  H   H248      1.0  0.75410  0.68042  0.43002  1.0000
  N   N86       1.0  0.78400  0.70466  0.45699  1.0000
  H   H249      1.0  0.78480  0.69212  0.49130  1.0000
  H   H250      1.0  0.79411  0.71487  0.47064  1.0000
  C   C389      1.0  0.69693  0.27438  0.34506  1.0000
  C   C390      1.0  0.69361  0.25628  0.39390  1.0000
  C   C391      1.0  0.70849  0.24076  0.40052  1.0000
  C   C392      1.0  0.72711  0.24281  0.35229  1.0000
  C   C393      1.0  0.74285  0.22771  0.35178  1.0000
  C   C394      1.0  0.73898  0.20737  0.32689  1.0000
  C   C395      1.0  0.75455  0.19270  0.32602  1.0000
  C   C396      1.0  0.77484  0.19779  0.34767  1.0000
  H   H251      1.0  0.72466  0.20305  0.30877  1.0000
  H   H252      1.0  0.75090  0.17823  0.30751  1.0000
  H   H253      1.0  0.68041  0.25482  0.42952  1.0000
  N   N87       1.0  0.70461  0.22487  0.45642  1.0000
  H   H254      1.0  0.69211  0.22415  0.49104  1.0000
  H   H255      1.0  0.71487  0.21484  0.47054  1.0000
  C   C397      1.0  0.31200  0.73449  0.34491  1.0000
  C   C398      1.0  0.31529  0.75257  0.39389  1.0000
  C   C399      1.0  0.30040  0.76808  0.40055  1.0000
  C   C400      1.0  0.28179  0.76603  0.35218  1.0000
  C   C401      1.0  0.26603  0.78111  0.35170  1.0000
  C   C402      1.0  0.26988  0.80146  0.32687  1.0000
  C   C403      1.0  0.25428  0.81611  0.32601  1.0000
  C   C404      1.0  0.23400  0.81098  0.34762  1.0000
  H   H256      1.0  0.28419  0.80580  0.30877  1.0000
  H   H257      1.0  0.25791  0.83059  0.30752  1.0000
  H   H258      1.0  0.32847  0.75404  0.42960  1.0000
  N   N88       1.0  0.30424  0.78396  0.45654  1.0000
  H   H259      1.0  0.31676  0.78472  0.49102  1.0000
  H   H260      1.0  0.29401  0.79403  0.47044  1.0000
  C   C405      1.0  0.54253  0.96582  0.34884  1.0000
  C   C406      1.0  0.54338  0.98145  0.41356  1.0000
  C   C407      1.0  0.52800  0.99635  0.42025  1.0000
  C   C408      1.0  0.51188  0.99617  0.35625  1.0000
  C   C409      1.0  0.49665  0.01146  0.35294  1.0000
  C   C410      1.0  0.50194  0.03207  0.34250  1.0000
  C   C411      1.0  0.48694  0.04719  0.33974  1.0000
  C   C412      1.0  0.46609  0.04224  0.34551  1.0000
  H   H261      1.0  0.51682  0.03626  0.33727  1.0000
  H   H262      1.0  0.49153  0.06191  0.33292  1.0000
  H   H263      1.0  0.55499  0.98148  0.45929  1.0000
  N   N89       1.0  0.52898  0.00979  0.48964  1.0000
  H   H264      1.0  0.53987  0.00923  0.53374  1.0000
  H   H265      1.0  0.51809  0.01926  0.50197  1.0000
  C   C413      1.0  0.04313  0.54252  0.34886  1.0000
  C   C414      1.0  0.02747  0.54340  0.41347  1.0000
  C   C415      1.0  0.01257  0.52801  0.42017  1.0000
  C   C416      1.0  0.01277  0.51188  0.35624  1.0000
  C   C417      1.0  0.99748  0.49665  0.35292  1.0000
  C   C418      1.0  0.97687  0.50194  0.34239  1.0000
  C   C419      1.0  0.96175  0.48694  0.33962  1.0000
  C   C420      1.0  0.96669  0.46609  0.34553  1.0000
  H   H266      1.0  0.97268  0.51682  0.33707  1.0000
  H   H267      1.0  0.94703  0.49153  0.33275  1.0000
  H   H268      1.0  0.02745  0.55500  0.45921  1.0000
  N   N90       1.0  0.99912  0.52901  0.48949  1.0000
  H   H269      1.0  0.99967  0.53991  0.53355  1.0000
  H   H270      1.0  0.98964  0.51812  0.50182  1.0000
