data_image0
_chemical_formula_structural       NC3H3NC3H3NC3H3NC3H3NC3H3NC3H3CNCHCNCHCNCHCNCHCNCHCNCHCNCHCNCHCNCHCNCHCNCHCNCHNC3H3NC3H3NC3H3NC3H3NC3H3NC3H3CNCHCNCHCNCHCNCHCNCHCNCHCNCHCNCHCNCHCNCHCNCHCNCHNC3H3NC3H3NC3H3NC3H3NC3H3NC3H3CNCHCNCHCNCHCNCHCNCHCNCHNC3H3NC3H3NC3H3NC3H3NC3H3NC3H3CNCNCNCNCNCNCNCNCNCNCNCNCNCNCNCNCNCNCNCNCNCNCNCNCNCNCNCNCNCNCNCNCNCNCNCNCNCNCNCNCNCNCNCNCNCNCNCNCNCNCNCNCNCNCNCNCNCNCNCNCNCNCNCNCNCNCNCNCNCNCNCNCNCNCNCNCNCNCNCNCNCNCNCNCNCNCNCNCNCNCNCNCNCNCNCNCNCNCNCNCNCNCNCNCNCNCNCNCNCHCNCHCNCHCNCHCNCHCNCHNC3H3NC3H3NC3H3NC3H3NC3H3NC3H3NC3H3NC3H3NC3H3NC3H3NC3H3NC3H3CNCHCNCHCNCHCNCHCNCHCNCHNC3H3NC3H3NC3H3NC3H3NC3H3NC3H3NC3H3NC3H3NC3H3NC3H3NC3H3NC3H3CNCHCNCHCNCHCNCHCNCHCNCHNC3H3NC3H3NC3H3NC3H3NC3H3NC3H3CNCHCNCHCNCHCNCHCNCHCNCH
_chemical_formula_sum              "N216 C378 H216"
_cell_length_a       66.3937
_cell_length_b       66.3936
_cell_length_c       14.8593
_cell_angle_alpha    90
_cell_angle_beta     90
_cell_angle_gamma    120

_space_group_name_H-M_alt    "P 1"
_space_group_IT_number       1

loop_
  _space_group_symop_operation_xyz
  'x, y, z'

loop_
  _atom_site_type_symbol
  _atom_site_label
  _atom_site_symmetry_multiplicity
  _atom_site_fract_x
  _atom_site_fract_y
  _atom_site_fract_z
  _atom_site_occupancy
  N   N1        1.0  0.12067  0.34957  0.33207  1.0000
  C   C1        1.0  0.11824  0.32770  0.32960  1.0000
  C   C2        1.0  0.13142  0.32272  0.39216  1.0000
  C   C3        1.0  0.10618  0.31251  0.25206  1.0000
  H   H1        1.0  0.09770  0.31972  0.21084  1.0000
  H   H2        1.0  0.09291  0.29541  0.27601  1.0000
  H   H3        1.0  0.11859  0.31058  0.20997  1.0000
  N   N2        1.0  0.66216  0.77344  0.33007  1.0000
  C   C4        1.0  0.68401  0.79289  0.32713  1.0000
  C   C5        1.0  0.68899  0.81110  0.38946  1.0000
  C   C6        1.0  0.69909  0.79602  0.24922  1.0000
  H   H4        1.0  0.69186  0.78029  0.20814  1.0000
  H   H5        1.0  0.71624  0.79993  0.27272  1.0000
  H   H6        1.0  0.70089  0.81030  0.20711  1.0000
  N   N3        1.0  0.23833  0.89126  0.33113  1.0000
  C   C7        1.0  0.21885  0.89361  0.32861  1.0000
  C   C8        1.0  0.20068  0.88036  0.39105  1.0000
  C   C9        1.0  0.21567  0.90561  0.25097  1.0000
  H   H7        1.0  0.23137  0.91414  0.20977  1.0000
  H   H8        1.0  0.21176  0.91883  0.27480  1.0000
  H   H9        1.0  0.20137  0.89316  0.20887  1.0000
  N   N4        1.0  0.89365  0.65991  0.33189  1.0000
  C   C10       1.0  0.89609  0.68178  0.32979  1.0000
  C   C11       1.0  0.88286  0.68668  0.39237  1.0000
  C   C12       1.0  0.90815  0.69702  0.25237  1.0000
  H   H10       1.0  0.91667  0.68986  0.21106  1.0000
  H   H11       1.0  0.92138  0.71412  0.27642  1.0000
  H   H12       1.0  0.89573  0.69893  0.21030  1.0000
  N   N5        1.0  0.35204  0.23596  0.32931  1.0000
  C   C13       1.0  0.33019  0.21651  0.32641  1.0000
  C   C14       1.0  0.32514  0.19830  0.38881  1.0000
  C   C15       1.0  0.31516  0.21341  0.24833  1.0000
  H   H13       1.0  0.32244  0.22913  0.20722  1.0000
  H   H14       1.0  0.29800  0.20953  0.27167  1.0000
  H   H15       1.0  0.31335  0.19911  0.20630  1.0000
  N   N6        1.0  0.77585  0.11828  0.33198  1.0000
  C   C16       1.0  0.79531  0.11590  0.32940  1.0000
  C   C17       1.0  0.81350  0.12912  0.39180  1.0000
  C   C18       1.0  0.79844  0.10383  0.25185  1.0000
  H   H16       1.0  0.78272  0.09532  0.21068  1.0000
  H   H17       1.0  0.80231  0.09060  0.27575  1.0000
  H   H18       1.0  0.81274  0.11624  0.20968  1.0000
  C   C19       1.0  0.36561  0.13106  0.42954  1.0000
  N   N7        1.0  0.32710  0.11658  0.37374  1.0000
  C   C20       1.0  0.34715  0.11543  0.37354  1.0000
  H   H19       1.0  0.35015  0.10737  0.32099  1.0000
  C   C21       1.0  0.77494  0.64608  0.43124  1.0000
  N   N8        1.0  0.79908  0.68475  0.37689  1.0000
  C   C22       1.0  0.77790  0.66469  0.37584  1.0000
  H   H20       1.0  0.76677  0.66179  0.32358  1.0000
  C   C23       1.0  0.88068  0.23691  0.43026  1.0000
  N   N9        1.0  0.89518  0.21275  0.37559  1.0000
  C   C24       1.0  0.89622  0.23390  0.37444  1.0000
  H   H21       1.0  0.90451  0.24503  0.32224  1.0000
  C   C25       1.0  0.64856  0.87845  0.43034  1.0000
  N   N10       1.0  0.68709  0.89290  0.37450  1.0000
  C   C26       1.0  0.66702  0.89402  0.37421  1.0000
  H   H22       1.0  0.66400  0.90220  0.32215  1.0000
  C   C27       1.0  0.23921  0.36330  0.43035  1.0000
  N   N11       1.0  0.21507  0.32463  0.37586  1.0000
  C   C28       1.0  0.23624  0.34471  0.37476  1.0000
  H   H23       1.0  0.24735  0.34763  0.32245  1.0000
  C   C29       1.0  0.13354  0.77255  0.43047  1.0000
  N   N12       1.0  0.11898  0.79660  0.37578  1.0000
  C   C30       1.0  0.11784  0.77540  0.37499  1.0000
  H   H24       1.0  0.10976  0.76440  0.32227  1.0000
  C   C31       1.0  0.20154  0.43538  0.41249  1.0000
  N   N13       1.0  0.24019  0.44628  0.36696  1.0000
  C   C32       1.0  0.22096  0.44866  0.35627  1.0000
  H   H25       1.0  0.21905  0.45558  0.29768  1.0000
  C   C33       1.0  0.57667  0.76870  0.41251  1.0000
  N   N14       1.0  0.56561  0.79642  0.36802  1.0000
  C   C34       1.0  0.56329  0.77484  0.35684  1.0000
  H   H26       1.0  0.55615  0.76601  0.29842  1.0000
  C   C35       1.0  0.24332  0.81040  0.41182  1.0000
  N   N15       1.0  0.21563  0.77173  0.36694  1.0000
  C   C36       1.0  0.23727  0.79093  0.35598  1.0000
  H   H27       1.0  0.24587  0.79278  0.29686  1.0000
  C   C37       1.0  0.81265  0.57399  0.41138  1.0000
  N   N16       1.0  0.77400  0.56320  0.36607  1.0000
  C   C38       1.0  0.79322  0.56082  0.35501  1.0000
  H   H28       1.0  0.79513  0.55401  0.29611  1.0000
  C   C39       1.0  0.43767  0.24094  0.41268  1.0000
  N   N17       1.0  0.44865  0.21317  0.36791  1.0000
  C   C40       1.0  0.45100  0.23476  0.35689  1.0000
  H   H29       1.0  0.45812  0.24358  0.29844  1.0000
  C   C41       1.0  0.77100  0.19915  0.41237  1.0000
  N   N18       1.0  0.79867  0.23784  0.36710  1.0000
  C   C42       1.0  0.77707  0.21859  0.35633  1.0000
  H   H30       1.0  0.76822  0.21669  0.29780  1.0000
  N   N19       1.0  0.09843  0.43859  0.26043  1.0000
  C   C43       1.0  0.10890  0.42540  0.26094  1.0000
  C   C44       1.0  0.13258  0.43607  0.28909  1.0000
  C   C45       1.0  0.09421  0.40070  0.23494  1.0000
  H   H31       1.0  0.07772  0.39741  0.20590  1.0000
  H   H32       1.0  0.09027  0.38952  0.29373  1.0000
  H   H33       1.0  0.10319  0.39607  0.18470  1.0000
  N   N20       1.0  0.57305  0.66225  0.25918  1.0000
  C   C46       1.0  0.58622  0.68591  0.25942  1.0000
  C   C47       1.0  0.57559  0.69891  0.28821  1.0000
  C   C48       1.0  0.61086  0.69592  0.23258  1.0000
  H   H34       1.0  0.61410  0.68272  0.20310  1.0000
  H   H35       1.0  0.62217  0.70315  0.29105  1.0000
  H   H36       1.0  0.61539  0.70954  0.18246  1.0000
  N   N21       1.0  0.34967  0.91351  0.26031  1.0000
  C   C49       1.0  0.32601  0.90306  0.26074  1.0000
  C   C50       1.0  0.31301  0.87939  0.28907  1.0000
  C   C51       1.0  0.31603  0.91776  0.23475  1.0000
  H   H37       1.0  0.32924  0.93426  0.20575  1.0000
  H   H38       1.0  0.30879  0.92171  0.29354  1.0000
  H   H39       1.0  0.30242  0.90880  0.18448  1.0000
  N   N22       1.0  0.91583  0.57089  0.25979  1.0000
  C   C52       1.0  0.90536  0.58408  0.26031  1.0000
  C   C53       1.0  0.88168  0.57340  0.28844  1.0000
  C   C54       1.0  0.92005  0.60879  0.23437  1.0000
  H   H40       1.0  0.93656  0.61209  0.20540  1.0000
  H   H41       1.0  0.92399  0.61996  0.29319  1.0000
  H   H42       1.0  0.91109  0.61343  0.18411  1.0000
  N   N23       1.0  0.44115  0.34731  0.25955  1.0000
  C   C55       1.0  0.42798  0.32365  0.25973  1.0000
  C   C56       1.0  0.43861  0.31064  0.28833  1.0000
  C   C57       1.0  0.40333  0.31365  0.23304  1.0000
  H   H43       1.0  0.40009  0.32686  0.20379  1.0000
  H   H44       1.0  0.39205  0.30639  0.29155  1.0000
  H   H45       1.0  0.39879  0.30005  0.18279  1.0000
  N   N24       1.0  0.66462  0.09605  0.26039  1.0000
  C   C58       1.0  0.68828  0.10652  0.26091  1.0000
  C   C59       1.0  0.70128  0.13020  0.28908  1.0000
  C   C60       1.0  0.69828  0.09182  0.23501  1.0000
  H   H46       1.0  0.68508  0.07533  0.20596  1.0000
  H   H47       1.0  0.70549  0.08787  0.29386  1.0000
  H   H48       1.0  0.71191  0.10079  0.18481  1.0000
  C   C61       1.0  0.46077  0.10287  0.32221  1.0000
  N   N25       1.0  0.45811  0.13744  0.33186  1.0000
  C   C62       1.0  0.47146  0.12735  0.32093  1.0000
  H   H49       1.0  0.48908  0.13766  0.31546  1.0000
  C   C63       1.0  0.65163  0.55126  0.32126  1.0000
  N   N26       1.0  0.68881  0.55383  0.33160  1.0000
  C   C64       1.0  0.66536  0.54051  0.32056  1.0000
  H   H50       1.0  0.65801  0.52287  0.31569  1.0000
  C   C65       1.0  0.90905  0.36026  0.32105  1.0000
  N   N27       1.0  0.87448  0.32306  0.33145  1.0000
  C   C66       1.0  0.88457  0.34651  0.32050  1.0000
  H   H51       1.0  0.87427  0.35385  0.31589  1.0000
  C   C67       1.0  0.55350  0.90668  0.32163  1.0000
  N   N28       1.0  0.55613  0.87212  0.33207  1.0000
  C   C68       1.0  0.54278  0.88221  0.32096  1.0000
  H   H52       1.0  0.52514  0.87190  0.31628  1.0000
  C   C69       1.0  0.36257  0.45824  0.32099  1.0000
  N   N29       1.0  0.32537  0.45562  0.33137  1.0000
  C   C70       1.0  0.34881  0.46896  0.32035  1.0000
  H   H53       1.0  0.35615  0.48660  0.31558  1.0000
  C   C71       1.0  0.10524  0.64925  0.32151  1.0000
  N   N30       1.0  0.13982  0.68646  0.33151  1.0000
  C   C72       1.0  0.12972  0.66302  0.32051  1.0000
  H   H54       1.0  0.14002  0.65569  0.31521  1.0000
  C   C73       1.0  0.13121  0.24966  0.31170  1.0000
  N   N31       1.0  0.09810  0.21216  0.28400  1.0000
  C   C74       1.0  0.10742  0.23562  0.29022  1.0000
  H   H55       1.0  0.09681  0.24255  0.28329  1.0000
  C   C75       1.0  0.76211  0.88395  0.30966  1.0000
  N   N32       1.0  0.79963  0.88833  0.28212  1.0000
  C   C76       1.0  0.77616  0.87421  0.28809  1.0000
  H   H56       1.0  0.76920  0.85667  0.28066  1.0000
  C   C77       1.0  0.12778  0.88054  0.31184  1.0000
  N   N33       1.0  0.12340  0.91364  0.28381  1.0000
  C   C78       1.0  0.13754  0.90432  0.29015  1.0000
  H   H57       1.0  0.15507  0.91490  0.28280  1.0000
  C   C79       1.0  0.88297  0.75973  0.31301  1.0000
  N   N34       1.0  0.91605  0.79724  0.28500  1.0000
  C   C80       1.0  0.90675  0.77379  0.29147  1.0000
  H   H58       1.0  0.91737  0.76686  0.28435  1.0000
  C   C81       1.0  0.25200  0.12544  0.30920  1.0000
  N   N35       1.0  0.21449  0.12106  0.28171  1.0000
  C   C82       1.0  0.23796  0.13518  0.28756  1.0000
  H   H59       1.0  0.24492  0.15272  0.28009  1.0000
  C   C83       1.0  0.88633  0.12890  0.31139  1.0000
  N   N36       1.0  0.89070  0.09577  0.28365  1.0000
  C   C84       1.0  0.87657  0.10511  0.28987  1.0000
  H   H60       1.0  0.85902  0.09450  0.28293  1.0000
  N   N37       1.0  0.10380  0.54297  0.25011  1.0000
  C   C85       1.0  0.10465  0.56397  0.24675  1.0000
  C   C86       1.0  0.09851  0.57179  0.32552  1.0000
  C   C87       1.0  0.10884  0.57586  0.15888  1.0000
  H   H61       1.0  0.11295  0.56683  0.10698  1.0000
  H   H62       1.0  0.12344  0.59358  0.16453  1.0000
  H   H63       1.0  0.09340  0.57645  0.13778  1.0000
  N   N38       1.0  0.46849  0.56349  0.25213  1.0000
  C   C88       1.0  0.44748  0.54334  0.24903  1.0000
  C   C89       1.0  0.43999  0.52899  0.32686  1.0000
  C   C90       1.0  0.43513  0.53603  0.16194  1.0000
  H   H64       1.0  0.44391  0.54937  0.11052  1.0000
  H   H65       1.0  0.41746  0.53292  0.16974  1.0000
  H   H66       1.0  0.43438  0.52006  0.13879  1.0000
  N   N39       1.0  0.44859  0.90808  0.25037  1.0000
  C   C91       1.0  0.46872  0.90721  0.24689  1.0000
  C   C92       1.0  0.48275  0.91331  0.32550  1.0000
  C   C93       1.0  0.47637  0.90297  0.15902  1.0000
  H   H67       1.0  0.46323  0.89888  0.10716  1.0000
  H   H68       1.0  0.47945  0.88833  0.16467  1.0000
  H   H69       1.0  0.49243  0.91838  0.13784  1.0000
  N   N40       1.0  0.91007  0.46634  0.25078  1.0000
  C   C94       1.0  0.90916  0.44531  0.24763  1.0000
  C   C95       1.0  0.91571  0.43769  0.32593  1.0000
  C   C96       1.0  0.90449  0.43315  0.16022  1.0000
  H   H70       1.0  0.90013  0.44203  0.10855  1.0000
  H   H71       1.0  0.88989  0.41546  0.16712  1.0000
  H   H72       1.0  0.91980  0.43244  0.13799  1.0000
  N   N41       1.0  0.54570  0.44609  0.25210  1.0000
  C   C97       1.0  0.56671  0.46623  0.24890  1.0000
  C   C98       1.0  0.57418  0.48054  0.32682  1.0000
  C   C99       1.0  0.57903  0.47358  0.16176  1.0000
  H   H73       1.0  0.57024  0.46025  0.11032  1.0000
  H   H74       1.0  0.59671  0.47670  0.16943  1.0000
  H   H75       1.0  0.57976  0.48955  0.13873  1.0000
  N   N42       1.0  0.56553  0.10130  0.24990  1.0000
  C   C100      1.0  0.54537  0.10212  0.24658  1.0000
  C   C101      1.0  0.53149  0.09615  0.32560  1.0000
  C   C102      1.0  0.53757  0.10615  0.15867  1.0000
  H   H76       1.0  0.55064  0.11016  0.10659  1.0000
  H   H77       1.0  0.53446  0.12077  0.16396  1.0000
  H   H78       1.0  0.52151  0.09067  0.13803  1.0000
  C   C103      1.0  0.03276  0.45430  0.32019  1.0000
  N   N43       1.0  0.99517  0.42097  0.29801  1.0000
  C   C104      1.0  0.01873  0.43102  0.29216  1.0000
  H   H79       1.0  0.02584  0.42197  0.26391  1.0000
  C   C105      1.0  0.55763  0.58101  0.32079  1.0000
  N   N44       1.0  0.59094  0.57673  0.29837  1.0000
  C   C106      1.0  0.58089  0.59025  0.29256  1.0000
  H   H80       1.0  0.58991  0.60636  0.26395  1.0000
  C   C107      1.0  0.43102  0.97916  0.32093  1.0000
  N   N45       1.0  0.43534  0.01677  0.29855  1.0000
  C   C108      1.0  0.42181  0.99321  0.29267  1.0000
  H   H81       1.0  0.40568  0.98612  0.26421  1.0000
  C   C109      1.0  0.98152  0.55526  0.32038  1.0000
  N   N46       1.0  0.01912  0.58856  0.29801  1.0000
  C   C110      1.0  0.99556  0.57851  0.29204  1.0000
  H   H82       1.0  0.98846  0.58756  0.26362  1.0000
  C   C111      1.0  0.45659  0.42854  0.32100  1.0000
  N   N47       1.0  0.42328  0.43282  0.29851  1.0000
  C   C112      1.0  0.43333  0.41930  0.29277  1.0000
  H   H83       1.0  0.42431  0.40318  0.26426  1.0000
  C   C113      1.0  0.58321  0.03039  0.32024  1.0000
  N   N48       1.0  0.57892  0.99279  0.29811  1.0000
  C   C114      1.0  0.59244  0.01635  0.29227  1.0000
  H   H84       1.0  0.60860  0.02345  0.26407  1.0000
  N   N49       1.0  0.09626  0.10294  0.27399  1.0000
  C   C115      1.0  0.10507  0.08829  0.27244  1.0000
  C   C116      1.0  0.12965  0.09813  0.28074  1.0000
  C   C117      1.0  0.08789  0.06327  0.26150  1.0000
  H   H85       1.0  0.07021  0.06029  0.25461  1.0000
  H   H86       1.0  0.08822  0.05359  0.32024  1.0000
  H   H87       1.0  0.09185  0.05654  0.20117  1.0000
  N   N50       1.0  0.90888  0.99570  0.27357  1.0000
  C   C118      1.0  0.92351  0.01915  0.27223  1.0000
  C   C119      1.0  0.91366  0.03388  0.28079  1.0000
  C   C120      1.0  0.94854  0.02702  0.26126  1.0000
  H   H88       1.0  0.95153  0.01234  0.25417  1.0000
  H   H89       1.0  0.95821  0.03700  0.32006  1.0000
  H   H90       1.0  0.95526  0.03774  0.20100  1.0000
  N   N51       1.0  0.01601  0.91546  0.27386  1.0000
  C   C121      1.0  0.99256  0.90663  0.27244  1.0000
  C   C122      1.0  0.97784  0.88207  0.28129  1.0000
  C   C123      1.0  0.98468  0.92378  0.26110  1.0000
  H   H91       1.0  0.99936  0.94145  0.25382  1.0000
  H   H92       1.0  0.97470  0.92352  0.31982  1.0000
  H   H93       1.0  0.97396  0.91972  0.20082  1.0000
  N   N52       1.0  0.91782  0.90642  0.27371  1.0000
  C   C124      1.0  0.90902  0.92107  0.27206  1.0000
  C   C125      1.0  0.88445  0.91125  0.28062  1.0000
  C   C126      1.0  0.92620  0.94608  0.26077  1.0000
  H   H94       1.0  0.94386  0.94905  0.25366  1.0000
  H   H95       1.0  0.92592  0.95581  0.31944  1.0000
  H   H96       1.0  0.92218  0.95276  0.20042  1.0000
  N   N53       1.0  0.10522  0.01370  0.27383  1.0000
  C   C127      1.0  0.09058  0.99025  0.27252  1.0000
  C   C128      1.0  0.10043  0.97552  0.28097  1.0000
  C   C129      1.0  0.06556  0.98239  0.26167  1.0000
  H   H97       1.0  0.06256  0.99707  0.25467  1.0000
  H   H98       1.0  0.05590  0.97240  0.32048  1.0000
  H   H99       1.0  0.05881  0.97167  0.20140  1.0000
  N   N54       1.0  0.99808  0.09392  0.27387  1.0000
  C   C130      1.0  0.02153  0.10274  0.27246  1.0000
  C   C131      1.0  0.03625  0.12732  0.28112  1.0000
  C   C132      1.0  0.02940  0.08559  0.26130  1.0000
  H   H100      1.0  0.01472  0.06792  0.25414  1.0000
  H   H101      1.0  0.03939  0.08588  0.32004  1.0000
  H   H102      1.0  0.04012  0.08962  0.20101  1.0000
  C   C133      1.0  0.17794  0.42680  0.38968  1.0000
  N   N55       1.0  0.16775  0.43666  0.34061  1.0000
  C   C134      1.0  0.14477  0.42424  0.31507  1.0000
  N   N56       1.0  0.13277  0.40083  0.33278  1.0000
  C   C135      1.0  0.14206  0.39014  0.38160  1.0000
  N   N57       1.0  0.16425  0.40399  0.40899  1.0000
  C   C136      1.0  0.58507  0.75356  0.38936  1.0000
  N   N58       1.0  0.57513  0.73352  0.34018  1.0000
  C   C137      1.0  0.58749  0.72293  0.31421  1.0000
  N   N59       1.0  0.61092  0.73430  0.33153  1.0000
  C   C138      1.0  0.62168  0.75425  0.38045  1.0000
  N   N60       1.0  0.60789  0.76262  0.40826  1.0000
  C   C139      1.0  0.25822  0.83398  0.38843  1.0000
  N   N61       1.0  0.27837  0.84421  0.33995  1.0000
  C   C140      1.0  0.28895  0.86720  0.31451  1.0000
  N   N62       1.0  0.27752  0.87919  0.33211  1.0000
  C   C141      1.0  0.25750  0.86987  0.38061  1.0000
  N   N63       1.0  0.24912  0.84767  0.40788  1.0000
  C   C142      1.0  0.83623  0.58269  0.38807  1.0000
  N   N64       1.0  0.84646  0.57281  0.33939  1.0000
  C   C143      1.0  0.86947  0.58523  0.31407  1.0000
  N   N65       1.0  0.88146  0.60863  0.33199  1.0000
  C   C144      1.0  0.87212  0.61931  0.38053  1.0000
  N   N66       1.0  0.84992  0.60547  0.40779  1.0000
  C   C145      1.0  0.42918  0.25598  0.38930  1.0000
  N   N67       1.0  0.43912  0.27605  0.34030  1.0000
  C   C146      1.0  0.42673  0.28660  0.31417  1.0000
  N   N68       1.0  0.40328  0.27517  0.33116  1.0000
  C   C147      1.0  0.39252  0.25519  0.37991  1.0000
  N   N69       1.0  0.40633  0.24686  0.40790  1.0000
  C   C148      1.0  0.75593  0.17556  0.38967  1.0000
  N   N70       1.0  0.73588  0.16538  0.34058  1.0000
  C   C149      1.0  0.72530  0.14239  0.31507  1.0000
  N   N71       1.0  0.73670  0.13038  0.33283  1.0000
  C   C150      1.0  0.75667  0.13965  0.38166  1.0000
  N   N72       1.0  0.76502  0.16185  0.40900  1.0000
  C   C151      1.0  0.42693  0.17412  0.42328  1.0000
  N   N73       1.0  0.43640  0.16229  0.38286  1.0000
  C   C152      1.0  0.42339  0.13892  0.36364  1.0000
  N   N74       1.0  0.39987  0.12821  0.37764  1.0000
  C   C153      1.0  0.38955  0.13916  0.41733  1.0000
  N   N75       1.0  0.40380  0.16166  0.43946  1.0000
  C   C154      1.0  0.75662  0.58477  0.42258  1.0000
  N   N76       1.0  0.73537  0.57543  0.38184  1.0000
  C   C155      1.0  0.72504  0.58849  0.36320  1.0000
  N   N77       1.0  0.73786  0.61199  0.37814  1.0000
  C   C156      1.0  0.75910  0.62219  0.41807  1.0000
  N   N78       1.0  0.76729  0.60785  0.43963  1.0000
  C   C157      1.0  0.83778  0.25534  0.42319  1.0000
  N   N79       1.0  0.84961  0.27654  0.38208  1.0000
  C   C158      1.0  0.87298  0.28686  0.36294  1.0000
  N   N80       1.0  0.88368  0.27405  0.37751  1.0000
  C   C159      1.0  0.87272  0.25286  0.41778  1.0000
  N   N81       1.0  0.85022  0.24466  0.43971  1.0000
  C   C160      1.0  0.58721  0.83546  0.42424  1.0000
  N   N82       1.0  0.57781  0.84726  0.38307  1.0000
  C   C161      1.0  0.59083  0.87062  0.36380  1.0000
  N   N83       1.0  0.61434  0.88134  0.37813  1.0000
  C   C162      1.0  0.62463  0.87042  0.41827  1.0000
  N   N84       1.0  0.61034  0.84792  0.44041  1.0000
  C   C163      1.0  0.25763  0.42463  0.42300  1.0000
  N   N85       1.0  0.27885  0.43397  0.38201  1.0000
  C   C164      1.0  0.28916  0.42092  0.36292  1.0000
  N   N86       1.0  0.27634  0.39741  0.37753  1.0000
  C   C165      1.0  0.25513  0.38719  0.41764  1.0000
  N   N87       1.0  0.24695  0.40152  0.43955  1.0000
  C   C166      1.0  0.17658  0.75429  0.42283  1.0000
  N   N88       1.0  0.16473  0.73302  0.38222  1.0000
  C   C167      1.0  0.14135  0.72267  0.36330  1.0000
  N   N89       1.0  0.13065  0.73548  0.37782  1.0000
  C   C168      1.0  0.14164  0.75674  0.41760  1.0000
  N   N90       1.0  0.16415  0.76496  0.43947  1.0000
  C   C169      1.0  0.13912  0.30629  0.38554  1.0000
  N   N91       1.0  0.13001  0.28533  0.34273  1.0000
  C   C170      1.0  0.14219  0.27365  0.33592  1.0000
  N   N92       1.0  0.16475  0.28437  0.36650  1.0000
  C   C171      1.0  0.17447  0.30499  0.41119  1.0000
  N   N93       1.0  0.16088  0.31464  0.41789  1.0000
  C   C172      1.0  0.70542  0.83522  0.38267  1.0000
  N   N94       1.0  0.72641  0.84707  0.34009  1.0000
  C   C173      1.0  0.73812  0.87095  0.33363  1.0000
  N   N95       1.0  0.72742  0.88280  0.36437  1.0000
  C   C174      1.0  0.70677  0.87186  0.40879  1.0000
  N   N96       1.0  0.69707  0.84862  0.41527  1.0000
  C   C175      1.0  0.17655  0.87255  0.38420  1.0000
  N   N97       1.0  0.16466  0.88171  0.34203  1.0000
  C   C176      1.0  0.14078  0.86953  0.33565  1.0000
  N   N98       1.0  0.12896  0.84697  0.36620  1.0000
  C   C177      1.0  0.13993  0.83725  0.41037  1.0000
  N   N99       1.0  0.16317  0.85081  0.41680  1.0000
  C   C178      1.0  0.87503  0.70299  0.38557  1.0000
  N   N100      1.0  0.88418  0.72404  0.34343  1.0000
  C   C179      1.0  0.87199  0.73574  0.33701  1.0000
  N   N101      1.0  0.84943  0.72497  0.36751  1.0000
  C   C180      1.0  0.83968  0.70424  0.41140  1.0000
  N   N102      1.0  0.85327  0.69459  0.41802  1.0000
  C   C181      1.0  0.30870  0.17419  0.38210  1.0000
  N   N103      1.0  0.28772  0.16233  0.33942  1.0000
  C   C182      1.0  0.27601  0.13845  0.33291  1.0000
  N   N104      1.0  0.28671  0.12662  0.36370  1.0000
  C   C183      1.0  0.30733  0.13753  0.40832  1.0000
  N   N105      1.0  0.31703  0.16078  0.41467  1.0000
  C   C184      1.0  0.83762  0.13680  0.38520  1.0000
  N   N106      1.0  0.84946  0.12769  0.34237  1.0000
  C   C185      1.0  0.87333  0.13988  0.33558  1.0000
  N   N107      1.0  0.88517  0.16244  0.36615  1.0000
  C   C186      1.0  0.87427  0.17216  0.41082  1.0000
  N   N108      1.0  0.85103  0.15857  0.41754  1.0000
  C   C187      1.0  0.09089  0.50559  0.31537  1.0000
  N   N109      1.0  0.10453  0.49599  0.29960  1.0000
  C   C188      1.0  0.09504  0.47245  0.28958  1.0000
  N   N110      1.0  0.07141  0.45876  0.29579  1.0000
  C   C189      1.0  0.05731  0.46776  0.31196  1.0000
  N   N111      1.0  0.06761  0.49116  0.32170  1.0000
  C   C190      1.0  0.50625  0.58770  0.31629  1.0000
  N   N112      1.0  0.51578  0.61090  0.29988  1.0000
  C   C191      1.0  0.53930  0.62500  0.28944  1.0000
  N   N113      1.0  0.55306  0.61513  0.29580  1.0000
  C   C192      1.0  0.54414  0.59207  0.31248  1.0000
  N   N114      1.0  0.52076  0.57894  0.32262  1.0000
  C   C193      1.0  0.42418  0.92104  0.31577  1.0000
  N   N115      1.0  0.40095  0.90741  0.29970  1.0000
  C   C194      1.0  0.38691  0.91690  0.28966  1.0000
  N   N116      1.0  0.39684  0.94053  0.29611  1.0000
  C   C195      1.0  0.41993  0.95462  0.31254  1.0000
  N   N117      1.0  0.43303  0.94432  0.32229  1.0000
  C   C196      1.0  0.92341  0.50394  0.31552  1.0000
  N   N118      1.0  0.90977  0.51352  0.29927  1.0000
  C   C197      1.0  0.91924  0.53704  0.28904  1.0000
  N   N119      1.0  0.94286  0.55076  0.29548  1.0000
  C   C198      1.0  0.95697  0.54180  0.31202  1.0000
  N   N120      1.0  0.94669  0.51841  0.32194  1.0000
  C   C199      1.0  0.50797  0.42185  0.31645  1.0000
  N   N121      1.0  0.49844  0.39864  0.30010  1.0000
  C   C200      1.0  0.47491  0.38455  0.28976  1.0000
  N   N122      1.0  0.46116  0.39442  0.29609  1.0000
  C   C201      1.0  0.47008  0.41749  0.31270  1.0000
  N   N123      1.0  0.49346  0.43062  0.32277  1.0000
  C   C202      1.0  0.59009  0.08854  0.31534  1.0000
  N   N124      1.0  0.61333  0.10217  0.29953  1.0000
  C   C203      1.0  0.62737  0.09266  0.28951  1.0000
  N   N125      1.0  0.61742  0.06904  0.29579  1.0000
  C   C204      1.0  0.59432  0.05495  0.31200  1.0000
  N   N126      1.0  0.58122  0.06525  0.32170  1.0000
  C   C205      1.0  0.50724  0.08754  0.32373  1.0000
  N   N127      1.0  0.49649  0.10045  0.31993  1.0000
  C   C206      1.0  0.47272  0.09003  0.32024  1.0000
  N   N128      1.0  0.46010  0.06627  0.32477  1.0000
  C   C207      1.0  0.47023  0.05284  0.32948  1.0000
  N   N129      1.0  0.49376  0.06413  0.32838  1.0000
  C   C208      1.0  0.58983  0.50481  0.32421  1.0000
  N   N130      1.0  0.61349  0.51556  0.31988  1.0000
  C   C209      1.0  0.62683  0.53933  0.31964  1.0000
  N   N131      1.0  0.61572  0.55197  0.32412  1.0000
  C   C210      1.0  0.59216  0.54185  0.32927  1.0000
  N   N132      1.0  0.57993  0.51832  0.32877  1.0000
  C   C211      1.0  0.92434  0.42205  0.32363  1.0000
  N   N133      1.0  0.91146  0.39839  0.31945  1.0000
  C   C212      1.0  0.92189  0.38506  0.31935  1.0000
  N   N134      1.0  0.94565  0.39621  0.32377  1.0000
  C   C213      1.0  0.95907  0.41977  0.32873  1.0000
  N   N135      1.0  0.94776  0.43198  0.32810  1.0000
  C   C214      1.0  0.50701  0.92198  0.32352  1.0000
  N   N136      1.0  0.51778  0.90909  0.31963  1.0000
  C   C215      1.0  0.54155  0.91953  0.31973  1.0000
  N   N137      1.0  0.55416  0.94329  0.32410  1.0000
  C   C216      1.0  0.54401  0.95670  0.32882  1.0000
  N   N138      1.0  0.52048  0.94540  0.32795  1.0000
  C   C217      1.0  0.42435  0.50473  0.32423  1.0000
  N   N139      1.0  0.40070  0.49396  0.31978  1.0000
  C   C218      1.0  0.38737  0.47019  0.31948  1.0000
  N   N140      1.0  0.39850  0.45757  0.32401  1.0000
  C   C219      1.0  0.42206  0.46771  0.32928  1.0000
  N   N141      1.0  0.43427  0.49123  0.32883  1.0000
  C   C220      1.0  0.08990  0.58744  0.32345  1.0000
  N   N142      1.0  0.10281  0.61111  0.31952  1.0000
  C   C221      1.0  0.09239  0.62445  0.31967  1.0000
  N   N143      1.0  0.06863  0.61333  0.32419  1.0000
  C   C222      1.0  0.05520  0.58976  0.32902  1.0000
  N   N144      1.0  0.06649  0.57752  0.32808  1.0000
  C   C223      1.0  0.09714  0.13949  0.28367  1.0000
  N   N145      1.0  0.10858  0.16309  0.28805  1.0000
  C   C224      1.0  0.09754  0.17573  0.28969  1.0000
  N   N146      1.0  0.07377  0.16349  0.28680  1.0000
  C   C225      1.0  0.06118  0.13976  0.28237  1.0000
  N   N147      1.0  0.07354  0.12848  0.28109  1.0000
  C   C226      1.0  0.87233  0.96001  0.28302  1.0000
  N   N148      1.0  0.84872  0.94785  0.28713  1.0000
  C   C227      1.0  0.83607  0.92417  0.28859  1.0000
  N   N149      1.0  0.84830  0.91263  0.28583  1.0000
  C   C228      1.0  0.87204  0.92377  0.28167  1.0000
  N   N150      1.0  0.88333  0.94741  0.28055  1.0000
  C   C229      1.0  0.05171  0.91463  0.28371  1.0000
  N   N151      1.0  0.06387  0.90319  0.28809  1.0000
  C   C230      1.0  0.08755  0.91423  0.28963  1.0000
  N   N152      1.0  0.09908  0.93800  0.28668  1.0000
  C   C231      1.0  0.08793  0.95059  0.28225  1.0000
  N   N153      1.0  0.06429  0.93822  0.28105  1.0000
  C   C232      1.0  0.91694  0.86988  0.28384  1.0000
  N   N154      1.0  0.90551  0.84627  0.28853  1.0000
  C   C233      1.0  0.91657  0.83365  0.29035  1.0000
  N   N155      1.0  0.94034  0.84589  0.28734  1.0000
  C   C234      1.0  0.95291  0.86963  0.28261  1.0000
  N   N156      1.0  0.94054  0.88089  0.28116  1.0000
  C   C235      1.0  0.14178  0.04938  0.28311  1.0000
  N   N157      1.0  0.16539  0.06154  0.28705  1.0000
  C   C236      1.0  0.17804  0.08522  0.28841  1.0000
  N   N158      1.0  0.16581  0.09677  0.28573  1.0000
  C   C237      1.0  0.14207  0.08562  0.28175  1.0000
  N   N159      1.0  0.13077  0.06198  0.28072  1.0000
  C   C238      1.0  0.96239  0.09477  0.28356  1.0000
  N   N160      1.0  0.95022  0.10621  0.28789  1.0000
  C   C239      1.0  0.92654  0.09517  0.28941  1.0000
  N   N161      1.0  0.91501  0.07140  0.28647  1.0000
  C   C240      1.0  0.92616  0.05881  0.28208  1.0000
  N   N162      1.0  0.94980  0.07117  0.28092  1.0000
  C   C241      1.0  0.13308  0.36606  0.39580  1.0000
  N   N163      1.0  0.14194  0.33870  0.45870  1.0000
  C   C242      1.0  0.14227  0.35897  0.46664  1.0000
  H   H103      1.0  0.15209  0.36996  0.51720  1.0000
  C   C243      1.0  0.64578  0.76939  0.39428  1.0000
  N   N164      1.0  0.67319  0.80563  0.45667  1.0000
  C   C244      1.0  0.65299  0.78564  0.46526  1.0000
  H   H104      1.0  0.64205  0.78443  0.51604  1.0000
  C   C245      1.0  0.24245  0.87890  0.39500  1.0000
  N   N165      1.0  0.20619  0.86992  0.45778  1.0000
  C   C246      1.0  0.22619  0.86973  0.46596  1.0000
  H   H105      1.0  0.22741  0.85992  0.51644  1.0000
  C   C247      1.0  0.88122  0.64339  0.39549  1.0000
  N   N166      1.0  0.87235  0.67065  0.45875  1.0000
  C   C248      1.0  0.87213  0.65043  0.46683  1.0000
  H   H106      1.0  0.86212  0.63934  0.51677  1.0000
  C   C249      1.0  0.36843  0.24000  0.39351  1.0000
  N   N167      1.0  0.34098  0.20377  0.45591  1.0000
  C   C250      1.0  0.36120  0.22374  0.46445  1.0000
  H   H107      1.0  0.37213  0.22492  0.51526  1.0000
  C   C251      1.0  0.77177  0.13067  0.39580  1.0000
  N   N168      1.0  0.80804  0.13960  0.45852  1.0000
  C   C252      1.0  0.78807  0.13987  0.46661  1.0000
  H   H108      1.0  0.78689  0.14967  0.51724  1.0000
  N   N169      1.0  0.36013  0.14222  0.49302  1.0000
  C   C253      1.0  0.33932  0.14094  0.50257  1.0000
  C   C254      1.0  0.32238  0.12921  0.43419  1.0000
  C   C255      1.0  0.33708  0.15366  0.58028  1.0000
  H   H109      1.0  0.34137  0.14774  0.64211  1.0000
  H   H110      1.0  0.31944  0.15067  0.58741  1.0000
  H   H111      1.0  0.34908  0.17228  0.57266  1.0000
  N   N170      1.0  0.79148  0.65138  0.49498  1.0000
  C   C256      1.0  0.81102  0.67217  0.50538  1.0000
  C   C257      1.0  0.81632  0.68926  0.43762  1.0000
  C   C258      1.0  0.82592  0.67417  0.58293  1.0000
  H   H112      1.0  0.81569  0.66973  0.64472  1.0000
  H   H113      1.0  0.84059  0.69178  0.59064  1.0000
  H   H114      1.0  0.83251  0.66216  0.57462  1.0000
  N   N171      1.0  0.86955  0.22041  0.49421  1.0000
  C   C259      1.0  0.87081  0.20087  0.50443  1.0000
  C   C260      1.0  0.88253  0.19553  0.43651  1.0000
  C   C261      1.0  0.85806  0.18603  0.58235  1.0000
  H   H115      1.0  0.86397  0.19632  0.64398  1.0000
  H   H116      1.0  0.86103  0.17138  0.58999  1.0000
  H   H117      1.0  0.83945  0.17942  0.57457  1.0000
  N   N172      1.0  0.65402  0.86726  0.49374  1.0000
  C   C262      1.0  0.67482  0.86849  0.50319  1.0000
  C   C263      1.0  0.69177  0.88023  0.43488  1.0000
  C   C264      1.0  0.67703  0.85573  0.58084  1.0000
  H   H118      1.0  0.67275  0.86164  0.64271  1.0000
  H   H119      1.0  0.69466  0.85869  0.58796  1.0000
  H   H120      1.0  0.66501  0.83712  0.57315  1.0000
  N   N173      1.0  0.22271  0.35795  0.49431  1.0000
  C   C265      1.0  0.20318  0.33716  0.50465  1.0000
  C   C266      1.0  0.19786  0.32010  0.43676  1.0000
  C   C267      1.0  0.18835  0.33508  0.58261  1.0000
  H   H121      1.0  0.19866  0.33948  0.64420  1.0000
  H   H122      1.0  0.17370  0.31745  0.59031  1.0000
  H   H123      1.0  0.18174  0.34707  0.57482  1.0000
  N   N174      1.0  0.14470  0.78910  0.49421  1.0000
  C   C268      1.0  0.14338  0.80860  0.50438  1.0000
  C   C269      1.0  0.13162  0.81390  0.43648  1.0000
  C   C270      1.0  0.15618  0.82351  0.58207  1.0000
  H   H124      1.0  0.15033  0.81327  0.64383  1.0000
  H   H125      1.0  0.15320  0.83816  0.58959  1.0000
  H   H126      1.0  0.17479  0.83014  0.57410  1.0000
  N   N175      1.0  0.20547  0.42515  0.48428  1.0000
  C   C271      1.0  0.22547  0.42535  0.50299  1.0000
  C   C272      1.0  0.24329  0.43456  0.43645  1.0000
  C   C273      1.0  0.22570  0.41375  0.58785  1.0000
  H   H127      1.0  0.22102  0.42125  0.64387  1.0000
  H   H128      1.0  0.24281  0.41601  0.60227  1.0000
  H   H129      1.0  0.21305  0.39520  0.58397  1.0000
  N   N176      1.0  0.58695  0.78279  0.48444  1.0000
  C   C274      1.0  0.58677  0.80258  0.50353  1.0000
  C   C275      1.0  0.57744  0.81118  0.43752  1.0000
  C   C276      1.0  0.59841  0.81436  0.58840  1.0000
  H   H130      1.0  0.59096  0.80215  0.64433  1.0000
  H   H131      1.0  0.59613  0.82920  0.60313  1.0000
  H   H132      1.0  0.61696  0.82029  0.58428  1.0000
  N   N177      1.0  0.22924  0.80652  0.48383  1.0000
  C   C277      1.0  0.20949  0.78650  0.50287  1.0000
  C   C278      1.0  0.20085  0.76862  0.43663  1.0000
  C   C279      1.0  0.19770  0.78628  0.58779  1.0000
  H   H133      1.0  0.20991  0.79099  0.64373  1.0000
  H   H134      1.0  0.18287  0.76916  0.60231  1.0000
  H   H135      1.0  0.19176  0.79890  0.58391  1.0000
  N   N178      1.0  0.80873  0.58414  0.48351  1.0000
  C   C280      1.0  0.78873  0.58391  0.50260  1.0000
  C   C281      1.0  0.77093  0.57479  0.43607  1.0000
  C   C282      1.0  0.78852  0.59544  0.58764  1.0000
  H   H136      1.0  0.79319  0.58789  0.64349  1.0000
  H   H137      1.0  0.77141  0.59318  0.60215  1.0000
  H   H138      1.0  0.80117  0.61399  0.58396  1.0000
  N   N179      1.0  0.42734  0.22678  0.48440  1.0000
  C   C283      1.0  0.42750  0.20697  0.50338  1.0000
  C   C284      1.0  0.43683  0.19837  0.43737  1.0000
  C   C285      1.0  0.41577  0.19511  0.58799  1.0000
  H   H139      1.0  0.42318  0.20725  0.64413  1.0000
  H   H140      1.0  0.41799  0.18024  0.60254  1.0000
  H   H141      1.0  0.39722  0.18921  0.58362  1.0000
  N   N180      1.0  0.78514  0.20307  0.48423  1.0000
  C   C286      1.0  0.80492  0.22308  0.50297  1.0000
  C   C287      1.0  0.81349  0.24093  0.43654  1.0000
  C   C288      1.0  0.81672  0.22335  0.58795  1.0000
  H   H142      1.0  0.80452  0.21866  0.64388  1.0000
  H   H143      1.0  0.83155  0.24048  0.60238  1.0000
  H   H144      1.0  0.82266  0.21073  0.58422  1.0000
  C   C289      1.0  0.10881  0.46158  0.28141  1.0000
  N   N181      1.0  0.14304  0.45926  0.30840  1.0000
  C   C290      1.0  0.13266  0.47244  0.30307  1.0000
  H   H145      1.0  0.14176  0.48948  0.32244  1.0000
  C   C291      1.0  0.55011  0.64962  0.28087  1.0000
  N   N182      1.0  0.55246  0.68616  0.30825  1.0000
  C   C292      1.0  0.53926  0.66260  0.30297  1.0000
  H   H146      1.0  0.52230  0.65467  0.32325  1.0000
  C   C293      1.0  0.36228  0.90313  0.28127  1.0000
  N   N183      1.0  0.32572  0.86890  0.30824  1.0000
  C   C294      1.0  0.34928  0.87928  0.30293  1.0000
  H   H147      1.0  0.35720  0.87017  0.32225  1.0000
  C   C295      1.0  0.90546  0.54790  0.28063  1.0000
  N   N184      1.0  0.87121  0.55021  0.30762  1.0000
  C   C296      1.0  0.88160  0.53704  0.30237  1.0000
  H   H148      1.0  0.87248  0.51999  0.32153  1.0000
  C   C297      1.0  0.46410  0.35993  0.28114  1.0000
  N   N185      1.0  0.46176  0.32338  0.30828  1.0000
  C   C298      1.0  0.47496  0.34694  0.30308  1.0000
  H   H149      1.0  0.49192  0.35486  0.32328  1.0000
  C   C299      1.0  0.65200  0.10643  0.28130  1.0000
  N   N186      1.0  0.68855  0.14066  0.30841  1.0000
  C   C300      1.0  0.66500  0.13028  0.30306  1.0000
  H   H150      1.0  0.65706  0.13938  0.32244  1.0000
  N   N187      1.0  0.43728  0.09121  0.33212  1.0000
  C   C301      1.0  0.42355  0.10092  0.34112  1.0000
  C   C302      1.0  0.43448  0.12570  0.34176  1.0000
  C   C303      1.0  0.39847  0.08434  0.35492  1.0000
  H   H151      1.0  0.39455  0.06630  0.35047  1.0000
  H   H152      1.0  0.38827  0.08695  0.30354  1.0000
  H   H153      1.0  0.39315  0.08682  0.42155  1.0000
  N   N188      1.0  0.66351  0.57477  0.33057  1.0000
  C   C304      1.0  0.68697  0.58846  0.33955  1.0000
  C   C305      1.0  0.70076  0.57747  0.34101  1.0000
  C   C306      1.0  0.69555  0.61358  0.35240  1.0000
  H   H154      1.0  0.68149  0.61757  0.34702  1.0000
  H   H155      1.0  0.70846  0.62364  0.30111  1.0000
  H   H156      1.0  0.70326  0.61902  0.41913  1.0000
  N   N189      1.0  0.92071  0.34842  0.33006  1.0000
  C   C307      1.0  0.91098  0.32496  0.33892  1.0000
  C   C308      1.0  0.88620  0.31113  0.34048  1.0000
  C   C309      1.0  0.92755  0.31640  0.35151  1.0000
  H   H157      1.0  0.94559  0.33047  0.34603  1.0000
  H   H158      1.0  0.92469  0.30351  0.30013  1.0000
  H   H159      1.0  0.92532  0.30868  0.41819  1.0000
  N   N190      1.0  0.57700  0.91835  0.33092  1.0000
  C   C310      1.0  0.59073  0.90862  0.33993  1.0000
  C   C311      1.0  0.57977  0.88383  0.34131  1.0000
  C   C312      1.0  0.61584  0.92520  0.35288  1.0000
  H   H160      1.0  0.61979  0.94324  0.34761  1.0000
  H   H161      1.0  0.62592  0.92240  0.30157  1.0000
  H   H162      1.0  0.62127  0.92291  0.41959  1.0000
  N   N191      1.0  0.35072  0.43473  0.33021  1.0000
  C   C313      1.0  0.32726  0.42101  0.33909  1.0000
  C   C314      1.0  0.31345  0.43198  0.34068  1.0000
  C   C315      1.0  0.31871  0.39589  0.35203  1.0000
  H   H163      1.0  0.33278  0.39193  0.34668  1.0000
  H   H164      1.0  0.30581  0.38581  0.30075  1.0000
  H   H165      1.0  0.31100  0.39046  0.41876  1.0000
  N   N192      1.0  0.09359  0.66109  0.33131  1.0000
  C   C316      1.0  0.10332  0.68454  0.34038  1.0000
  C   C317      1.0  0.12810  0.69837  0.34127  1.0000
  C   C318      1.0  0.08675  0.69306  0.35390  1.0000
  H   H166      1.0  0.06871  0.67897  0.34909  1.0000
  H   H167      1.0  0.08945  0.70592  0.30258  1.0000
  H   H168      1.0  0.08916  0.70083  0.42058  1.0000
  N   N193      1.0  0.14308  0.23811  0.32392  1.0000
  C   C319      1.0  0.13425  0.21475  0.31599  1.0000
  C   C320      1.0  0.11012  0.20062  0.29565  1.0000
  C   C321      1.0  0.15057  0.20622  0.33514  1.0000
  H   H169      1.0  0.16784  0.22043  0.35299  1.0000
  H   H170      1.0  0.15241  0.19762  0.27577  1.0000
  H   H171      1.0  0.14416  0.19405  0.39149  1.0000
  N   N194      1.0  0.77370  0.90736  0.32242  1.0000
  C   C322      1.0  0.79706  0.92187  0.31480  1.0000
  C   C323      1.0  0.81118  0.91188  0.29426  1.0000
  C   C324      1.0  0.80561  0.94670  0.33470  1.0000
  H   H172      1.0  0.79140  0.94974  0.35275  1.0000
  H   H173      1.0  0.81426  0.95725  0.27562  1.0000
  H   H174      1.0  0.81775  0.95234  0.39115  1.0000
  N   N195      1.0  0.10436  0.86868  0.32408  1.0000
  C   C325      1.0  0.08984  0.87752  0.31614  1.0000
  C   C326      1.0  0.09984  0.90164  0.29560  1.0000
  C   C327      1.0  0.06499  0.86121  0.33540  1.0000
  H   H175      1.0  0.06194  0.84395  0.35335  1.0000
  H   H176      1.0  0.05454  0.85935  0.27603  1.0000
  H   H177      1.0  0.05924  0.86765  0.39171  1.0000
  N   N196      1.0  0.87108  0.77127  0.32519  1.0000
  C   C328      1.0  0.87989  0.79463  0.31713  1.0000
  C   C329      1.0  0.90401  0.80877  0.29660  1.0000
  C   C330      1.0  0.86356  0.80315  0.33622  1.0000
  H   H178      1.0  0.84631  0.78894  0.35422  1.0000
  H   H179      1.0  0.86169  0.81171  0.27677  1.0000
  H   H180      1.0  0.86998  0.81536  0.39243  1.0000
  N   N197      1.0  0.24043  0.10203  0.32186  1.0000
  C   C331      1.0  0.21706  0.08752  0.31436  1.0000
  C   C332      1.0  0.20293  0.09751  0.29390  1.0000
  C   C333      1.0  0.20851  0.06269  0.33406  1.0000
  H   H181      1.0  0.22273  0.05964  0.35194  1.0000
  H   H182      1.0  0.19985  0.05216  0.27494  1.0000
  H   H183      1.0  0.19639  0.05702  0.39057  1.0000
  N   N198      1.0  0.90975  0.14074  0.32361  1.0000
  C   C334      1.0  0.92426  0.13190  0.31569  1.0000
  C   C335      1.0  0.91426  0.10777  0.29529  1.0000
  C   C336      1.0  0.94912  0.14821  0.33487  1.0000
  H   H184      1.0  0.95218  0.16548  0.35272  1.0000
  H   H185      1.0  0.95956  0.15004  0.27552  1.0000
  H   H186      1.0  0.95487  0.14179  0.39123  1.0000
  C   C337      1.0  0.09886  0.52959  0.32532  1.0000
  N   N199      1.0  0.09260  0.55787  0.39938  1.0000
  C   C338      1.0  0.09336  0.53786  0.40364  1.0000
  H   H187      1.0  0.08725  0.52778  0.46015  1.0000
  C   C339      1.0  0.48226  0.57159  0.32646  1.0000
  N   N200      1.0  0.45431  0.53674  0.39973  1.0000
  C   C340      1.0  0.47435  0.55746  0.40403  1.0000
  H   H188      1.0  0.48462  0.56118  0.45988  1.0000
  C   C341      1.0  0.44020  0.91306  0.32561  1.0000
  N   N201      1.0  0.47475  0.91930  0.39928  1.0000
  C   C342      1.0  0.45400  0.91855  0.40385  1.0000
  H   H189      1.0  0.45017  0.92481  0.46026  1.0000
  C   C343      1.0  0.91548  0.47994  0.32550  1.0000
  N   N202      1.0  0.92203  0.45183  0.39926  1.0000
  C   C344      1.0  0.92135  0.47188  0.40352  1.0000
  H   H190      1.0  0.92774  0.48209  0.45956  1.0000
  C   C345      1.0  0.53196  0.43797  0.32652  1.0000
  N   N203      1.0  0.55993  0.47281  0.39988  1.0000
  C   C346      1.0  0.53990  0.45208  0.40414  1.0000
  H   H191      1.0  0.52965  0.44833  0.46006  1.0000
  C   C347      1.0  0.57408  0.09653  0.32520  1.0000
  N   N204      1.0  0.53963  0.09040  0.39956  1.0000
  C   C348      1.0  0.56040  0.09117  0.40373  1.0000
  H   H192      1.0  0.56444  0.08519  0.46038  1.0000
  N   N205      1.0  0.02140  0.46462  0.35618  1.0000
  C   C349      1.0  0.99800  0.45478  0.36491  1.0000
  C   C350      1.0  0.98384  0.43170  0.33200  1.0000
  C   C351      1.0  0.98965  0.46910  0.41025  1.0000
  H   H193      1.0  0.00410  0.48480  0.43953  1.0000
  H   H194      1.0  0.97777  0.45925  0.46468  1.0000
  H   H195      1.0  0.98084  0.47447  0.36218  1.0000
  N   N206      1.0  0.54735  0.55936  0.35703  1.0000
  C   C352      1.0  0.55719  0.54581  0.36580  1.0000
  C   C353      1.0  0.58025  0.55470  0.33262  1.0000
  C   C354      1.0  0.54289  0.52316  0.41136  1.0000
  H   H196      1.0  0.52721  0.52192  0.44073  1.0000
  H   H197      1.0  0.55278  0.52116  0.46574  1.0000
  H   H198      1.0  0.53749  0.50896  0.36339  1.0000
  N   N207      1.0  0.45268  0.99051  0.35715  1.0000
  C   C355      1.0  0.46624  0.01391  0.36590  1.0000
  C   C356      1.0  0.45737  0.02808  0.33275  1.0000
  C   C357      1.0  0.48887  0.02226  0.41161  1.0000
  H   H199      1.0  0.49008  0.00782  0.44120  1.0000
  H   H200      1.0  0.49087  0.03418  0.46587  1.0000
  H   H201      1.0  0.50309  0.03103  0.36371  1.0000
  N   N208      1.0  0.99287  0.54497  0.35669  1.0000
  C   C358      1.0  0.01627  0.55481  0.36550  1.0000
  C   C359      1.0  0.03044  0.57786  0.33232  1.0000
  C   C360      1.0  0.02462  0.54054  0.41121  1.0000
  H   H202      1.0  0.01018  0.52488  0.44076  1.0000
  H   H203      1.0  0.03653  0.55046  0.46549  1.0000
  H   H204      1.0  0.03340  0.53510  0.36331  1.0000
  N   N209      1.0  0.46689  0.45022  0.35709  1.0000
  C   C361      1.0  0.45704  0.46377  0.36578  1.0000
  C   C362      1.0  0.43398  0.45487  0.33262  1.0000
  C   C363      1.0  0.47135  0.48643  0.41121  1.0000
  H   H205      1.0  0.48704  0.48769  0.44053  1.0000
  H   H206      1.0  0.46148  0.48845  0.46561  1.0000
  H   H207      1.0  0.47673  0.50062  0.36316  1.0000
  N   N210      1.0  0.56151  0.01904  0.35618  1.0000
  C   C364      1.0  0.54795  0.99564  0.36489  1.0000
  C   C365      1.0  0.55685  0.98147  0.33203  1.0000
  C   C366      1.0  0.52528  0.98730  0.41025  1.0000
  H   H208      1.0  0.52403  0.00175  0.43955  1.0000
  H   H209      1.0  0.52324  0.97541  0.46467  1.0000
  H   H210      1.0  0.51110  0.97850  0.36219  1.0000
  C   C367      1.0  0.10883  0.12644  0.28266  1.0000
  N   N211      1.0  0.14225  0.12175  0.28927  1.0000
  C   C368      1.0  0.13312  0.13609  0.29041  1.0000
  H   H211      1.0  0.14401  0.15357  0.29743  1.0000
  C   C369      1.0  0.88538  0.98475  0.28222  1.0000
  N   N212      1.0  0.89004  0.02284  0.28929  1.0000
  C   C370      1.0  0.87572  0.99938  0.29018  1.0000
  H   H212      1.0  0.85823  0.99277  0.29723  1.0000
  C   C371      1.0  0.02696  0.90292  0.28283  1.0000
  N   N213      1.0  0.98888  0.86949  0.29011  1.0000
  C   C372      1.0  0.01234  0.87864  0.29105  1.0000
  H   H213      1.0  0.01896  0.86777  0.29836  1.0000
  C   C373      1.0  0.90525  0.88293  0.28269  1.0000
  N   N214      1.0  0.87185  0.88764  0.28943  1.0000
  C   C374      1.0  0.88097  0.87329  0.29062  1.0000
  H   H214      1.0  0.87008  0.85581  0.29791  1.0000
  C   C375      1.0  0.12873  0.02464  0.28237  1.0000
  N   N215      1.0  0.12405  0.98655  0.28938  1.0000
  C   C376      1.0  0.13838  0.01001  0.29025  1.0000
  H   H215      1.0  0.15587  0.01662  0.29722  1.0000
  C   C377      1.0  0.98713  0.10647  0.28270  1.0000
  N   N216      1.0  0.02522  0.13990  0.28981  1.0000
  C   C378      1.0  0.00175  0.13076  0.29078  1.0000
  H   H216      1.0  0.99514  0.14163  0.29795  1.0000
