data_image0
_chemical_formula_structural       C4HCNHNH2C4HCNHNH2C4HCNHNH2C4HCNHNH2CNC4H2NH2CNC4H2NH2CNC4H2NH2CNC4H2NH2CNC4H2NH2CNC4H2NH2CNC4H2NH2CNC4H2NH2C4HCNHNH2C4HCNHNH2C4HCNHNH2C4HCNHNH2C4HCNHNH2C4HCNHNH2C4HCNHNH2C4HCNHNH2CNC4H2NH2CNC4H2NH2CNC4H2NH2CNC4H2NH2CNC4H2NH2CNC4H2NH2CNC4H2NH2CNC4H2NH2CNC4H2NH2CNC4H2NH2CNCNCNCNCNCNCNCNCNCNCNCNCNCNCNCNCNCNCNCNCNCNCNCNCNCNCNCNCNCNCNCNCNCNCNCNCNCNCNCNCNCNCNCNCNCNCNCNCNCNCNCNCNCNCNCNCNCNCNCNCNC4H2NH2CNC4H2NH2CNC4H2NH2CNC4H2NH2C4HCNHNH2C4HCNHNH2C4HCNHNH2C4HCNHNH2C4HCNHNH2C4HCNHNH2C4HCNHNH2C4HCNHNH2CNC4H2NH2CNC4H2NH2CNC4H2NH2CNC4H2NH2CNC4H2NH2CNC4H2NH2CNC4H2NH2CNC4H2NH2C4HCNHNH2C4HCNHNH2C4HCNHNH2C4HCNHNH2C4HCNHNH2C4HCNHNH2C4HCNHNH2C4HCNHNH2C4HCNHNH2C4HCNHNH2
_chemical_formula_sum              "C360 H240 N180"
_cell_length_a       65.7566
_cell_length_b       65.7566
_cell_length_c       14.8057
_cell_angle_alpha    90
_cell_angle_beta     90
_cell_angle_gamma    90

_space_group_name_H-M_alt    "P 1"
_space_group_IT_number       1

loop_
  _space_group_symop_operation_xyz
  'x, y, z'

loop_
  _atom_site_type_symbol
  _atom_site_label
  _atom_site_symmetry_multiplicity
  _atom_site_fract_x
  _atom_site_fract_y
  _atom_site_fract_z
  _atom_site_occupancy
  C   C1        1.0  0.29335  0.03963  0.33628  1.0000
  C   C2        1.0  0.33499  0.05052  0.34112  1.0000
  C   C3        1.0  0.32131  0.06264  0.28966  1.0000
  C   C4        1.0  0.30053  0.05705  0.29004  1.0000
  H   H1        1.0  0.29046  0.06584  0.25455  1.0000
  C   C5        1.0  0.39020  0.04612  0.32431  1.0000
  N   N1        1.0  0.36989  0.04246  0.32260  1.0000
  H   H2        1.0  0.39973  0.03548  0.29706  1.0000
  N   N2        1.0  0.32726  0.07904  0.24024  1.0000
  H   H3        1.0  0.31755  0.08684  0.20477  1.0000
  H   H4        1.0  0.34150  0.08272  0.23395  1.0000
  C   C6        1.0  0.72055  0.97454  0.33550  1.0000
  C   C7        1.0  0.67881  0.96405  0.33968  1.0000
  C   C8        1.0  0.69244  0.95170  0.28908  1.0000
  C   C9        1.0  0.71327  0.95710  0.28971  1.0000
  H   H5        1.0  0.72330  0.94816  0.25477  1.0000
  C   C10       1.0  0.62361  0.96856  0.32121  1.0000
  N   N3        1.0  0.64393  0.97217  0.31973  1.0000
  H   H6        1.0  0.61414  0.97906  0.29252  1.0000
  N   N4        1.0  0.68641  0.93523  0.24031  1.0000
  H   H7        1.0  0.69608  0.92726  0.20544  1.0000
  H   H8        1.0  0.67214  0.93165  0.23400  1.0000
  C   C11       1.0  0.97392  0.29354  0.33619  1.0000
  C   C12       1.0  0.96292  0.33515  0.34103  1.0000
  C   C13       1.0  0.95086  0.32144  0.28943  1.0000
  C   C14       1.0  0.95650  0.30069  0.28981  1.0000
  H   H9        1.0  0.94776  0.29060  0.25419  1.0000
  C   C15       1.0  0.96721  0.39037  0.32442  1.0000
  N   N5        1.0  0.97091  0.37007  0.32269  1.0000
  H   H10       1.0  0.97784  0.39993  0.29728  1.0000
  N   N6        1.0  0.93446  0.32736  0.23986  1.0000
  H   H11       1.0  0.92671  0.31764  0.20429  1.0000
  H   H12       1.0  0.93075  0.34159  0.23356  1.0000
  C   C16       1.0  0.03903  0.72075  0.33565  1.0000
  C   C17       1.0  0.04940  0.67898  0.33977  1.0000
  C   C18       1.0  0.06182  0.69259  0.28940  1.0000
  C   C19       1.0  0.05649  0.71344  0.29009  1.0000
  H   H13       1.0  0.06548  0.72345  0.25536  1.0000
  C   C20       1.0  0.04475  0.62379  0.32124  1.0000
  N   N7        1.0  0.04120  0.64412  0.31965  1.0000
  H   H14       1.0  0.03428  0.61436  0.29212  1.0000
  N   N8        1.0  0.07832  0.68652  0.24091  1.0000
  H   H15       1.0  0.08626  0.69616  0.20574  1.0000
  H   H16       1.0  0.08177  0.67223  0.23413  1.0000
  C   C21       1.0  0.20507  0.52758  0.31225  1.0000
  N   N9        1.0  0.18530  0.53355  0.30999  1.0000
  C   C22       1.0  0.15743  0.55566  0.33838  1.0000
  C   C23       1.0  0.15088  0.57429  0.29889  1.0000
  C   C24       1.0  0.12982  0.57867  0.30040  1.0000
  C   C25       1.0  0.11541  0.56485  0.33595  1.0000
  H   H17       1.0  0.12488  0.59215  0.27354  1.0000
  H   H18       1.0  0.20918  0.51489  0.27685  1.0000
  N   N10       1.0  0.16383  0.58781  0.25974  1.0000
  H   H19       1.0  0.17823  0.58488  0.25287  1.0000
  H   H20       1.0  0.15886  0.60028  0.23214  1.0000
  C   C26       1.0  0.80722  0.48678  0.31370  1.0000
  N   N11       1.0  0.82705  0.48102  0.31177  1.0000
  C   C27       1.0  0.85506  0.45908  0.33981  1.0000
  C   C28       1.0  0.86168  0.44066  0.29882  1.0000
  C   C29       1.0  0.88276  0.43634  0.30037  1.0000
  C   C30       1.0  0.89711  0.44999  0.33772  1.0000
  H   H21       1.0  0.88773  0.42297  0.27262  1.0000
  H   H22       1.0  0.80304  0.49951  0.27876  1.0000
  N   N12       1.0  0.84880  0.42723  0.25859  1.0000
  H   H23       1.0  0.83442  0.43019  0.25138  1.0000
  H   H24       1.0  0.85386  0.41495  0.22963  1.0000
  C   C31       1.0  0.52721  0.80827  0.31218  1.0000
  N   N13       1.0  0.53323  0.82802  0.30991  1.0000
  C   C32       1.0  0.55540  0.85585  0.33848  1.0000
  C   C33       1.0  0.57406  0.86235  0.29919  1.0000
  C   C34       1.0  0.57849  0.88341  0.30075  1.0000
  C   C35       1.0  0.56468  0.89785  0.33607  1.0000
  H   H25       1.0  0.59199  0.88832  0.27399  1.0000
  H   H26       1.0  0.51453  0.80419  0.27665  1.0000
  N   N14       1.0  0.58757  0.84937  0.26021  1.0000
  H   H27       1.0  0.58462  0.83498  0.25331  1.0000
  H   H28       1.0  0.60007  0.85432  0.23274  1.0000
  C   C36       1.0  0.48641  0.20612  0.31384  1.0000
  N   N15       1.0  0.48069  0.18629  0.31185  1.0000
  C   C37       1.0  0.45882  0.15822  0.33961  1.0000
  C   C38       1.0  0.44044  0.15155  0.29839  1.0000
  C   C39       1.0  0.43617  0.13047  0.29991  1.0000
  C   C40       1.0  0.44983  0.11615  0.33746  1.0000
  H   H29       1.0  0.42283  0.12546  0.27200  1.0000
  H   H30       1.0  0.49914  0.21033  0.27893  1.0000
  N   N16       1.0  0.42701  0.16439  0.25790  1.0000
  H   H31       1.0  0.42986  0.17881  0.25119  1.0000
  H   H32       1.0  0.41469  0.15932  0.22928  1.0000
  C   C41       1.0  0.17245  0.14813  0.32416  1.0000
  N   N17       1.0  0.18074  0.12916  0.32023  1.0000
  C   C42       1.0  0.20766  0.10464  0.32991  1.0000
  C   C43       1.0  0.22357  0.10098  0.26678  1.0000
  C   C44       1.0  0.23246  0.08137  0.26515  1.0000
  C   C45       1.0  0.22593  0.06535  0.32231  1.0000
  H   H33       1.0  0.24443  0.07885  0.22231  1.0000
  H   H34       1.0  0.15804  0.15012  0.29993  1.0000
  N   N18       1.0  0.23081  0.11551  0.20971  1.0000
  H   H35       1.0  0.22472  0.12895  0.20625  1.0000
  H   H36       1.0  0.24169  0.11257  0.16710  1.0000
  C   C46       1.0  0.84090  0.86544  0.32473  1.0000
  N   N19       1.0  0.83272  0.88446  0.32085  1.0000
  C   C47       1.0  0.80590  0.90909  0.32977  1.0000
  C   C48       1.0  0.79015  0.91290  0.26605  1.0000
  C   C49       1.0  0.78137  0.93256  0.26444  1.0000
  C   C50       1.0  0.78787  0.94847  0.32225  1.0000
  H   H37       1.0  0.76948  0.93519  0.22125  1.0000
  H   H38       1.0  0.85537  0.86341  0.30137  1.0000
  N   N20       1.0  0.78295  0.89846  0.20842  1.0000
  H   H39       1.0  0.78906  0.88504  0.20461  1.0000
  H   H40       1.0  0.77225  0.90154  0.16508  1.0000
  C   C51       1.0  0.86538  0.17285  0.32425  1.0000
  N   N21       1.0  0.88436  0.18111  0.32038  1.0000
  C   C52       1.0  0.90891  0.20798  0.32989  1.0000
  C   C53       1.0  0.91262  0.22383  0.26651  1.0000
  C   C54       1.0  0.93226  0.23265  0.26485  1.0000
  C   C55       1.0  0.94823  0.22612  0.32227  1.0000
  H   H41       1.0  0.93482  0.24460  0.22193  1.0000
  H   H42       1.0  0.86337  0.15842  0.30023  1.0000
  N   N22       1.0  0.89813  0.23106  0.20926  1.0000
  H   H43       1.0  0.88468  0.22500  0.20583  1.0000
  H   H44       1.0  0.90111  0.24190  0.16650  1.0000
  C   C56       1.0  0.14806  0.84130  0.32476  1.0000
  N   N23       1.0  0.12906  0.83309  0.32079  1.0000
  C   C57       1.0  0.10444  0.80624  0.32980  1.0000
  C   C58       1.0  0.10068  0.79044  0.26623  1.0000
  C   C59       1.0  0.08103  0.78163  0.26465  1.0000
  C   C60       1.0  0.06509  0.78813  0.32229  1.0000
  H   H45       1.0  0.07844  0.76971  0.22160  1.0000
  H   H46       1.0  0.15009  0.85575  0.30106  1.0000
  N   N24       1.0  0.11514  0.78324  0.20872  1.0000
  H   H47       1.0  0.12859  0.78931  0.20522  1.0000
  H   H48       1.0  0.11212  0.77245  0.16580  1.0000
  C   C61       1.0  0.32904  0.66494  0.33905  1.0000
  C   C62       1.0  0.31316  0.62456  0.34524  1.0000
  C   C63       1.0  0.30089  0.64053  0.30981  1.0000
  C   C64       1.0  0.30910  0.66047  0.30859  1.0000
  H   H49       1.0  0.30020  0.67204  0.28450  1.0000
  C   C65       1.0  0.30385  0.56972  0.31354  1.0000
  N   N25       1.0  0.31184  0.58886  0.31038  1.0000
  H   H50       1.0  0.30896  0.55915  0.26831  1.0000
  N   N26       1.0  0.28174  0.63746  0.27776  1.0000
  H   H51       1.0  0.27372  0.64861  0.25318  1.0000
  H   H52       1.0  0.27583  0.62395  0.27393  1.0000
  C   C66       1.0  0.68401  0.34866  0.33934  1.0000
  C   C67       1.0  0.69967  0.38911  0.34552  1.0000
  C   C68       1.0  0.71211  0.37317  0.31095  1.0000
  C   C69       1.0  0.70400  0.35319  0.30972  1.0000
  H   H53       1.0  0.71300  0.34164  0.28622  1.0000
  C   C70       1.0  0.70871  0.44398  0.31316  1.0000
  N   N27       1.0  0.70084  0.42479  0.31004  1.0000
  H   H54       1.0  0.70364  0.45448  0.26755  1.0000
  N   N28       1.0  0.73132  0.37631  0.27970  1.0000
  H   H55       1.0  0.73944  0.36518  0.25568  1.0000
  H   H56       1.0  0.73716  0.38984  0.27588  1.0000
  C   C71       1.0  0.66455  0.68453  0.33929  1.0000
  C   C72       1.0  0.62416  0.70034  0.34533  1.0000
  C   C73       1.0  0.64012  0.71266  0.31022  1.0000
  C   C74       1.0  0.66007  0.70449  0.30908  1.0000
  H   H57       1.0  0.67165  0.71341  0.28521  1.0000
  C   C75       1.0  0.56930  0.70951  0.31345  1.0000
  N   N29       1.0  0.58846  0.70159  0.31026  1.0000
  H   H58       1.0  0.55876  0.70446  0.26798  1.0000
  N   N30       1.0  0.63703  0.73184  0.27843  1.0000
  H   H59       1.0  0.64818  0.73989  0.25406  1.0000
  H   H60       1.0  0.62351  0.73772  0.27458  1.0000
  C   C76       1.0  0.34826  0.32954  0.33913  1.0000
  C   C77       1.0  0.38871  0.31383  0.34537  1.0000
  C   C78       1.0  0.37276  0.30144  0.31059  1.0000
  C   C79       1.0  0.35279  0.30957  0.30934  1.0000
  H   H61       1.0  0.34124  0.30058  0.28573  1.0000
  C   C80       1.0  0.44358  0.30471  0.31327  1.0000
  N   N31       1.0  0.42439  0.31259  0.31006  1.0000
  H   H62       1.0  0.45406  0.30972  0.26745  1.0000
  N   N32       1.0  0.37589  0.28223  0.27924  1.0000
  H   H63       1.0  0.36477  0.27418  0.25463  1.0000
  H   H64       1.0  0.38943  0.27642  0.27498  1.0000
  C   C81       1.0  0.21510  0.88494  0.34479  1.0000
  C   C82       1.0  0.22542  0.92720  0.34827  1.0000
  C   C83       1.0  0.23938  0.91293  0.31066  1.0000
  C   C84       1.0  0.23403  0.89201  0.31162  1.0000
  H   H65       1.0  0.24412  0.88170  0.28559  1.0000
  C   C85       1.0  0.22111  0.98280  0.31996  1.0000
  N   N33       1.0  0.21777  0.96234  0.31886  1.0000
  H   H66       1.0  0.21159  0.99196  0.28365  1.0000
  N   N34       1.0  0.25740  0.91854  0.27291  1.0000
  H   H67       1.0  0.26652  0.90855  0.24630  1.0000
  H   H68       1.0  0.26114  0.93275  0.26581  1.0000
  C   C86       1.0  0.79856  0.12897  0.34469  1.0000
  C   C87       1.0  0.78847  0.08667  0.34832  1.0000
  C   C88       1.0  0.77439  0.10086  0.31099  1.0000
  C   C89       1.0  0.77964  0.12181  0.31187  1.0000
  H   H69       1.0  0.76947  0.13206  0.28602  1.0000
  C   C90       1.0  0.79288  0.03109  0.31975  1.0000
  N   N35       1.0  0.79618  0.05156  0.31862  1.0000
  H   H70       1.0  0.80234  0.02195  0.28302  1.0000
  N   N36       1.0  0.75636  0.09516  0.27366  1.0000
  H   H71       1.0  0.74719  0.10510  0.24703  1.0000
  H   H72       1.0  0.75272  0.08093  0.26644  1.0000
  C   C91       1.0  0.12859  0.21510  0.34446  1.0000
  C   C92       1.0  0.08634  0.22543  0.34799  1.0000
  C   C93       1.0  0.10060  0.23937  0.31012  1.0000
  C   C94       1.0  0.12152  0.23401  0.31108  1.0000
  H   H73       1.0  0.13182  0.24407  0.28485  1.0000
  C   C95       1.0  0.03072  0.22122  0.31996  1.0000
  N   N37       1.0  0.05118  0.21783  0.31881  1.0000
  H   H74       1.0  0.02153  0.21172  0.28368  1.0000
  N   N38       1.0  0.09499  0.25736  0.27217  1.0000
  H   H75       1.0  0.10498  0.26646  0.24541  1.0000
  H   H76       1.0  0.08079  0.26110  0.26509  1.0000
  C   C96       1.0  0.88457  0.79856  0.34502  1.0000
  C   C97       1.0  0.92688  0.78849  0.34855  1.0000
  C   C98       1.0  0.91268  0.77438  0.31144  1.0000
  C   C99       1.0  0.89173  0.77961  0.31240  1.0000
  H   H77       1.0  0.88147  0.76943  0.28669  1.0000
  C   C100      1.0  0.98245  0.79302  0.31990  1.0000
  N   N39       1.0  0.96197  0.79626  0.31870  1.0000
  H   H78       1.0  0.99155  0.80245  0.28286  1.0000
  N   N40       1.0  0.91839  0.75633  0.27432  1.0000
  H   H79       1.0  0.90845  0.74719  0.24752  1.0000
  H   H80       1.0  0.93262  0.75274  0.26676  1.0000
  C   C101      1.0  0.31157  0.40012  0.31691  1.0000
  N   N41       1.0  0.30595  0.42005  0.31488  1.0000
  C   C102      1.0  0.28332  0.44835  0.33201  1.0000
  C   C103      1.0  0.26641  0.45565  0.28130  1.0000
  C   C104      1.0  0.26227  0.47681  0.28290  1.0000
  C   C105      1.0  0.27469  0.49095  0.32951  1.0000
  H   H81       1.0  0.24981  0.48205  0.24854  1.0000
  H   H82       1.0  0.32550  0.39632  0.29151  1.0000
  N   N42       1.0  0.25420  0.44327  0.23138  1.0000
  H   H83       1.0  0.25713  0.42889  0.22401  1.0000
  H   H84       1.0  0.24291  0.44870  0.19640  1.0000
  C   C106      1.0  0.70091  0.61386  0.31724  1.0000
  N   N43       1.0  0.70642  0.59390  0.31516  1.0000
  C   C107      1.0  0.72894  0.56550  0.33182  1.0000
  C   C108      1.0  0.74574  0.55818  0.28055  1.0000
  C   C109      1.0  0.74985  0.53701  0.28213  1.0000
  C   C110      1.0  0.73748  0.52290  0.32926  1.0000
  H   H85       1.0  0.76225  0.53174  0.24747  1.0000
  H   H86       1.0  0.68696  0.61773  0.29219  1.0000
  N   N44       1.0  0.75791  0.57052  0.23032  1.0000
  H   H87       1.0  0.75490  0.58488  0.22256  1.0000
  H   H88       1.0  0.76904  0.56504  0.19453  1.0000
  C   C111      1.0  0.39971  0.70158  0.31702  1.0000
  N   N45       1.0  0.41963  0.70721  0.31496  1.0000
  C   C112      1.0  0.44793  0.72986  0.33222  1.0000
  C   C113      1.0  0.45517  0.74681  0.28162  1.0000
  C   C114      1.0  0.47633  0.75100  0.28325  1.0000
  C   C115      1.0  0.49050  0.73859  0.32974  1.0000
  H   H89       1.0  0.48154  0.76349  0.24899  1.0000
  H   H90       1.0  0.39590  0.68766  0.29143  1.0000
  N   N46       1.0  0.44277  0.75901  0.23185  1.0000
  H   H91       1.0  0.42839  0.75604  0.22447  1.0000
  H   H92       1.0  0.44817  0.77032  0.19696  1.0000
  C   C116      1.0  0.61344  0.31223  0.31715  1.0000
  N   N47       1.0  0.59349  0.30673  0.31507  1.0000
  C   C117      1.0  0.56507  0.28424  0.33164  1.0000
  C   C118      1.0  0.55770  0.26746  0.28028  1.0000
  C   C119      1.0  0.53652  0.26341  0.28186  1.0000
  C   C120      1.0  0.52245  0.27580  0.32910  1.0000
  H   H93       1.0  0.53122  0.25103  0.24713  1.0000
  H   H94       1.0  0.61731  0.32619  0.29214  1.0000
  N   N48       1.0  0.57001  0.25529  0.22988  1.0000
  H   H95       1.0  0.58440  0.25817  0.22256  1.0000
  H   H96       1.0  0.56452  0.24410  0.19450  1.0000
  C   C121      1.0  0.25681  0.31642  0.31867  1.0000
  N   N49       1.0  0.24312  0.30085  0.31759  1.0000
  C   C122      1.0  0.23140  0.26665  0.34061  1.0000
  C   C123      1.0  0.23499  0.24751  0.29823  1.0000
  C   C124      1.0  0.21929  0.23271  0.30078  1.0000
  C   C125      1.0  0.19997  0.23662  0.33926  1.0000
  H   H97       1.0  0.22193  0.21882  0.27177  1.0000
  H   H98       1.0  0.25282  0.32988  0.28912  1.0000
  N   N50       1.0  0.25261  0.24295  0.25447  1.0000
  H   H99       1.0  0.26322  0.25303  0.24557  1.0000
  H   H100      1.0  0.25452  0.22990  0.22468  1.0000
  C   C126      1.0  0.75606  0.69733  0.31886  1.0000
  N   N51       1.0  0.76982  0.71283  0.31783  1.0000
  C   C127      1.0  0.78166  0.74701  0.34075  1.0000
  C   C128      1.0  0.77812  0.76614  0.29818  1.0000
  C   C129      1.0  0.79385  0.78090  0.30074  1.0000
  C   C130      1.0  0.81315  0.77697  0.33934  1.0000
  H   H101      1.0  0.79125  0.79479  0.27162  1.0000
  H   H102      1.0  0.76001  0.68384  0.28950  1.0000
  N   N52       1.0  0.76051  0.77073  0.25439  1.0000
  H   H103      1.0  0.74996  0.76060  0.24498  1.0000
  H   H104      1.0  0.75871  0.78372  0.22395  1.0000
  C   C131      1.0  0.69704  0.25717  0.31863  1.0000
  N   N53       1.0  0.71259  0.24347  0.31754  1.0000
  C   C132      1.0  0.74679  0.23173  0.34058  1.0000
  C   C133      1.0  0.76591  0.23533  0.29809  1.0000
  C   C134      1.0  0.78073  0.21965  0.30063  1.0000
  C   C135      1.0  0.77685  0.20032  0.33917  1.0000
  H   H105      1.0  0.79460  0.22229  0.27152  1.0000
  H   H106      1.0  0.68358  0.25320  0.28900  1.0000
  N   N54       1.0  0.77045  0.25295  0.25427  1.0000
  H   H107      1.0  0.76035  0.26354  0.24541  1.0000
  H   H108      1.0  0.78349  0.25486  0.22443  1.0000
  C   C136      1.0  0.31614  0.75643  0.31896  1.0000
  N   N55       1.0  0.30062  0.77017  0.31786  1.0000
  C   C137      1.0  0.26644  0.78198  0.34070  1.0000
  C   C138      1.0  0.24729  0.77845  0.29826  1.0000
  C   C139      1.0  0.23254  0.79419  0.30084  1.0000
  C   C140      1.0  0.23651  0.81350  0.33934  1.0000
  H   H109      1.0  0.21865  0.79160  0.27176  1.0000
  H   H110      1.0  0.32962  0.76040  0.28956  1.0000
  N   N56       1.0  0.24269  0.76085  0.25442  1.0000
  H   H111      1.0  0.25274  0.75022  0.24547  1.0000
  H   H112      1.0  0.22963  0.75899  0.22460  1.0000
  C   C141      1.0  0.48805  0.04707  0.31704  1.0000
  N   N57       1.0  0.50142  0.03138  0.31565  1.0000
  C   C142      1.0  0.51266  0.99767  0.34087  1.0000
  C   C143      1.0  0.50931  0.97877  0.29651  1.0000
  C   C144      1.0  0.52529  0.96437  0.29793  1.0000
  C   C145      1.0  0.54435  0.96863  0.33806  1.0000
  H   H113      1.0  0.52306  0.95060  0.26720  1.0000
  H   H114      1.0  0.49214  0.06037  0.28631  1.0000
  N   N58       1.0  0.49177  0.97414  0.25229  1.0000
  H   H115      1.0  0.48090  0.98402  0.24520  1.0000
  H   H116      1.0  0.49009  0.96120  0.22133  1.0000
  C   C146      1.0  0.96619  0.48818  0.31713  1.0000
  N   N59       1.0  0.98188  0.50156  0.31582  1.0000
  C   C147      1.0  0.01559  0.51279  0.34096  1.0000
  C   C148      1.0  0.03449  0.50944  0.29660  1.0000
  C   C149      1.0  0.04890  0.52542  0.29806  1.0000
  C   C150      1.0  0.04463  0.54449  0.33811  1.0000
  H   H117      1.0  0.06267  0.52318  0.26734  1.0000
  H   H118      1.0  0.95287  0.49229  0.28662  1.0000
  N   N60       1.0  0.03914  0.49189  0.25246  1.0000
  H   H119      1.0  0.02919  0.48110  0.24484  1.0000
  H   H120      1.0  0.05202  0.49027  0.22102  1.0000
  C   C151      1.0  0.23800  0.04733  0.33092  1.0000
  N   N61       1.0  0.23117  0.02785  0.34408  1.0000
  C   C152      1.0  0.24440  0.01186  0.35492  1.0000
  N   N62       1.0  0.26473  0.01604  0.35253  1.0000
  C   C153      1.0  0.27220  0.03504  0.33927  1.0000
  N   N63       1.0  0.25843  0.05016  0.32903  1.0000
  C   C154      1.0  0.77588  0.96654  0.33074  1.0000
  N   N64       1.0  0.78280  0.98598  0.34414  1.0000
  C   C155      1.0  0.76963  0.00202  0.35494  1.0000
  N   N65       1.0  0.74928  0.99794  0.35221  1.0000
  C   C156      1.0  0.74173  0.97898  0.33871  1.0000
  N   N66       1.0  0.75543  0.96380  0.32854  1.0000
  C   C157      1.0  0.96625  0.23819  0.33094  1.0000
  N   N67       1.0  0.98573  0.23136  0.34398  1.0000
  C   C158      1.0  0.00172  0.24459  0.35473  1.0000
  N   N68       1.0  0.99755  0.26493  0.35242  1.0000
  C   C159      1.0  0.97854  0.27240  0.33923  1.0000
  N   N69       1.0  0.96342  0.25863  0.32904  1.0000
  C   C160      1.0  0.04704  0.77610  0.33093  1.0000
  N   N70       1.0  0.02759  0.78300  0.34426  1.0000
  C   C161      1.0  0.01156  0.76982  0.35505  1.0000
  N   N71       1.0  0.01566  0.74948  0.35232  1.0000
  C   C162      1.0  0.03462  0.74194  0.33884  1.0000
  N   N72       1.0  0.04980  0.75565  0.32868  1.0000
  C   C163      1.0  0.27513  0.54733  0.36198  1.0000
  N   N73       1.0  0.28196  0.52785  0.34882  1.0000
  C   C164      1.0  0.26873  0.51186  0.33798  1.0000
  N   N74       1.0  0.24839  0.51604  0.34037  1.0000
  C   C165      1.0  0.24093  0.53504  0.35364  1.0000
  N   N75       1.0  0.25469  0.55016  0.36388  1.0000
  C   C166      1.0  0.73724  0.46654  0.36218  1.0000
  N   N76       1.0  0.73032  0.48598  0.34877  1.0000
  C   C167      1.0  0.74349  0.50202  0.33798  1.0000
  N   N77       1.0  0.76384  0.49794  0.34071  1.0000
  C   C168      1.0  0.77139  0.47898  0.35421  1.0000
  N   N78       1.0  0.75769  0.46380  0.36438  1.0000
  C   C169      1.0  0.54687  0.73820  0.36197  1.0000
  N   N79       1.0  0.52739  0.73136  0.34894  1.0000
  C   C170      1.0  0.51140  0.74459  0.33818  1.0000
  N   N80       1.0  0.51557  0.76493  0.34048  1.0000
  C   C171      1.0  0.53458  0.77240  0.35367  1.0000
  N   N81       1.0  0.54970  0.75863  0.36387  1.0000
  C   C172      1.0  0.46608  0.27610  0.36198  1.0000
  N   N82       1.0  0.48553  0.28300  0.34866  1.0000
  C   C173      1.0  0.50156  0.26982  0.33787  1.0000
  N   N83       1.0  0.49746  0.24948  0.34059  1.0000
  C   C174      1.0  0.47850  0.24194  0.35407  1.0000
  N   N84       1.0  0.46332  0.25565  0.36423  1.0000
  C   C175      1.0  0.17672  0.18548  0.35076  1.0000
  N   N85       1.0  0.15656  0.19045  0.34955  1.0000
  C   C176      1.0  0.14988  0.21014  0.34581  1.0000
  N   N86       1.0  0.16434  0.22510  0.34305  1.0000
  C   C177      1.0  0.18468  0.22109  0.34314  1.0000
  N   N87       1.0  0.19021  0.20118  0.34700  1.0000
  C   C178      1.0  0.83642  0.82810  0.35071  1.0000
  N   N88       1.0  0.85657  0.82312  0.34972  1.0000
  C   C179      1.0  0.86327  0.80344  0.34618  1.0000
  N   N89       1.0  0.84881  0.78848  0.34337  1.0000
  C   C180      1.0  0.82846  0.79249  0.34327  1.0000
  N   N90       1.0  0.82293  0.81241  0.34695  1.0000
  C   C181      1.0  0.82803  0.17717  0.35060  1.0000
  N   N91       1.0  0.82310  0.15701  0.34952  1.0000
  C   C182      1.0  0.80343  0.15028  0.34589  1.0000
  N   N92       1.0  0.78844  0.16471  0.34311  1.0000
  C   C183      1.0  0.79240  0.18506  0.34309  1.0000
  N   N93       1.0  0.81231  0.19063  0.34685  1.0000
  C   C184      1.0  0.18542  0.83685  0.35081  1.0000
  N   N94       1.0  0.19043  0.85701  0.34972  1.0000
  C   C185      1.0  0.21013  0.86366  0.34607  1.0000
  N   N95       1.0  0.22506  0.84917  0.34327  1.0000
  C   C186      1.0  0.22101  0.82883  0.34327  1.0000
  N   N96       1.0  0.20109  0.82334  0.34704  1.0000
  C   C187      1.0  0.33640  0.68549  0.34213  1.0000
  N   N97       1.0  0.35656  0.69046  0.34335  1.0000
  C   C188      1.0  0.36325  0.71014  0.34710  1.0000
  N   N98       1.0  0.34879  0.72510  0.34986  1.0000
  C   C189      1.0  0.32844  0.72110  0.34976  1.0000
  N   N99       1.0  0.32291  0.70118  0.34589  1.0000
  C   C190      1.0  0.67670  0.32810  0.34221  1.0000
  N   N100      1.0  0.65655  0.32312  0.34319  1.0000
  C   C191      1.0  0.64985  0.30344  0.34673  1.0000
  N   N101      1.0  0.66431  0.28847  0.34954  1.0000
  C   C192      1.0  0.68466  0.29248  0.34965  1.0000
  N   N102      1.0  0.69019  0.31240  0.34596  1.0000
  C   C193      1.0  0.68509  0.67717  0.34230  1.0000
  N   N103      1.0  0.69003  0.65700  0.34338  1.0000
  C   C194      1.0  0.70969  0.65027  0.34701  1.0000
  N   N104      1.0  0.72468  0.66470  0.34980  1.0000
  C   C195      1.0  0.72072  0.68505  0.34982  1.0000
  N   N105      1.0  0.70081  0.69063  0.34605  1.0000
  C   C196      1.0  0.32770  0.33685  0.34210  1.0000
  N   N106      1.0  0.32269  0.35701  0.34318  1.0000
  C   C197      1.0  0.30299  0.36366  0.34683  1.0000
  N   N107      1.0  0.28806  0.34917  0.34963  1.0000
  C   C198      1.0  0.29211  0.32883  0.34964  1.0000
  N   N108      1.0  0.31203  0.32334  0.34587  1.0000
  C   C199      1.0  0.44463  0.09518  0.34288  1.0000
  N   N109      1.0  0.45888  0.08018  0.34597  1.0000
  C   C200      1.0  0.45363  0.06017  0.35220  1.0000
  N   N110      1.0  0.43347  0.05544  0.35536  1.0000
  C   C201      1.0  0.41873  0.06988  0.35332  1.0000
  N   N111      1.0  0.42475  0.08958  0.34706  1.0000
  C   C202      1.0  0.56974  0.91886  0.33965  1.0000
  N   N112      1.0  0.55530  0.93361  0.33759  1.0000
  C   C203      1.0  0.56003  0.95376  0.34070  1.0000
  N   N113      1.0  0.58003  0.95901  0.34685  1.0000
  C   C204      1.0  0.59504  0.94477  0.34993  1.0000
  N   N114      1.0  0.58944  0.92489  0.34583  1.0000
  C   C205      1.0  0.91808  0.44477  0.34301  1.0000
  N   N115      1.0  0.93309  0.45901  0.34608  1.0000
  C   C206      1.0  0.95309  0.45375  0.35222  1.0000
  N   N116      1.0  0.95782  0.43360  0.35531  1.0000
  C   C207      1.0  0.94338  0.41885  0.35326  1.0000
  N   N117      1.0  0.92368  0.42489  0.34710  1.0000
  C   C208      1.0  0.09440  0.56988  0.33959  1.0000
  N   N118      1.0  0.07966  0.55544  0.33757  1.0000
  C   C209      1.0  0.05950  0.56017  0.34072  1.0000
  N   N119      1.0  0.05425  0.58017  0.34693  1.0000
  C   C210      1.0  0.06849  0.59518  0.34999  1.0000
  N   N120      1.0  0.08837  0.58958  0.34583  1.0000
  C   C211      1.0  0.30806  0.02758  0.38066  1.0000
  N   N121      1.0  0.32783  0.03355  0.38293  1.0000
  C   C212      1.0  0.35570  0.05566  0.35455  1.0000
  C   C213      1.0  0.36224  0.07428  0.39403  1.0000
  C   C214      1.0  0.38331  0.07867  0.39252  1.0000
  C   C215      1.0  0.39772  0.06485  0.35696  1.0000
  H   H121      1.0  0.38825  0.09214  0.41938  1.0000
  H   H122      1.0  0.30395  0.01489  0.41607  1.0000
  N   N122      1.0  0.34930  0.08780  0.43318  1.0000
  H   H123      1.0  0.33490  0.08488  0.44006  1.0000
  H   H124      1.0  0.35427  0.10028  0.46079  1.0000
  C   C216      1.0  0.70590  0.98678  0.37923  1.0000
  N   N123      1.0  0.68608  0.98102  0.38117  1.0000
  C   C217      1.0  0.65806  0.95908  0.35313  1.0000
  C   C218      1.0  0.65144  0.94066  0.39410  1.0000
  C   C219      1.0  0.63036  0.93634  0.39256  1.0000
  C   C220      1.0  0.61601  0.94999  0.35522  1.0000
  H   H125      1.0  0.62540  0.92296  0.42030  1.0000
  H   H126      1.0  0.71008  0.99952  0.41419  1.0000
  N   N124      1.0  0.66432  0.92723  0.43433  1.0000
  H   H127      1.0  0.67870  0.93019  0.44153  1.0000
  H   H128      1.0  0.65926  0.91495  0.46329  1.0000
  C   C221      1.0  0.98591  0.30827  0.38073  1.0000
  N   N125      1.0  0.97989  0.32802  0.38300  1.0000
  C   C222      1.0  0.95772  0.35585  0.35442  1.0000
  C   C223      1.0  0.93906  0.36235  0.39371  1.0000
  C   C224      1.0  0.93463  0.38341  0.39215  1.0000
  C   C225      1.0  0.94844  0.39785  0.35684  1.0000
  H   H129      1.0  0.92113  0.38832  0.41892  1.0000
  H   H130      1.0  0.99859  0.30419  0.41626  1.0000
  N   N126      1.0  0.92555  0.34937  0.43270  1.0000
  H   H131      1.0  0.92850  0.33498  0.43960  1.0000
  H   H132      1.0  0.91305  0.35431  0.46017  1.0000
  C   C226      1.0  0.02671  0.70612  0.37907  1.0000
  N   N127      1.0  0.03242  0.68628  0.38106  1.0000
  C   C227      1.0  0.05430  0.65822  0.35330  1.0000
  C   C228      1.0  0.07268  0.65155  0.39451  1.0000
  C   C229      1.0  0.07695  0.63047  0.39298  1.0000
  C   C230      1.0  0.06329  0.61615  0.35540  1.0000
  H   H133      1.0  0.09029  0.62546  0.42089  1.0000
  H   H134      1.0  0.01397  0.71032  0.41398  1.0000
  N   N128      1.0  0.08610  0.66439  0.43501  1.0000
  H   H135      1.0  0.08325  0.67880  0.44173  1.0000
  H   H136      1.0  0.09842  0.65932  0.46362  1.0000
  C   C231      1.0  0.21977  0.53963  0.35664  1.0000
  C   C232      1.0  0.17814  0.55052  0.35180  1.0000
  C   C233      1.0  0.19182  0.56264  0.40326  1.0000
  C   C234      1.0  0.21259  0.55705  0.40288  1.0000
  H   H137      1.0  0.22267  0.56584  0.43836  1.0000
  C   C235      1.0  0.12293  0.54612  0.36861  1.0000
  N   N129      1.0  0.14324  0.54246  0.37032  1.0000
  H   H138      1.0  0.11340  0.53548  0.39586  1.0000
  N   N130      1.0  0.18587  0.57905  0.45268  1.0000
  H   H139      1.0  0.19558  0.58684  0.48815  1.0000
  H   H140      1.0  0.17163  0.58272  0.45898  1.0000
  C   C236      1.0  0.79257  0.47454  0.35744  1.0000
  C   C237      1.0  0.83431  0.46405  0.35326  1.0000
  C   C238      1.0  0.82068  0.45170  0.40385  1.0000
  C   C239      1.0  0.79985  0.45710  0.40322  1.0000
  H   H141      1.0  0.78982  0.44816  0.43814  1.0000
  C   C240      1.0  0.88951  0.46856  0.37174  1.0000
  N   N131      1.0  0.86919  0.47217  0.37323  1.0000
  H   H142      1.0  0.89898  0.47906  0.40044  1.0000
  N   N132      1.0  0.82671  0.43523  0.45261  1.0000
  H   H143      1.0  0.81704  0.42725  0.48747  1.0000
  H   H144      1.0  0.84098  0.43164  0.45893  1.0000
  C   C241      1.0  0.53920  0.79354  0.35672  1.0000
  C   C242      1.0  0.55020  0.83515  0.35188  1.0000
  C   C243      1.0  0.56226  0.82145  0.40348  1.0000
  C   C244      1.0  0.55662  0.80069  0.40310  1.0000
  H   H145      1.0  0.56536  0.79060  0.43872  1.0000
  C   C245      1.0  0.54591  0.89037  0.36849  1.0000
  N   N133      1.0  0.54221  0.87008  0.37022  1.0000
  H   H146      1.0  0.53528  0.89993  0.39562  1.0000
  N   N134      1.0  0.57866  0.82736  0.45305  1.0000
  H   H147      1.0  0.58641  0.81764  0.48862  1.0000
  H   H148      1.0  0.58237  0.84159  0.45934  1.0000
  C   C246      1.0  0.47409  0.22075  0.35725  1.0000
  C   C247      1.0  0.46372  0.17899  0.35314  1.0000
  C   C248      1.0  0.45130  0.19259  0.40351  1.0000
  C   C249      1.0  0.45663  0.21344  0.40282  1.0000
  H   H149      1.0  0.44764  0.22346  0.43755  1.0000
  C   C250      1.0  0.46837  0.12379  0.37165  1.0000
  N   N135      1.0  0.47191  0.14413  0.37325  1.0000
  H   H150      1.0  0.47884  0.11436  0.40077  1.0000
  N   N136      1.0  0.43480  0.18652  0.45200  1.0000
  H   H151      1.0  0.42686  0.19616  0.48717  1.0000
  H   H152      1.0  0.43135  0.17223  0.45877  1.0000
  C   C251      1.0  0.18409  0.16494  0.35383  1.0000
  C   C252      1.0  0.19996  0.12456  0.34765  1.0000
  C   C253      1.0  0.21223  0.14053  0.38309  1.0000
  C   C254      1.0  0.20403  0.16047  0.38430  1.0000
  H   H153      1.0  0.21292  0.17204  0.40838  1.0000
  C   C255      1.0  0.20927  0.06972  0.37935  1.0000
  N   N137      1.0  0.20128  0.08886  0.38251  1.0000
  H   H154      1.0  0.20417  0.05915  0.42458  1.0000
  N   N138      1.0  0.23139  0.13746  0.41513  1.0000
  H   H155      1.0  0.23940  0.14861  0.43972  1.0000
  H   H156      1.0  0.23729  0.12395  0.41896  1.0000
  C   C256      1.0  0.82911  0.84866  0.35357  1.0000
  C   C257      1.0  0.81345  0.88911  0.34740  1.0000
  C   C258      1.0  0.80101  0.87317  0.38195  1.0000
  C   C259      1.0  0.80912  0.85319  0.38318  1.0000
  H   H157      1.0  0.80012  0.84164  0.40665  1.0000
  C   C260      1.0  0.80441  0.94398  0.37974  1.0000
  N   N139      1.0  0.81228  0.92480  0.38286  1.0000
  H   H158      1.0  0.80949  0.95448  0.42534  1.0000
  N   N140      1.0  0.78180  0.87631  0.41316  1.0000
  H   H159      1.0  0.77369  0.86518  0.43736  1.0000
  H   H160      1.0  0.77598  0.88985  0.41718  1.0000
  C   C261      1.0  0.84857  0.18454  0.35361  1.0000
  C   C262      1.0  0.88896  0.20034  0.34759  1.0000
  C   C263      1.0  0.87300  0.21266  0.38268  1.0000
  C   C264      1.0  0.85304  0.20449  0.38382  1.0000
  H   H161      1.0  0.84147  0.21341  0.40769  1.0000
  C   C265      1.0  0.94382  0.20951  0.37946  1.0000
  N   N141      1.0  0.92466  0.20159  0.38266  1.0000
  H   H162      1.0  0.95436  0.20446  0.42494  1.0000
  N   N142      1.0  0.87609  0.23184  0.41447  1.0000
  H   H163      1.0  0.86494  0.23989  0.43883  1.0000
  H   H164      1.0  0.88961  0.23772  0.41832  1.0000
  C   C266      1.0  0.16485  0.82954  0.35378  1.0000
  C   C267      1.0  0.12441  0.81383  0.34755  1.0000
  C   C268      1.0  0.14036  0.80144  0.38233  1.0000
  C   C269      1.0  0.16033  0.80957  0.38358  1.0000
  H   H165      1.0  0.17188  0.80059  0.40719  1.0000
  C   C270      1.0  0.06954  0.80471  0.37963  1.0000
  N   N143      1.0  0.08872  0.81259  0.38285  1.0000
  H   H166      1.0  0.05906  0.80972  0.42546  1.0000
  N   N144      1.0  0.13723  0.78223  0.41368  1.0000
  H   H167      1.0  0.14835  0.77418  0.43830  1.0000
  H   H168      1.0  0.12369  0.77643  0.41794  1.0000
  C   C271      1.0  0.34067  0.64813  0.36872  1.0000
  N   N145      1.0  0.33239  0.62916  0.37265  1.0000
  C   C272      1.0  0.30546  0.60464  0.36299  1.0000
  C   C273      1.0  0.28955  0.60099  0.42613  1.0000
  C   C274      1.0  0.28067  0.58137  0.42775  1.0000
  C   C275      1.0  0.28720  0.56535  0.37059  1.0000
  H   H169      1.0  0.26870  0.57885  0.47060  1.0000
  H   H170      1.0  0.35509  0.65013  0.39295  1.0000
  N   N146      1.0  0.28231  0.61551  0.48319  1.0000
  H   H171      1.0  0.28841  0.62895  0.48664  1.0000
  H   H172      1.0  0.27143  0.61257  0.52580  1.0000
  C   C276      1.0  0.67223  0.36544  0.36820  1.0000
  N   N147      1.0  0.68040  0.38446  0.37208  1.0000
  C   C277      1.0  0.70722  0.40909  0.36314  1.0000
  C   C278      1.0  0.72297  0.41289  0.42687  1.0000
  C   C279      1.0  0.73174  0.43256  0.42848  1.0000
  C   C280      1.0  0.72525  0.44847  0.37066  1.0000
  H   H173      1.0  0.74363  0.43519  0.47168  1.0000
  H   H174      1.0  0.65775  0.36340  0.39158  1.0000
  N   N148      1.0  0.73017  0.39846  0.48452  1.0000
  H   H175      1.0  0.72405  0.38504  0.48831  1.0000
  H   H176      1.0  0.74086  0.40154  0.52786  1.0000
  C   C281      1.0  0.64774  0.67285  0.36866  1.0000
  N   N149      1.0  0.62876  0.68110  0.37252  1.0000
  C   C282      1.0  0.60421  0.70798  0.36302  1.0000
  C   C283      1.0  0.60050  0.72383  0.42640  1.0000
  C   C284      1.0  0.58086  0.73265  0.42806  1.0000
  C   C285      1.0  0.56489  0.72613  0.37064  1.0000
  H   H177      1.0  0.57830  0.74461  0.47097  1.0000
  H   H178      1.0  0.64975  0.65842  0.39268  1.0000
  N   N150      1.0  0.61499  0.73106  0.48364  1.0000
  H   H179      1.0  0.62844  0.72500  0.48708  1.0000
  H   H180      1.0  0.61201  0.74190  0.52640  1.0000
  C   C286      1.0  0.36506  0.34130  0.36815  1.0000
  N   N151      1.0  0.38406  0.33309  0.37212  1.0000
  C   C287      1.0  0.40867  0.30624  0.36310  1.0000
  C   C288      1.0  0.41244  0.29045  0.42668  1.0000
  C   C289      1.0  0.43209  0.28163  0.42826  1.0000
  C   C290      1.0  0.44803  0.28813  0.37061  1.0000
  H   H181      1.0  0.43468  0.26971  0.47132  1.0000
  H   H182      1.0  0.36303  0.35575  0.39184  1.0000
  N   N152      1.0  0.39798  0.28325  0.48420  1.0000
  H   H183      1.0  0.38453  0.28930  0.48769  1.0000
  H   H184      1.0  0.40100  0.27245  0.52712  1.0000
  C   C291      1.0  0.20155  0.90012  0.37598  1.0000
  N   N153      1.0  0.20718  0.92005  0.37801  1.0000
  C   C292      1.0  0.22981  0.94835  0.36088  1.0000
  C   C293      1.0  0.24672  0.95564  0.41160  1.0000
  C   C294      1.0  0.25086  0.97681  0.41000  1.0000
  C   C295      1.0  0.23843  0.99095  0.36338  1.0000
  H   H185      1.0  0.26332  0.98205  0.44436  1.0000
  H   H186      1.0  0.18762  0.89632  0.40138  1.0000
  N   N154      1.0  0.25893  0.94327  0.46151  1.0000
  H   H187      1.0  0.25599  0.92889  0.46889  1.0000
  H   H188      1.0  0.27021  0.94870  0.49649  1.0000
  C   C296      1.0  0.81221  0.11386  0.37567  1.0000
  N   N155      1.0  0.80670  0.09391  0.37775  1.0000
  C   C297      1.0  0.78418  0.06551  0.36110  1.0000
  C   C298      1.0  0.76738  0.05818  0.41237  1.0000
  C   C299      1.0  0.76327  0.03701  0.41079  1.0000
  C   C300      1.0  0.77564  0.02291  0.36366  1.0000
  H   H189      1.0  0.75087  0.03174  0.44546  1.0000
  H   H190      1.0  0.82616  0.11774  0.40072  1.0000
  N   N156      1.0  0.75521  0.07053  0.46261  1.0000
  H   H191      1.0  0.75822  0.08489  0.47035  1.0000
  H   H192      1.0  0.74408  0.06504  0.49839  1.0000
  C   C301      1.0  0.11341  0.20158  0.37589  1.0000
  N   N157      1.0  0.09349  0.20721  0.37795  1.0000
  C   C302      1.0  0.06520  0.22986  0.36070  1.0000
  C   C303      1.0  0.05795  0.24681  0.41129  1.0000
  C   C304      1.0  0.03679  0.25100  0.40967  1.0000
  C   C305      1.0  0.02262  0.23859  0.36317  1.0000
  H   H193      1.0  0.03158  0.26349  0.44393  1.0000
  H   H194      1.0  0.11722  0.18766  0.40148  1.0000
  N   N158      1.0  0.07035  0.25901  0.46107  1.0000
  H   H195      1.0  0.08473  0.25604  0.46844  1.0000
  H   H196      1.0  0.06496  0.27032  0.49596  1.0000
  C   C306      1.0  0.89968  0.81223  0.37575  1.0000
  N   N159      1.0  0.91963  0.80673  0.37783  1.0000
  C   C307      1.0  0.94805  0.78424  0.36127  1.0000
  C   C308      1.0  0.95542  0.76746  0.41263  1.0000
  C   C309      1.0  0.97660  0.76341  0.41105  1.0000
  C   C310      1.0  0.99067  0.77580  0.36381  1.0000
  H   H197      1.0  0.98190  0.75103  0.44578  1.0000
  H   H198      1.0  0.89581  0.82619  0.40077  1.0000
  N   N160      1.0  0.94311  0.75529  0.46303  1.0000
  H   H199      1.0  0.92871  0.75817  0.47035  1.0000
  H   H200      1.0  0.94860  0.74410  0.49841  1.0000
  C   C311      1.0  0.29802  0.38494  0.34810  1.0000
  C   C312      1.0  0.28771  0.42720  0.34462  1.0000
  C   C313      1.0  0.27374  0.41293  0.38224  1.0000
  C   C314      1.0  0.27909  0.39201  0.38127  1.0000
  H   H201      1.0  0.26900  0.38171  0.40731  1.0000
  C   C315      1.0  0.29201  0.48280  0.37294  1.0000
  N   N161      1.0  0.29536  0.46234  0.37403  1.0000
  H   H202      1.0  0.30154  0.49196  0.40924  1.0000
  N   N162      1.0  0.25573  0.41855  0.41999  1.0000
  H   H203      1.0  0.24661  0.40855  0.44660  1.0000
  H   H204      1.0  0.25199  0.43275  0.42709  1.0000
  C   C316      1.0  0.71456  0.62897  0.34822  1.0000
  C   C317      1.0  0.72465  0.58667  0.34459  1.0000
  C   C318      1.0  0.73873  0.60086  0.38193  1.0000
  C   C319      1.0  0.73348  0.62181  0.38104  1.0000
  H   H205      1.0  0.74365  0.63206  0.40689  1.0000
  C   C320      1.0  0.72024  0.53109  0.37317  1.0000
  N   N163      1.0  0.71694  0.55156  0.37429  1.0000
  H   H206      1.0  0.71078  0.52195  0.40990  1.0000
  N   N164      1.0  0.75676  0.59516  0.41926  1.0000
  H   H207      1.0  0.76593  0.60510  0.44589  1.0000
  H   H208      1.0  0.76040  0.58093  0.42647  1.0000
  C   C321      1.0  0.38453  0.71510  0.34845  1.0000
  C   C322      1.0  0.42679  0.72543  0.34492  1.0000
  C   C323      1.0  0.41252  0.73937  0.38279  1.0000
  C   C324      1.0  0.39161  0.73401  0.38184  1.0000
  H   H209      1.0  0.38130  0.74408  0.40807  1.0000
  C   C325      1.0  0.48240  0.72122  0.37296  1.0000
  N   N165      1.0  0.46194  0.71783  0.37411  1.0000
  H   H210      1.0  0.49159  0.71172  0.40923  1.0000
  N   N166      1.0  0.41813  0.75736  0.42075  1.0000
  H   H211      1.0  0.40814  0.76646  0.44752  1.0000
  H   H212      1.0  0.43234  0.76110  0.42783  1.0000
  C   C326      1.0  0.62855  0.29856  0.34789  1.0000
  C   C327      1.0  0.58624  0.28849  0.34435  1.0000
  C   C328      1.0  0.60044  0.27439  0.38147  1.0000
  C   C329      1.0  0.62139  0.27962  0.38052  1.0000
  H   H213      1.0  0.63165  0.26944  0.40622  1.0000
  C   C330      1.0  0.53067  0.29302  0.37300  1.0000
  N   N167      1.0  0.55115  0.29626  0.37421  1.0000
  H   H214      1.0  0.52157  0.30245  0.41005  1.0000
  N   N168      1.0  0.59473  0.25633  0.41860  1.0000
  H   H215      1.0  0.60467  0.24719  0.44539  1.0000
  H   H216      1.0  0.58050  0.25274  0.42615  1.0000
  C   C331      1.0  0.27661  0.31350  0.35357  1.0000
  C   C332      1.0  0.24668  0.28198  0.35217  1.0000
  C   C333      1.0  0.26581  0.27846  0.39473  1.0000
  C   C334      1.0  0.28056  0.29420  0.39219  1.0000
  H   H217      1.0  0.29445  0.29162  0.42128  1.0000
  C   C335      1.0  0.19700  0.25642  0.37413  1.0000
  N   N169      1.0  0.21251  0.27016  0.37511  1.0000
  H   H218      1.0  0.18350  0.26039  0.40339  1.0000
  N   N170      1.0  0.27042  0.26087  0.43861  1.0000
  H   H219      1.0  0.28346  0.25901  0.46849  1.0000
  H   H220      1.0  0.26036  0.25023  0.44750  1.0000
  C   C336      1.0  0.73627  0.70032  0.35374  1.0000
  C   C337      1.0  0.76633  0.73173  0.35235  1.0000
  C   C338      1.0  0.74720  0.73533  0.39481  1.0000
  C   C339      1.0  0.73239  0.71965  0.39226  1.0000
  H   H221      1.0  0.71851  0.72229  0.42132  1.0000
  C   C340      1.0  0.81607  0.75718  0.37434  1.0000
  N   N171      1.0  0.80053  0.74347  0.37534  1.0000
  H   H222      1.0  0.82956  0.75319  0.40370  1.0000
  N   N172      1.0  0.74265  0.75295  0.43860  1.0000
  H   H223      1.0  0.72961  0.75486  0.46842  1.0000
  H   H224      1.0  0.75275  0.76355  0.44750  1.0000
  C   C341      1.0  0.69996  0.27697  0.35361  1.0000
  C   C342      1.0  0.73146  0.24700  0.35222  1.0000
  C   C343      1.0  0.73499  0.26613  0.39483  1.0000
  C   C344      1.0  0.71926  0.28089  0.39229  1.0000
  H   H225      1.0  0.72186  0.29477  0.42145  1.0000
  C   C345      1.0  0.75706  0.19734  0.37411  1.0000
  N   N173      1.0  0.74330  0.21283  0.37515  1.0000
  H   H226      1.0  0.75312  0.18384  0.40351  1.0000
  N   N174      1.0  0.75259  0.27071  0.43874  1.0000
  H   H227      1.0  0.75445  0.28375  0.46865  1.0000
  H   H228      1.0  0.76321  0.26064  0.44760  1.0000
  C   C346      1.0  0.31315  0.73663  0.35367  1.0000
  C   C347      1.0  0.28172  0.76665  0.35228  1.0000
  C   C348      1.0  0.27813  0.74751  0.39467  1.0000
  C   C349      1.0  0.29382  0.73271  0.39206  1.0000
  H   H229      1.0  0.29119  0.71882  0.42105  1.0000
  C   C350      1.0  0.25632  0.81642  0.37415  1.0000
  N   N175      1.0  0.27000  0.80086  0.37522  1.0000
  H   H230      1.0  0.26031  0.82989  0.40363  1.0000
  N   N176      1.0  0.26050  0.74294  0.43833  1.0000
  H   H231      1.0  0.25866  0.72995  0.46865  1.0000
  H   H232      1.0  0.24998  0.75309  0.44779  1.0000
  C   C351      1.0  0.46850  0.04449  0.35484  1.0000
  C   C352      1.0  0.49754  0.01280  0.35197  1.0000
  C   C353      1.0  0.47864  0.00945  0.39639  1.0000
  C   C354      1.0  0.46424  0.02543  0.39498  1.0000
  H   H233      1.0  0.45047  0.02320  0.42572  1.0000
  C   C355      1.0  0.54692  0.98817  0.37593  1.0000
  N   N177      1.0  0.53124  0.00155  0.37721  1.0000
  H   H234      1.0  0.56024  0.99228  0.40648  1.0000
  N   N178      1.0  0.47401  0.99191  0.44063  1.0000
  H   H235      1.0  0.46108  0.99023  0.47161  1.0000
  H   H236      1.0  0.48389  0.98104  0.44771  1.0000
  C   C356      1.0  0.96877  0.46862  0.35486  1.0000
  C   C357      1.0  0.00047  0.49767  0.35203  1.0000
  C   C358      1.0  0.00382  0.47876  0.39633  1.0000
  C   C359      1.0  0.98784  0.46435  0.39487  1.0000
  H   H237      1.0  0.99008  0.45058  0.42555  1.0000
  C   C360      1.0  0.02508  0.54706  0.37592  1.0000
  N   N179      1.0  0.01170  0.53138  0.37722  1.0000
  H   H238      1.0  0.02097  0.56038  0.40641  1.0000
  N   N180      1.0  0.02137  0.47411  0.44046  1.0000
  H   H239      1.0  0.02303  0.46119  0.47157  1.0000
  H   H240      1.0  0.03220  0.48402  0.44780  1.0000
