data_image0
_chemical_formula_structural       C3HNO2COC3HNO2COC3HNO2COC3HNO2COC3HNO2COC3HNO2COC3HNO2COC3HNO2COC3HNO2COC3HNO2COC3HNO2COC3HNO2COC3HNO2COC3HNO2COC3HNO2COC3HNO2COC3HNO2COC3HNO2COC3HNO2COC3HNO2COC3HNO2COC3HNO2COC3HNO2COC3HNO2COC3HNO2COC3HNO2COC3HNO2COC3HNO2COC3HNO2COC3HNO2COCNCNCN2HNHNHCNCNCN2HNHNHCNCNCN2HNHNHCNCNCN2HNHNHCNCNCN2HNHNHCNCNCN2HNHNHCNCNCN2HNHNHCNCNCN2HNHNHCNCNCN2HNHNHCNCNCN2HNHNHCNCNCN2HNHNHCNCNCN2HNHNHCNCNCN2HNHNHCNCNCN2HNHNHCNCNCN2HNHNHCNCNCN2HNHNHCNCNCN2HNHNHCNCNCN2HNHNHCNCNCN2HNHNHCNCNCN2HNHNHC3HNO2COC3HNO2COC3HNO2COC3HNO2COC3HNO2COC3HNO2COC3HNO2COC3HNO2COC3HNO2COC3HNO2COC3HNO2COC3HNO2COC3HNO2COC3HNO2COC3HNO2COC3HNO2COC3HNO2COC3HNO2COC3HNO2COC3HNO2COC3HNO2COC3HNO2COC3HNO2COC3HNO2COC3HNO2COC3HNO2COC3HNO2COC3HNO2COC3HNO2COC3HNO2CO
_chemical_formula_sum              "C300 H120 N180 O180"
_cell_length_a       64.8353
_cell_length_b       64.6039
_cell_length_c       15.0305
_cell_angle_alpha    90
_cell_angle_beta     90
_cell_angle_gamma    90.0026

_space_group_name_H-M_alt    "P 1"
_space_group_IT_number       1

loop_
  _space_group_symop_operation_xyz
  'x, y, z'

loop_
  _atom_site_type_symbol
  _atom_site_label
  _atom_site_symmetry_multiplicity
  _atom_site_fract_x
  _atom_site_fract_y
  _atom_site_fract_z
  _atom_site_occupancy
  C   C1        1.0  0.35484  0.04353  0.34209  1.0000
  C   C2        1.0  0.33819  0.04094  0.28206  1.0000
  C   C3        1.0  0.31834  0.03677  0.31649  1.0000
  H   H1        1.0  0.30639  0.03483  0.27270  1.0000
  N   N1        1.0  0.34149  0.04306  0.18927  1.0000
  O   O1        1.0  0.33109  0.05771  0.15741  1.0000
  O   O2        1.0  0.33695  0.02674  0.14822  1.0000
  C   C4        1.0  0.37518  0.04700  0.31154  1.0000
  O   O3        1.0  0.38278  0.03327  0.25181  1.0000
  C   C5        1.0  0.64005  0.96345  0.34453  1.0000
  C   C6        1.0  0.65556  0.96613  0.27912  1.0000
  C   C7        1.0  0.67580  0.97114  0.30667  1.0000
  H   H2        1.0  0.68695  0.97305  0.25907  1.0000
  N   N2        1.0  0.65082  0.96316  0.18794  1.0000
  O   O4        1.0  0.66113  0.94859  0.15493  1.0000
  O   O5        1.0  0.65414  0.97928  0.14334  1.0000
  C   C8        1.0  0.61938  0.95894  0.32127  1.0000
  O   O6        1.0  0.61031  0.97154  0.26075  1.0000
  C   C9        1.0  0.95844  0.35975  0.33784  1.0000
  C   C10       1.0  0.96120  0.34288  0.27881  1.0000
  C   C11       1.0  0.96554  0.32311  0.31445  1.0000
  H   H3        1.0  0.96754  0.31098  0.27143  1.0000
  N   N3        1.0  0.95905  0.34585  0.18583  1.0000
  O   O7        1.0  0.94455  0.33517  0.15462  1.0000
  O   O8        1.0  0.97535  0.34133  0.14505  1.0000
  C   C12       1.0  0.95464  0.38001  0.30615  1.0000
  O   O9        1.0  0.96807  0.38763  0.24537  1.0000
  C   C13       1.0  0.03870  0.64476  0.33848  1.0000
  C   C14       1.0  0.03614  0.66051  0.27381  1.0000
  C   C15       1.0  0.03103  0.68072  0.30225  1.0000
  H   H4        1.0  0.02921  0.69205  0.25519  1.0000
  N   N4        1.0  0.03930  0.65603  0.18249  1.0000
  O   O10       1.0  0.05386  0.66651  0.15062  1.0000
  O   O11       1.0  0.02333  0.65944  0.13746  1.0000
  C   C16       1.0  0.04336  0.62409  0.31438  1.0000
  O   O12       1.0  0.03111  0.61513  0.25239  1.0000
  C   C17       1.0  0.18272  0.53793  0.33869  1.0000
  C   C18       1.0  0.16700  0.53566  0.27399  1.0000
  C   C19       1.0  0.14786  0.54562  0.28775  1.0000
  H   H5        1.0  0.13682  0.54432  0.23933  1.0000
  N   N5        1.0  0.17085  0.52426  0.19516  1.0000
  O   O13       1.0  0.16949  0.53548  0.12709  1.0000
  O   O14       1.0  0.15855  0.50933  0.18728  1.0000
  C   C20       1.0  0.20235  0.52860  0.32778  1.0000
  O   O15       1.0  0.20278  0.50817  0.30782  1.0000
  C   C21       1.0  0.81591  0.46935  0.31806  1.0000
  C   C22       1.0  0.83008  0.47035  0.24646  1.0000
  C   C23       1.0  0.84930  0.46019  0.25465  1.0000
  H   H6        1.0  0.85915  0.46047  0.20139  1.0000
  N   N6        1.0  0.82454  0.48062  0.16667  1.0000
  O   O16       1.0  0.82414  0.46838  0.10168  1.0000
  O   O17       1.0  0.83679  0.49514  0.14931  1.0000
  C   C24       1.0  0.79608  0.47848  0.31256  1.0000
  O   O18       1.0  0.79500  0.49856  0.28721  1.0000
  C   C25       1.0  0.53530  0.81841  0.30431  1.0000
  C   C26       1.0  0.53319  0.83517  0.24427  1.0000
  C   C27       1.0  0.54277  0.85423  0.26487  1.0000
  H   H7        1.0  0.54164  0.86605  0.21972  1.0000
  N   N7        1.0  0.52234  0.83243  0.16329  1.0000
  O   O19       1.0  0.53388  0.83505  0.09705  1.0000
  O   O20       1.0  0.50735  0.84469  0.15751  1.0000
  C   C28       1.0  0.52636  0.79880  0.28660  1.0000
  O   O21       1.0  0.50605  0.79835  0.26576  1.0000
  C   C29       1.0  0.46336  0.18626  0.28583  1.0000
  C   C30       1.0  0.46377  0.17108  0.21789  1.0000
  C   C31       1.0  0.45397  0.15185  0.23303  1.0000
  H   H8        1.0  0.45378  0.14124  0.18240  1.0000
  N   N8        1.0  0.47309  0.17564  0.13490  1.0000
  O   O22       1.0  0.46021  0.17503  0.07244  1.0000
  O   O23       1.0  0.48750  0.16327  0.11781  1.0000
  C   C32       1.0  0.47207  0.20619  0.27352  1.0000
  O   O24       1.0  0.49188  0.20723  0.24525  1.0000
  C   C33       1.0  0.17560  0.12660  0.24925  1.0000
  C   C34       1.0  0.18295  0.10952  0.19975  1.0000
  C   C35       1.0  0.19358  0.09354  0.24505  1.0000
  H   H9        1.0  0.19971  0.08168  0.20835  1.0000
  N   N9        1.0  0.18025  0.10921  0.10626  1.0000
  O   O25       1.0  0.19727  0.10912  0.06628  1.0000
  O   O26       1.0  0.17009  0.09362  0.08213  1.0000
  C   C36       1.0  0.16643  0.14397  0.20822  1.0000
  O   O27       1.0  0.14564  0.14314  0.20060  1.0000
  C   C37       1.0  0.81934  0.87937  0.24549  1.0000
  C   C38       1.0  0.81339  0.89685  0.19506  1.0000
  C   C39       1.0  0.80266  0.91310  0.23814  1.0000
  H   H10       1.0  0.79744  0.92521  0.20040  1.0000
  N   N10       1.0  0.81740  0.89725  0.10246  1.0000
  O   O28       1.0  0.80097  0.89802  0.05821  1.0000
  O   O29       1.0  0.82840  0.91252  0.08172  1.0000
  C   C40       1.0  0.82867  0.86184  0.20629  1.0000
  O   O30       1.0  0.84928  0.86312  0.19318  1.0000
  C   C41       1.0  0.87516  0.18227  0.24497  1.0000
  C   C42       1.0  0.89273  0.18905  0.19746  1.0000
  C   C43       1.0  0.90876  0.19911  0.24459  1.0000
  H   H11       1.0  0.92095  0.20493  0.20917  1.0000
  N   N11       1.0  0.89347  0.18641  0.10397  1.0000
  O   O31       1.0  0.89438  0.20351  0.06432  1.0000
  O   O32       1.0  0.90875  0.17569  0.08124  1.0000
  C   C44       1.0  0.85789  0.17343  0.20205  1.0000
  O   O33       1.0  0.85902  0.15270  0.18996  1.0000
  C   C45       1.0  0.12287  0.82368  0.25008  1.0000
  C   C46       1.0  0.10519  0.81840  0.19985  1.0000
  C   C47       1.0  0.08875  0.80797  0.24273  1.0000
  H   H12       1.0  0.07651  0.80317  0.20496  1.0000
  N   N12       1.0  0.10480  0.82265  0.10743  1.0000
  O   O34       1.0  0.10350  0.80630  0.06249  1.0000
  O   O35       1.0  0.08990  0.83418  0.08751  1.0000
  C   C48       1.0  0.14054  0.83274  0.21106  1.0000
  O   O36       1.0  0.13925  0.85319  0.19235  1.0000
  C   C49       1.0  0.30067  0.59199  0.31168  1.0000
  C   C50       1.0  0.30519  0.60970  0.25934  1.0000
  C   C51       1.0  0.31449  0.62706  0.30009  1.0000
  H   H13       1.0  0.31750  0.63985  0.26195  1.0000
  N   N13       1.0  0.30056  0.60983  0.16715  1.0000
  O   O37       1.0  0.31659  0.61192  0.12098  1.0000
  O   O38       1.0  0.28818  0.62408  0.14745  1.0000
  C   C52       1.0  0.28806  0.57574  0.27835  1.0000
  O   O39       1.0  0.27103  0.58155  0.23238  1.0000
  C   C53       1.0  0.69792  0.41373  0.32070  1.0000
  C   C54       1.0  0.69322  0.39629  0.26700  1.0000
  C   C55       1.0  0.68370  0.37889  0.30634  1.0000
  H   H14       1.0  0.68057  0.36628  0.26722  1.0000
  N   N14       1.0  0.69786  0.39649  0.17481  1.0000
  O   O40       1.0  0.68181  0.39480  0.12847  1.0000
  O   O41       1.0  0.71007  0.38218  0.15403  1.0000
  C   C56       1.0  0.71068  0.43000  0.28862  1.0000
  O   O42       1.0  0.72755  0.42427  0.24137  1.0000
  C   C57       1.0  0.58923  0.70000  0.32472  1.0000
  C   C58       1.0  0.60724  0.69404  0.27759  1.0000
  C   C59       1.0  0.62398  0.68545  0.32501  1.0000
  H   H15       1.0  0.63703  0.68144  0.29060  1.0000
  N   N15       1.0  0.60831  0.69662  0.18399  1.0000
  O   O43       1.0  0.61054  0.67958  0.14479  1.0000
  O   O44       1.0  0.62288  0.70839  0.16191  1.0000
  C   C60       1.0  0.57362  0.71206  0.28336  1.0000
  O   O45       1.0  0.58018  0.72788  0.23128  1.0000
  C   C61       1.0  0.40805  0.30456  0.33047  1.0000
  C   C62       1.0  0.39035  0.31044  0.28091  1.0000
  C   C63       1.0  0.37344  0.31943  0.32574  1.0000
  H   H16       1.0  0.36062  0.32335  0.28961  1.0000
  N   N16       1.0  0.38976  0.30739  0.18749  1.0000
  O   O46       1.0  0.38791  0.32425  0.14651  1.0000
  O   O47       1.0  0.37520  0.29565  0.16503  1.0000
  C   C64       1.0  0.42377  0.29215  0.29182  1.0000
  O   O48       1.0  0.41735  0.27627  0.23974  1.0000
  C   C65       1.0  0.21035  0.95745  0.36191  1.0000
  C   C66       1.0  0.20692  0.94882  0.27643  1.0000
  C   C67       1.0  0.20820  0.92712  0.26541  1.0000
  H   H17       1.0  0.20628  0.92113  0.20285  1.0000
  N   N17       1.0  0.20326  0.96193  0.20251  1.0000
  O   O49       1.0  0.21719  0.96028  0.14482  1.0000
  O   O50       1.0  0.18616  0.95811  0.16669  1.0000
  C   C68       1.0  0.21076  0.97920  0.37563  1.0000
  O   O51       1.0  0.19504  0.99045  0.34123  1.0000
  C   C69       1.0  0.78844  0.04924  0.36420  1.0000
  C   C70       1.0  0.79195  0.05784  0.27877  1.0000
  C   C71       1.0  0.79082  0.07954  0.26783  1.0000
  H   H18       1.0  0.79275  0.08550  0.20523  1.0000
  N   N18       1.0  0.79552  0.04470  0.20486  1.0000
  O   O52       1.0  0.78159  0.04645  0.14719  1.0000
  O   O53       1.0  0.81264  0.04840  0.16904  1.0000
  C   C72       1.0  0.78749  0.02751  0.37738  1.0000
  O   O54       1.0  0.80319  0.01601  0.34434  1.0000
  C   C73       1.0  0.04423  0.21524  0.36375  1.0000
  C   C74       1.0  0.05257  0.21202  0.27766  1.0000
  C   C75       1.0  0.07415  0.21342  0.26542  1.0000
  H   H19       1.0  0.07993  0.21157  0.20249  1.0000
  N   N19       1.0  0.03930  0.20838  0.20439  1.0000
  O   O55       1.0  0.04069  0.22247  0.14703  1.0000
  O   O56       1.0  0.04308  0.19130  0.16786  1.0000
  C   C76       1.0  0.02260  0.21549  0.37868  1.0000
  O   O57       1.0  0.01137  0.19971  0.34434  1.0000
  C   C77       1.0  0.95245  0.79260  0.36369  1.0000
  C   C78       1.0  0.94384  0.79600  0.27825  1.0000
  C   C79       1.0  0.92224  0.79451  0.26722  1.0000
  H   H20       1.0  0.91627  0.79643  0.20466  1.0000
  N   N20       1.0  0.95688  0.79983  0.20439  1.0000
  O   O58       1.0  0.95537  0.78585  0.14661  1.0000
  O   O59       1.0  0.95292  0.81696  0.16870  1.0000
  C   C80       1.0  0.97413  0.79199  0.37688  1.0000
  O   O60       1.0  0.98544  0.80781  0.34348  1.0000
  C   C81       1.0  0.28529  0.40974  0.31289  1.0000
  C   C82       1.0  0.28667  0.41918  0.22782  1.0000
  C   C83       1.0  0.28756  0.44103  0.22185  1.0000
  H   H21       1.0  0.28817  0.44777  0.16021  1.0000
  N   N21       1.0  0.28759  0.40674  0.15030  1.0000
  O   O61       1.0  0.30416  0.40943  0.10854  1.0000
  O   O62       1.0  0.27276  0.41043  0.09880  1.0000
  C   C84       1.0  0.28431  0.38793  0.32406  1.0000
  O   O63       1.0  0.27120  0.37718  0.27130  1.0000
  C   C85       1.0  0.71133  0.59592  0.31519  1.0000
  C   C86       1.0  0.71010  0.58628  0.23049  1.0000
  C   C87       1.0  0.70937  0.56442  0.22545  1.0000
  H   H22       1.0  0.70892  0.55753  0.16409  1.0000
  N   N22       1.0  0.70921  0.59855  0.15242  1.0000
  O   O64       1.0  0.69271  0.59563  0.11035  1.0000
  O   O65       1.0  0.72413  0.59484  0.10147  1.0000
  C   C88       1.0  0.71220  0.61776  0.32551  1.0000
  O   O66       1.0  0.72530  0.62846  0.27254  1.0000
  C   C89       1.0  0.40837  0.71927  0.33434  1.0000
  C   C90       1.0  0.41742  0.72286  0.24978  1.0000
  C   C91       1.0  0.43902  0.72078  0.23996  1.0000
  H   H23       1.0  0.44546  0.72347  0.17880  1.0000
  N   N23       1.0  0.40483  0.72787  0.17577  1.0000
  O   O67       1.0  0.40606  0.71438  0.11576  1.0000
  O   O68       1.0  0.40957  0.74514  0.14323  1.0000
  C   C92       1.0  0.38676  0.72109  0.34875  1.0000
  O   O69       1.0  0.37702  0.73770  0.31336  1.0000
  C   C93       1.0  0.58930  0.28682  0.33364  1.0000
  C   C94       1.0  0.57999  0.28343  0.24944  1.0000
  C   C95       1.0  0.55835  0.28541  0.24106  1.0000
  H   H24       1.0  0.55173  0.28285  0.18015  1.0000
  N   N24       1.0  0.59236  0.27869  0.17444  1.0000
  O   O70       1.0  0.59087  0.29234  0.11520  1.0000
  O   O71       1.0  0.58760  0.26148  0.14130  1.0000
  C   C96       1.0  0.61095  0.28498  0.34674  1.0000
  O   O72       1.0  0.62062  0.26848  0.31002  1.0000
  C   C97       1.0  0.22027  0.25017  0.28319  1.0000
  C   C98       1.0  0.23339  0.26234  0.22873  1.0000
  C   C99       1.0  0.24744  0.27619  0.26927  1.0000
  H   H25       1.0  0.25706  0.28465  0.22924  1.0000
  N   N25       1.0  0.23204  0.26076  0.13485  1.0000
  O   O73       1.0  0.22698  0.27771  0.10011  1.0000
  O   O74       1.0  0.24883  0.25496  0.10132  1.0000
  C   C100      1.0  0.20681  0.23499  0.24695  1.0000
  O   O75       1.0  0.21504  0.22153  0.18771  1.0000
  C   C101      1.0  0.77680  0.75504  0.28324  1.0000
  C   C102      1.0  0.76365  0.74284  0.22903  1.0000
  C   C103      1.0  0.74953  0.72911  0.26986  1.0000
  H   H26       1.0  0.73987  0.72066  0.22999  1.0000
  N   N26       1.0  0.76502  0.74428  0.13511  1.0000
  O   O76       1.0  0.77001  0.72726  0.10081  1.0000
  O   O77       1.0  0.74827  0.75011  0.10138  1.0000
  C   C104      1.0  0.79023  0.77020  0.24662  1.0000
  O   O78       1.0  0.78194  0.78350  0.18683  1.0000
  C   C105      1.0  0.75071  0.22465  0.28645  1.0000
  C   C106      1.0  0.73777  0.23705  0.23223  1.0000
  C   C107      1.0  0.72344  0.25056  0.27311  1.0000
  H   H27       1.0  0.71447  0.25974  0.23324  1.0000
  N   N27       1.0  0.73910  0.23555  0.13833  1.0000
  O   O79       1.0  0.72236  0.22959  0.10487  1.0000
  O   O80       1.0  0.74395  0.25259  0.10377  1.0000
  C   C108      1.0  0.76627  0.21172  0.24975  1.0000
  O   O81       1.0  0.77920  0.22041  0.18960  1.0000
  C   C109      1.0  0.24765  0.78161  0.28797  1.0000
  C   C110      1.0  0.26045  0.76908  0.23366  1.0000
  C   C111      1.0  0.27456  0.75533  0.27447  1.0000
  H   H28       1.0  0.28348  0.74610  0.23457  1.0000
  N   N28       1.0  0.25920  0.77069  0.13977  1.0000
  O   O82       1.0  0.27604  0.77645  0.10660  1.0000
  O   O83       1.0  0.25413  0.75376  0.10487  1.0000
  C   C112      1.0  0.23225  0.79471  0.25129  1.0000
  O   O84       1.0  0.21914  0.78609  0.19169  1.0000
  C   C113      1.0  0.48482  0.01959  0.26171  1.0000
  C   C114      1.0  0.49878  0.01245  0.19595  1.0000
  C   C115      1.0  0.51044  0.99437  0.21290  1.0000
  H   H29       1.0  0.52021  0.98904  0.16450  1.0000
  N   N29       1.0  0.50030  0.02298  0.11355  1.0000
  O   O85       1.0  0.49508  0.01155  0.04972  1.0000
  O   O86       1.0  0.51832  0.02939  0.10000  1.0000
  C   C116      1.0  0.47265  0.03760  0.24954  1.0000
  O   O87       1.0  0.48259  0.05517  0.22555  1.0000
  C   C117      1.0  0.98147  0.48996  0.25559  1.0000
  C   C118      1.0  0.98877  0.50375  0.18939  1.0000
  C   C119      1.0  0.00698  0.51519  0.20587  1.0000
  H   H30       1.0  0.01245  0.52481  0.15709  1.0000
  N   N30       1.0  0.97825  0.50529  0.10708  1.0000
  O   O88       1.0  0.98952  0.49978  0.04331  1.0000
  O   O89       1.0  0.97213  0.52345  0.09304  1.0000
  C   C120      1.0  0.96345  0.47785  0.24369  1.0000
  O   O90       1.0  0.94588  0.48794  0.22165  1.0000
  C   C121      1.0  0.22314  0.04444  0.38559  1.0000
  N   N31       1.0  0.21798  0.02408  0.39026  1.0000
  C   C122      1.0  0.23225  0.00919  0.40810  1.0000
  N   N32       1.0  0.25220  0.01519  0.41875  1.0000
  C   C123      1.0  0.25808  0.03532  0.41366  1.0000
  N   N33       1.0  0.24334  0.04956  0.39523  1.0000
  N   N34       1.0  0.22803  0.98847  0.40859  1.0000
  H   H31       1.0  0.23945  0.97944  0.42567  1.0000
  N   N35       1.0  0.27825  0.04126  0.41215  1.0000
  H   H32       1.0  0.28116  0.05466  0.38475  1.0000
  N   N36       1.0  0.20880  0.05891  0.36203  1.0000
  H   H33       1.0  0.19645  0.05390  0.33178  1.0000
  C   C124      1.0  0.77263  0.96276  0.37382  1.0000
  N   N37       1.0  0.77845  0.98287  0.38247  1.0000
  C   C125      1.0  0.76452  0.99813  0.39949  1.0000
  N   N38       1.0  0.74429  0.99279  0.40541  1.0000
  C   C126      1.0  0.73777  0.97295  0.39609  1.0000
  N   N39       1.0  0.75219  0.95829  0.37884  1.0000
  N   N40       1.0  0.76947  0.01865  0.40428  1.0000
  H   H34       1.0  0.75815  0.02796  0.41994  1.0000
  N   N41       1.0  0.71744  0.96765  0.39226  1.0000
  H   H35       1.0  0.71426  0.95433  0.36466  1.0000
  N   N42       1.0  0.78676  0.94793  0.35225  1.0000
  H   H36       1.0  0.79963  0.95263  0.32538  1.0000
  C   C127      1.0  0.95755  0.22794  0.38819  1.0000
  N   N43       1.0  0.97782  0.22269  0.39345  1.0000
  C   C128      1.0  0.99269  0.23698  0.41148  1.0000
  N   N44       1.0  0.98677  0.25703  0.42147  1.0000
  C   C129      1.0  0.96675  0.26302  0.41569  1.0000
  N   N45       1.0  0.95253  0.24825  0.39721  1.0000
  N   N46       1.0  0.01334  0.23273  0.41227  1.0000
  H   H37       1.0  0.02232  0.24421  0.42934  1.0000
  N   N47       1.0  0.96090  0.28327  0.41320  1.0000
  H   H38       1.0  0.94754  0.28615  0.38575  1.0000
  N   N48       1.0  0.94307  0.21366  0.36414  1.0000
  H   H39       1.0  0.94799  0.20128  0.33362  1.0000
  C   C130      1.0  0.03893  0.77774  0.37531  1.0000
  N   N49       1.0  0.01885  0.78348  0.38387  1.0000
  C   C131      1.0  0.00369  0.76936  0.39977  1.0000
  N   N50       1.0  0.00911  0.74906  0.40460  1.0000
  C   C132      1.0  0.02890  0.74263  0.39519  1.0000
  N   N51       1.0  0.04345  0.75723  0.37912  1.0000
  N   N52       1.0  0.98320  0.77410  0.40472  1.0000
  H   H40       1.0  0.97406  0.76264  0.42058  1.0000
  N   N53       1.0  0.03425  0.72227  0.39030  1.0000
  H   H41       1.0  0.04757  0.71920  0.36293  1.0000
  N   N54       1.0  0.05377  0.79198  0.35510  1.0000
  H   H42       1.0  0.04917  0.80493  0.32824  1.0000
  C   C133      1.0  0.27516  0.54115  0.30252  1.0000
  N   N55       1.0  0.27962  0.52060  0.30495  1.0000
  C   C134      1.0  0.26445  0.50613  0.31210  1.0000
  N   N56       1.0  0.24465  0.51271  0.32041  1.0000
  C   C135      1.0  0.23955  0.53307  0.31922  1.0000
  N   N57       1.0  0.25511  0.54695  0.31135  1.0000
  N   N58       1.0  0.26821  0.48545  0.31815  1.0000
  H   H43       1.0  0.25710  0.47706  0.34332  1.0000
  N   N59       1.0  0.21989  0.54017  0.33031  1.0000
  H   H44       1.0  0.21836  0.55510  0.33802  1.0000
  N   N60       1.0  0.29048  0.55561  0.30324  1.0000
  H   H45       1.0  0.30359  0.55148  0.32967  1.0000
  C   C136      1.0  0.72331  0.46481  0.31019  1.0000
  N   N61       1.0  0.71852  0.48528  0.31290  1.0000
  C   C137      1.0  0.73351  0.50002  0.31623  1.0000
  N   N62       1.0  0.75351  0.49384  0.32001  1.0000
  C   C138      1.0  0.75892  0.47356  0.31815  1.0000
  N   N63       1.0  0.74353  0.45938  0.31441  1.0000
  N   N64       1.0  0.72938  0.52061  0.32240  1.0000
  H   H46       1.0  0.74043  0.52924  0.34656  1.0000
  N   N65       1.0  0.77880  0.46681  0.32421  1.0000
  H   H47       1.0  0.78067  0.45200  0.33448  1.0000
  N   N66       1.0  0.70822  0.45011  0.31374  1.0000
  H   H48       1.0  0.69519  0.45417  0.34102  1.0000
  C   C139      1.0  0.53893  0.72546  0.28982  1.0000
  N   N67       1.0  0.51847  0.72101  0.28567  1.0000
  C   C140      1.0  0.50404  0.73623  0.27795  1.0000
  N   N68       1.0  0.51060  0.75623  0.27748  1.0000
  C   C141      1.0  0.53084  0.76136  0.28344  1.0000
  N   N69       1.0  0.54462  0.74569  0.29049  1.0000
  N   N70       1.0  0.48330  0.73271  0.27545  1.0000
  H   H49       1.0  0.47468  0.74476  0.26261  1.0000
  N   N71       1.0  0.53787  0.78120  0.29059  1.0000
  H   H50       1.0  0.55265  0.78280  0.30127  1.0000
  N   N72       1.0  0.55323  0.71034  0.30402  1.0000
  H   H51       1.0  0.54858  0.69793  0.33507  1.0000
  C   C142      1.0  0.45866  0.27919  0.29721  1.0000
  N   N73       1.0  0.47905  0.28399  0.29262  1.0000
  C   C143      1.0  0.49368  0.26907  0.28170  1.0000
  N   N74       1.0  0.48743  0.24900  0.27794  1.0000
  C   C144      1.0  0.46728  0.24352  0.28403  1.0000
  N   N75       1.0  0.45329  0.25889  0.29457  1.0000
  N   N76       1.0  0.51437  0.27292  0.27837  1.0000
  H   H52       1.0  0.52310  0.26105  0.26386  1.0000
  N   N77       1.0  0.46057  0.22352  0.28719  1.0000
  H   H53       1.0  0.44599  0.22157  0.30138  1.0000
  N   N78       1.0  0.44412  0.29402  0.31300  1.0000
  H   H54       1.0  0.44866  0.30650  0.34378  1.0000
  C   C145      1.0  0.16838  0.18154  0.21977  1.0000
  N   N79       1.0  0.18106  0.19804  0.23210  1.0000
  C   C146      1.0  0.17383  0.21713  0.25408  1.0000
  N   N80       1.0  0.15320  0.21923  0.26775  1.0000
  C   C147      1.0  0.13989  0.20317  0.25636  1.0000
  N   N81       1.0  0.14789  0.18452  0.23310  1.0000
  N   N82       1.0  0.18678  0.23321  0.27337  1.0000
  H   H55       1.0  0.18112  0.24427  0.31025  1.0000
  N   N83       1.0  0.11917  0.20434  0.27207  1.0000
  H   H56       1.0  0.11107  0.19234  0.25361  1.0000
  N   N84       1.0  0.17685  0.16230  0.20991  1.0000
  H   H57       1.0  0.19180  0.16153  0.21771  1.0000
  C   C148      1.0  0.82754  0.82435  0.22055  1.0000
  N   N85       1.0  0.81523  0.80758  0.23269  1.0000
  C   C149      1.0  0.82283  0.78869  0.25526  1.0000
  N   N86       1.0  0.84347  0.78709  0.26996  1.0000
  C   C150      1.0  0.85643  0.80346  0.25898  1.0000
  N   N87       1.0  0.84806  0.82190  0.23497  1.0000
  N   N88       1.0  0.81015  0.77236  0.27411  1.0000
  H   H58       1.0  0.81590  0.76147  0.31160  1.0000
  N   N89       1.0  0.87713  0.80279  0.27538  1.0000
  H   H59       1.0  0.88499  0.81494  0.25690  1.0000
  N   N90       1.0  0.81860  0.84335  0.21038  1.0000
  H   H60       1.0  0.80370  0.84385  0.22003  1.0000
  C   C151      1.0  0.82054  0.17460  0.21864  1.0000
  N   N91       1.0  0.80384  0.18693  0.23209  1.0000
  C   C152      1.0  0.78513  0.17922  0.25598  1.0000
  N   N92       1.0  0.78366  0.15850  0.27054  1.0000
  C   C153      1.0  0.79994  0.14554  0.25836  1.0000
  N   N93       1.0  0.81819  0.15399  0.23312  1.0000
  N   N94       1.0  0.76881  0.19173  0.27634  1.0000
  H   H61       1.0  0.75810  0.18571  0.31397  1.0000
  N   N95       1.0  0.79931  0.12477  0.27506  1.0000
  H   H62       1.0  0.81138  0.11686  0.25621  1.0000
  N   N96       1.0  0.83947  0.18353  0.20733  1.0000
  H   H63       1.0  0.84005  0.19848  0.21731  1.0000
  C   C154      1.0  0.17792  0.83175  0.22506  1.0000
  N   N97       1.0  0.19468  0.81946  0.23757  1.0000
  C   C155      1.0  0.21355  0.82726  0.25831  1.0000
  N   N98       1.0  0.21514  0.84803  0.27083  1.0000
  C   C156      1.0  0.19879  0.86097  0.25946  1.0000
  N   N99       1.0  0.18035  0.85243  0.23734  1.0000
  N   N100      1.0  0.22990  0.81473  0.27789  1.0000
  H   H64       1.0  0.24072  0.82070  0.31504  1.0000
  N   N101      1.0  0.19958  0.88180  0.27441  1.0000
  H   H65       1.0  0.18748  0.88969  0.25586  1.0000
  N   N102      1.0  0.15897  0.82269  0.21726  1.0000
  H   H66       1.0  0.15846  0.80785  0.22964  1.0000
  C   C157      1.0  0.32579  0.68315  0.41980  1.0000
  N   N103      1.0  0.31353  0.70002  0.40931  1.0000
  C   C158      1.0  0.32139  0.71932  0.39696  1.0000
  N   N104      1.0  0.34222  0.72131  0.39040  1.0000
  C   C159      1.0  0.35508  0.70483  0.40016  1.0000
  N   N105      1.0  0.34648  0.68595  0.41400  1.0000
  N   N106      1.0  0.30898  0.73588  0.37921  1.0000
  H   H67       1.0  0.31506  0.74710  0.34454  1.0000
  N   N107      1.0  0.37599  0.70583  0.39059  1.0000
  H   H68       1.0  0.38361  0.69341  0.40778  1.0000
  N   N108      1.0  0.31717  0.66389  0.41901  1.0000
  H   H69       1.0  0.30278  0.66318  0.39981  1.0000
  C   C160      1.0  0.67205  0.32244  0.42137  1.0000
  N   N109      1.0  0.68427  0.30558  0.40980  1.0000
  C   C161      1.0  0.67638  0.28637  0.39553  1.0000
  N   N110      1.0  0.65556  0.28448  0.38819  1.0000
  C   C162      1.0  0.64273  0.30096  0.39895  1.0000
  N   N111      1.0  0.65136  0.31974  0.41474  1.0000
  N   N112      1.0  0.68884  0.26987  0.37718  1.0000
  H   H70       1.0  0.68282  0.25876  0.34162  1.0000
  N   N113      1.0  0.62182  0.30008  0.38920  1.0000
  H   H71       1.0  0.61423  0.31242  0.40752  1.0000
  N   N114      1.0  0.68080  0.34164  0.42270  1.0000
  H   H72       1.0  0.69520  0.34237  0.40386  1.0000
  C   C163      1.0  0.67822  0.67744  0.43853  1.0000
  N   N115      1.0  0.69465  0.68991  0.42149  1.0000
  C   C164      1.0  0.71325  0.68227  0.39553  1.0000
  N   N116      1.0  0.71486  0.66151  0.38235  1.0000
  C   C165      1.0  0.69879  0.64849  0.39801  1.0000
  N   N117      1.0  0.68068  0.65680  0.42557  1.0000
  N   N118      1.0  0.72939  0.69483  0.37315  1.0000
  H   H73       1.0  0.73997  0.68879  0.33496  1.0000
  N   N119      1.0  0.69962  0.62768  0.38420  1.0000
  H   H74       1.0  0.68894  0.61948  0.41349  1.0000
  N   N120      1.0  0.65922  0.68609  0.45100  1.0000
  H   H75       1.0  0.65809  0.70077  0.43603  1.0000
  C   C166      1.0  0.31853  0.32833  0.43638  1.0000
  N   N121      1.0  0.30212  0.31582  0.41960  1.0000
  C   C167      1.0  0.28346  0.32340  0.39410  1.0000
  N   N122      1.0  0.28177  0.34416  0.38112  1.0000
  C   C168      1.0  0.29782  0.35723  0.39657  1.0000
  N   N123      1.0  0.31600  0.34897  0.42366  1.0000
  N   N124      1.0  0.26737  0.31075  0.37198  1.0000
  H   H76       1.0  0.25675  0.31672  0.33371  1.0000
  N   N125      1.0  0.29692  0.37805  0.38275  1.0000
  H   H77       1.0  0.30760  0.38628  0.41192  1.0000
  N   N126      1.0  0.33755  0.31968  0.44839  1.0000
  H   H78       1.0  0.33866  0.30500  0.43340  1.0000
  C   C169      1.0  0.40651  0.06721  0.31709  1.0000
  N   N127      1.0  0.41438  0.08671  0.31870  1.0000
  C   C170      1.0  0.43461  0.09053  0.30080  1.0000
  N   N128      1.0  0.44699  0.07412  0.28228  1.0000
  C   C171      1.0  0.43982  0.05439  0.28077  1.0000
  N   N129      1.0  0.41958  0.05133  0.29932  1.0000
  N   N130      1.0  0.44311  0.10987  0.29969  1.0000
  H   H79       1.0  0.45750  0.11067  0.28079  1.0000
  N   N131      1.0  0.45219  0.03753  0.26997  1.0000
  H   H80       1.0  0.44581  0.02411  0.28187  1.0000
  N   N132      1.0  0.38638  0.06371  0.33837  1.0000
  H   H81       1.0  0.37943  0.07431  0.37362  1.0000
  C   C172      1.0  0.58871  0.93835  0.34472  1.0000
  N   N133      1.0  0.58152  0.91869  0.35381  1.0000
  C   C173      1.0  0.56115  0.91413  0.34411  1.0000
  N   N134      1.0  0.54803  0.92995  0.32580  1.0000
  C   C174      1.0  0.55448  0.94983  0.31763  1.0000
  N   N135      1.0  0.57493  0.95364  0.32701  1.0000
  N   N136      1.0  0.55319  0.89457  0.34655  1.0000
  H   H82       1.0  0.53842  0.89343  0.33465  1.0000
  N   N137      1.0  0.54141  0.96585  0.30013  1.0000
  H   H83       1.0  0.54782  0.97917  0.28661  1.0000
  N   N138      1.0  0.60911  0.94255  0.35711  1.0000
  H   H84       1.0  0.61695  0.93267  0.39275  1.0000
  C   C175      1.0  0.93437  0.41139  0.31312  1.0000
  N   N139      1.0  0.91503  0.41935  0.31924  1.0000
  C   C176      1.0  0.91107  0.43970  0.30306  1.0000
  N   N140      1.0  0.92725  0.45215  0.28178  1.0000
  C   C177      1.0  0.94684  0.44487  0.27566  1.0000
  N   N141      1.0  0.95002  0.42451  0.29272  1.0000
  N   N142      1.0  0.89185  0.44828  0.30759  1.0000
  H   H85       1.0  0.89090  0.46287  0.29107  1.0000
  N   N143      1.0  0.96359  0.45726  0.26296  1.0000
  H   H86       1.0  0.97702  0.45082  0.27327  1.0000
  N   N144      1.0  0.93802  0.39118  0.33383  1.0000
  H   H87       1.0  0.92769  0.38421  0.37037  1.0000
  C   C178      1.0  0.06350  0.59315  0.34028  1.0000
  N   N145      1.0  0.08284  0.58570  0.35444  1.0000
  C   C179      1.0  0.08725  0.56520  0.34664  1.0000
  N   N146      1.0  0.07159  0.55217  0.32512  1.0000
  C   C180      1.0  0.05199  0.55887  0.31179  1.0000
  N   N147      1.0  0.04834  0.57946  0.31959  1.0000
  N   N148      1.0  0.10657  0.55702  0.35508  1.0000
  H   H88       1.0  0.10771  0.54214  0.34460  1.0000
  N   N149      1.0  0.03600  0.54592  0.29215  1.0000
  H   H89       1.0  0.02289  0.55252  0.27729  1.0000
  N   N150      1.0  0.05942  0.61366  0.35180  1.0000
  H   H90       1.0  0.06903  0.62143  0.38899  1.0000
  C   C181      1.0  0.31486  0.03461  0.40886  1.0000
  C   C182      1.0  0.33158  0.03680  0.46876  1.0000
  C   C183      1.0  0.35135  0.04155  0.43451  1.0000
  H   H91       1.0  0.36342  0.04304  0.47801  1.0000
  N   N151      1.0  0.32816  0.03467  0.56140  1.0000
  O   O91       1.0  0.33247  0.05106  0.60243  1.0000
  O   O92       1.0  0.33874  0.02017  0.59345  1.0000
  C   C184      1.0  0.29469  0.02966  0.43817  1.0000
  O   O93       1.0  0.29230  0.01169  0.48335  1.0000
  C   C185      1.0  0.68076  0.97405  0.39738  1.0000
  C   C186      1.0  0.66517  0.97175  0.46265  1.0000
  C   C187      1.0  0.64503  0.96621  0.43530  1.0000
  H   H92       1.0  0.63379  0.96466  0.48274  1.0000
  N   N152      1.0  0.67004  0.97445  0.55380  1.0000
  O   O94       1.0  0.66696  0.95815  0.59748  1.0000
  O   O95       1.0  0.65960  0.98879  0.58786  1.0000
  C   C188      1.0  0.70128  0.97943  0.41998  1.0000
  O   O96       1.0  0.70413  0.99700  0.46754  1.0000
  C   C189      1.0  0.96768  0.31994  0.40704  1.0000
  C   C190      1.0  0.96534  0.33688  0.46594  1.0000
  C   C191      1.0  0.96045  0.35656  0.43047  1.0000
  H   H93       1.0  0.95884  0.36880  0.47327  1.0000
  N   N153      1.0  0.96744  0.33376  0.55879  1.0000
  O   O97       1.0  0.95104  0.33806  0.59939  1.0000
  O   O98       1.0  0.98177  0.34459  0.59038  1.0000
  C   C192      1.0  0.97259  0.29980  0.43764  1.0000
  O   O99       1.0  0.99052  0.29752  0.48270  1.0000
  C   C193      1.0  0.02795  0.68543  0.39312  1.0000
  C   C194      1.0  0.03013  0.66960  0.45763  1.0000
  C   C195      1.0  0.03572  0.64949  0.42939  1.0000
  H   H94       1.0  0.03721  0.63808  0.47632  1.0000
  N   N154      1.0  0.02727  0.67422  0.54895  1.0000
  O   O100      1.0  0.04344  0.67104  0.59297  1.0000
  O   O101      1.0  0.01294  0.66362  0.58199  1.0000
  C   C196      1.0  0.02250  0.70593  0.41668  1.0000
  O   O102      1.0  0.00490  0.70859  0.46378  1.0000
  C   C197      1.0  0.14391  0.55764  0.36453  1.0000
  C   C198      1.0  0.15970  0.55995  0.42905  1.0000
  C   C199      1.0  0.17891  0.55008  0.41512  1.0000
  H   H95       1.0  0.19014  0.55159  0.46264  1.0000
  N   N155      1.0  0.15588  0.57145  0.50763  1.0000
  O   O103      1.0  0.15737  0.56031  0.57591  1.0000
  O   O104      1.0  0.16814  0.58642  0.51494  1.0000
  C   C200      1.0  0.12435  0.56739  0.37356  1.0000
  O   O105      1.0  0.12420  0.58781  0.39401  1.0000
  C   C201      1.0  0.85480  0.44915  0.33239  1.0000
  C   C202      1.0  0.84061  0.44827  0.40415  1.0000
  C   C203      1.0  0.82134  0.45835  0.39585  1.0000
  H   H96       1.0  0.81124  0.45776  0.44821  1.0000
  N   N156      1.0  0.84603  0.43794  0.48399  1.0000
  O   O106      1.0  0.84637  0.45015  0.54910  1.0000
  O   O107      1.0  0.83374  0.42343  0.50103  1.0000
  C   C204      1.0  0.87419  0.43887  0.33560  1.0000
  O   O108      1.0  0.87436  0.41911  0.36561  1.0000
  C   C205      1.0  0.55423  0.85709  0.34405  1.0000
  C   C206      1.0  0.55625  0.84032  0.40424  1.0000
  C   C207      1.0  0.54675  0.82121  0.38347  1.0000
  H   H97       1.0  0.54803  0.80927  0.42797  1.0000
  N   N157      1.0  0.56706  0.84306  0.48530  1.0000
  O   O109      1.0  0.55547  0.84045  0.55140  1.0000
  O   O110      1.0  0.58204  0.83080  0.49136  1.0000
  C   C208      1.0  0.56368  0.87659  0.35997  1.0000
  O   O111      1.0  0.58393  0.87661  0.38205  1.0000
  C   C209      1.0  0.44390  0.14731  0.31424  1.0000
  C   C210      1.0  0.44375  0.16246  0.38257  1.0000
  C   C211      1.0  0.45347  0.18172  0.36730  1.0000
  H   H98       1.0  0.45339  0.19252  0.41724  1.0000
  N   N158      1.0  0.43450  0.15798  0.46582  1.0000
  O   O112      1.0  0.44745  0.15855  0.52800  1.0000
  O   O113      1.0  0.42016  0.17042  0.48330  1.0000
  C   C212      1.0  0.43384  0.12790  0.32439  1.0000
  O   O114      1.0  0.41445  0.12805  0.35782  1.0000
  C   C213      1.0  0.19713  0.09439  0.33792  1.0000
  C   C214      1.0  0.18923  0.11132  0.38740  1.0000
  C   C215      1.0  0.17842  0.12715  0.34236  1.0000
  H   H99       1.0  0.17304  0.13951  0.37825  1.0000
  N   N159      1.0  0.19203  0.11215  0.48090  1.0000
  O   O115      1.0  0.17507  0.11202  0.52138  1.0000
  O   O116      1.0  0.20195  0.12799  0.50390  1.0000
  C   C216      1.0  0.21043  0.07961  0.37772  1.0000
  O   O117      1.0  0.22599  0.08719  0.42834  1.0000
  C   C217      1.0  0.79772  0.91215  0.32979  1.0000
  C   C218      1.0  0.80436  0.89489  0.38054  1.0000
  C   C219      1.0  0.81521  0.87877  0.33769  1.0000
  H   H100      1.0  0.81972  0.86620  0.37450  1.0000
  N   N160      1.0  0.80036  0.89404  0.47322  1.0000
  O   O118      1.0  0.81680  0.89357  0.51752  1.0000
  O   O119      1.0  0.78968  0.87851  0.49343  1.0000
  C   C220      1.0  0.78432  0.92726  0.36662  1.0000
  O   O120      1.0  0.76793  0.92005  0.41325  1.0000
  C   C221      1.0  0.90755  0.20259  0.33747  1.0000
  C   C222      1.0  0.89017  0.19514  0.38504  1.0000
  C   C223      1.0  0.87426  0.18495  0.33812  1.0000
  H   H101      1.0  0.86163  0.17985  0.37275  1.0000
  N   N161      1.0  0.88897  0.19775  0.47857  1.0000
  O   O121      1.0  0.88835  0.18064  0.51825  1.0000
  O   O122      1.0  0.87342  0.20817  0.50064  1.0000
  C   C224      1.0  0.92242  0.21550  0.37901  1.0000
  O   O123      1.0  0.91498  0.23113  0.42989  1.0000
  C   C225      1.0  0.08961  0.80276  0.33415  1.0000
  C   C226      1.0  0.10705  0.80885  0.38484  1.0000
  C   C227      1.0  0.12340  0.81931  0.34210  1.0000
  H   H102      1.0  0.13606  0.82342  0.37895  1.0000
  N   N162      1.0  0.10785  0.80467  0.47739  1.0000
  O   O124      1.0  0.10884  0.82108  0.52213  1.0000
  O   O125      1.0  0.12303  0.79346  0.49706  1.0000
  C   C228      1.0  0.07433  0.78949  0.37056  1.0000
  O   O126      1.0  0.08128  0.77296  0.41727  1.0000
  C   C229      1.0  0.31931  0.62723  0.39172  1.0000
  C   C230      1.0  0.31570  0.60931  0.44346  1.0000
  C   C231      1.0  0.30632  0.59195  0.40271  1.0000
  H   H103      1.0  0.30255  0.57959  0.44212  1.0000
  N   N163      1.0  0.32030  0.60954  0.53559  1.0000
  O   O127      1.0  0.30432  0.60720  0.58186  1.0000
  O   O128      1.0  0.33294  0.59555  0.55550  1.0000
  C   C232      1.0  0.32742  0.64563  0.42887  1.0000
  O   O129      1.0  0.34689  0.64468  0.46115  1.0000
  C   C233      1.0  0.67885  0.37839  0.39790  1.0000
  C   C234      1.0  0.68264  0.39605  0.45103  1.0000
  C   C235      1.0  0.69221  0.41348  0.41165  1.0000
  H   H104      1.0  0.69612  0.42563  0.45201  1.0000
  N   N164      1.0  0.67801  0.39548  0.54309  1.0000
  O   O130      1.0  0.69400  0.39746  0.58961  1.0000
  O   O131      1.0  0.66551  0.40952  0.56402  1.0000
  C   C236      1.0  0.67059  0.35990  0.43358  1.0000
  O   O132      1.0  0.65108  0.36081  0.46540  1.0000
  C   C237      1.0  0.62328  0.68286  0.41826  1.0000
  C   C238      1.0  0.60505  0.68786  0.46519  1.0000
  C   C239      1.0  0.58826  0.69644  0.41765  1.0000
  H   H105      1.0  0.57564  0.70125  0.45304  1.0000
  N   N165      1.0  0.60440  0.68518  0.55868  1.0000
  O   O133      1.0  0.60181  0.70212  0.59828  1.0000
  O   O134      1.0  0.59016  0.67305  0.58090  1.0000
  C   C240      1.0  0.64118  0.67552  0.46173  1.0000
  O   O135      1.0  0.64079  0.65521  0.48380  1.0000
  C   C241      1.0  0.37367  0.32256  0.41871  1.0000
  C   C242      1.0  0.39161  0.31770  0.46791  1.0000
  C   C243      1.0  0.40857  0.30867  0.42302  1.0000
  H   H106      1.0  0.42098  0.30400  0.46008  1.0000
  N   N166      1.0  0.39179  0.32093  0.56112  1.0000
  O   O136      1.0  0.39403  0.30421  0.60277  1.0000
  O   O137      1.0  0.40602  0.33306  0.58341  1.0000
  C   C244      1.0  0.35557  0.33025  0.45950  1.0000
  O   O138      1.0  0.35598  0.35051  0.48242  1.0000
  C   C245      1.0  0.21291  0.91378  0.33715  1.0000
  C   C246      1.0  0.21619  0.92243  0.42277  1.0000
  C   C247      1.0  0.21488  0.94414  0.43388  1.0000
  H   H107      1.0  0.21727  0.95024  0.49594  1.0000
  N   N167      1.0  0.22018  0.90935  0.49648  1.0000
  O   O139      1.0  0.20637  0.91089  0.55482  1.0000
  O   O140      1.0  0.23732  0.91332  0.53154  1.0000
  C   C248      1.0  0.21436  0.89213  0.32115  1.0000
  O   O141      1.0  0.23055  0.88194  0.35754  1.0000
  C   C249      1.0  0.78616  0.09290  0.33956  1.0000
  C   C250      1.0  0.78277  0.08426  0.42514  1.0000
  C   C251      1.0  0.78392  0.06254  0.43618  1.0000
  H   H108      1.0  0.78134  0.05641  0.49806  1.0000
  N   N168      1.0  0.77876  0.09735  0.49880  1.0000
  O   O142      1.0  0.79248  0.09571  0.55747  1.0000
  O   O143      1.0  0.76155  0.09347  0.53344  1.0000
  C   C252      1.0  0.78473  0.11456  0.32339  1.0000
  O   O144      1.0  0.76861  0.12482  0.35999  1.0000
  C   C253      1.0  0.08766  0.21802  0.33654  1.0000
  C   C254      1.0  0.07929  0.22119  0.42273  1.0000
  C   C255      1.0  0.05770  0.21979  0.43502  1.0000
  H   H109      1.0  0.05180  0.22205  0.49750  1.0000
  N   N169      1.0  0.09254  0.22510  0.49579  1.0000
  O   O145      1.0  0.09121  0.21116  0.55383  1.0000
  O   O146      1.0  0.08865  0.24224  0.53155  1.0000
  C   C256      1.0  0.10922  0.21929  0.31946  1.0000
  O   O147      1.0  0.11972  0.23528  0.35605  1.0000
  C   C257      1.0  0.90897  0.78961  0.33886  1.0000
  C   C258      1.0  0.91763  0.78630  0.42442  1.0000
  C   C259      1.0  0.93924  0.78781  0.43555  1.0000
  H   H110      1.0  0.94537  0.78530  0.49745  1.0000
  N   N170      1.0  0.90463  0.78204  0.49799  1.0000
  O   O148      1.0  0.90604  0.79580  0.55680  1.0000
  O   O149      1.0  0.90876  0.76481  0.53248  1.0000
  C   C260      1.0  0.88740  0.78805  0.32272  1.0000
  O   O150      1.0  0.87723  0.77181  0.35908  1.0000
  C   C261      1.0  0.28673  0.45361  0.29858  1.0000
  C   C262      1.0  0.28552  0.44422  0.38361  1.0000
  C   C263      1.0  0.28495  0.42241  0.38954  1.0000
  H   H111      1.0  0.28377  0.41580  0.45129  1.0000
  N   N171      1.0  0.28524  0.45669  0.46123  1.0000
  O   O151      1.0  0.26909  0.45389  0.50584  1.0000
  O   O152      1.0  0.30055  0.45308  0.51010  1.0000
  C   C264      1.0  0.28536  0.47538  0.28908  1.0000
  O   O153      1.0  0.29954  0.48501  0.23744  1.0000
  C   C265      1.0  0.71024  0.55203  0.30272  1.0000
  C   C266      1.0  0.71132  0.56161  0.38738  1.0000
  C   C267      1.0  0.71171  0.58343  0.39239  1.0000
  H   H112      1.0  0.71282  0.59018  0.45388  1.0000
  N   N172      1.0  0.71169  0.54931  0.46548  1.0000
  O   O154      1.0  0.72782  0.55236  0.51002  1.0000
  O   O155      1.0  0.69634  0.55290  0.51416  1.0000
  C   C268      1.0  0.71192  0.53027  0.29427  1.0000
  O   O156      1.0  0.69786  0.52034  0.24309  1.0000
  C   C269      1.0  0.45177  0.71507  0.31207  1.0000
  C   C270      1.0  0.44276  0.71134  0.39646  1.0000
  C   C271      1.0  0.42118  0.71346  0.40627  1.0000
  H   H113      1.0  0.41488  0.71122  0.46803  1.0000
  N   N173      1.0  0.45542  0.70649  0.47043  1.0000
  O   O157      1.0  0.45416  0.72006  0.53014  1.0000
  O   O158      1.0  0.45076  0.68923  0.50333  1.0000
  C   C272      1.0  0.47347  0.71498  0.30011  1.0000
  O   O159      1.0  0.48407  0.69833  0.33025  1.0000
  C   C273      1.0  0.54579  0.29080  0.31427  1.0000
  C   C274      1.0  0.55507  0.29436  0.39826  1.0000
  C   C275      1.0  0.57669  0.29235  0.40662  1.0000
  H   H114      1.0  0.58317  0.29443  0.46813  1.0000
  N   N174      1.0  0.54263  0.29891  0.47328  1.0000
  O   O160      1.0  0.54417  0.28519  0.53219  1.0000
  O   O161      1.0  0.54728  0.31610  0.50680  1.0000
  C   C276      1.0  0.52404  0.29068  0.30372  1.0000
  O   O162      1.0  0.51334  0.30705  0.33594  1.0000
  C   C277      1.0  0.24915  0.27786  0.36277  1.0000
  C   C278      1.0  0.23611  0.26561  0.41726  1.0000
  C   C279      1.0  0.22170  0.25214  0.37668  1.0000
  H   H115      1.0  0.21265  0.24309  0.41676  1.0000
  N   N175      1.0  0.23741  0.26725  0.51113  1.0000
  O   O163      1.0  0.22070  0.27340  0.54427  1.0000
  O   O164      1.0  0.24212  0.25024  0.54627  1.0000
  C   C280      1.0  0.26473  0.29081  0.39919  1.0000
  O   O165      1.0  0.27744  0.28227  0.46056  1.0000
  C   C281      1.0  0.74777  0.72760  0.36339  1.0000
  C   C282      1.0  0.76085  0.73987  0.41763  1.0000
  C   C283      1.0  0.77534  0.75321  0.37679  1.0000
  H   H116      1.0  0.78439  0.76230  0.41670  1.0000
  N   N176      1.0  0.75951  0.73838  0.51154  1.0000
  O   O166      1.0  0.77617  0.73219  0.54496  1.0000
  O   O167      1.0  0.75486  0.75545  0.54619  1.0000
  C   C284      1.0  0.73211  0.71479  0.40002  1.0000
  O   O168      1.0  0.71945  0.72345  0.46127  1.0000
  C   C285      1.0  0.72206  0.25243  0.36665  1.0000
  C   C286      1.0  0.73509  0.24012  0.42086  1.0000
  C   C287      1.0  0.74902  0.22620  0.38000  1.0000
  H   H117      1.0  0.75860  0.21765  0.41982  1.0000
  N   N177      1.0  0.73378  0.24165  0.51476  1.0000
  O   O169      1.0  0.72860  0.22472  0.54935  1.0000
  O   O170      1.0  0.75062  0.24731  0.54826  1.0000
  C   C288      1.0  0.70887  0.26780  0.40309  1.0000
  O   O171      1.0  0.71744  0.28133  0.46119  1.0000
  C   C289      1.0  0.27583  0.75334  0.36798  1.0000
  C   C290      1.0  0.26293  0.76576  0.42229  1.0000
  C   C291      1.0  0.24923  0.77993  0.38152  1.0000
  H   H118      1.0  0.23972  0.78856  0.42135  1.0000
  N   N178      1.0  0.26413  0.76407  0.51616  1.0000
  O   O172      1.0  0.26950  0.78088  0.55129  1.0000
  O   O173      1.0  0.24718  0.75860  0.54920  1.0000
  C   C292      1.0  0.28888  0.73784  0.40424  1.0000
  O   O174      1.0  0.28015  0.72416  0.46124  1.0000
  C   C293      1.0  0.50850  0.98335  0.29369  1.0000
  C   C294      1.0  0.49479  0.99067  0.36003  1.0000
  C   C295      1.0  0.48317  0.00872  0.34303  1.0000
  H   H119      1.0  0.47362  0.01413  0.39209  1.0000
  N   N179      1.0  0.49349  0.98044  0.44328  1.0000
  O   O175      1.0  0.49906  0.99202  0.50604  1.0000
  O   O176      1.0  0.47548  0.97419  0.45861  1.0000
  C   C296      1.0  0.52048  0.96531  0.30709  1.0000
  O   O177      1.0  0.51038  0.94816  0.33526  1.0000
  C   C297      1.0  0.01798  0.51318  0.28662  1.0000
  C   C298      1.0  0.01045  0.49970  0.35351  1.0000
  C   C299      1.0  0.99229  0.48828  0.33693  1.0000
  H   H120      1.0  0.98677  0.47882  0.38623  1.0000
  N   N180      1.0  0.02060  0.49839  0.43687  1.0000
  O   O178      1.0  0.00914  0.50432  0.49933  1.0000
  O   O179      1.0  0.02652  0.48026  0.45297  1.0000
  C   C300      1.0  0.03618  0.52492  0.29963  1.0000
  O   O180      1.0  0.05302  0.51457  0.32911  1.0000
