data_image0
_chemical_formula_structural       C2H2C2H2C2H2C2H2C4HNH2C4HNH2C2H2C2H2C4HNH2C4HNH2C2H2C2H2C2H2C2H2C4HNH2C4HNH2C4HNH2C4HNH2CNCNCNCNCNCNCNCNCNCNCNCNCNCNCNCNCNCNCNCNCNCNCNCNCNCNCNCNCNCNCNCNCNCNCNCNC4HNH2C4HNH2C4HNH2C4HNH2C2H2C2H2C4HNH2C4HNH2C2H2C2H2C4HNH2C4HNH2C4HNH2C4HNH2C2H2C2H2C2H2C2H2C2H2C2H2C2H2C2H2C4HNH2C4HNH2C2H2C2H2C4HNH2C4HNH2C2H2C2H2C2H2C2H2C4HNH2C4HNH2C4HNH2C4HNH2CNCNCNCNCNCNCNCNCNCNCNCNCNCNCNCNCNCNCNCNCNCNCNCNCNCNCNCNCNCNCNCNCNCNCNCNC4HNH2C4HNH2C4HNH2C4HNH2C2H2C2H2C4HNH2C4HNH2C2H2C2H2C4HNH2C4HNH2C4HNH2C4HNH2C2H2C2H2C2H2C2H2
_chemical_formula_sum              "C288 H180 N108"
_cell_length_a       42.5692
_cell_length_b       55.1893
_cell_length_c       14.8628
_cell_angle_alpha    90
_cell_angle_beta     90
_cell_angle_gamma    90

_space_group_name_H-M_alt    "P 1"
_space_group_IT_number       1

loop_
  _space_group_symop_operation_xyz
  'x, y, z'

loop_
  _atom_site_type_symbol
  _atom_site_label
  _atom_site_symmetry_multiplicity
  _atom_site_fract_x
  _atom_site_fract_y
  _atom_site_fract_z
  _atom_site_occupancy
  C   C1        1.0  0.23752  0.15467  0.35217  1.0000
  C   C2        1.0  0.27078  0.15415  0.34922  1.0000
  H   H1        1.0  0.22557  0.13965  0.33065  1.0000
  H   H2        1.0  0.28175  0.13882  0.32659  1.0000
  C   C3        1.0  0.27235  0.85884  0.35256  1.0000
  C   C4        1.0  0.23908  0.85928  0.34756  1.0000
  H   H3        1.0  0.28453  0.87257  0.32217  1.0000
  H   H4        1.0  0.22837  0.87332  0.31465  1.0000
  C   C5        1.0  0.48709  0.65497  0.34169  1.0000
  C   C6        1.0  0.02038  0.65444  0.34067  1.0000
  H   H5        1.0  0.47525  0.63973  0.32196  1.0000
  H   H6        1.0  0.03151  0.63884  0.32151  1.0000
  C   C7        1.0  0.02094  0.36000  0.35659  1.0000
  C   C8        1.0  0.48764  0.36016  0.35501  1.0000
  H   H7        1.0  0.03254  0.37356  0.32338  1.0000
  H   H8        1.0  0.47638  0.37385  0.32159  1.0000
  C   C9        1.0  0.05917  0.11010  0.33483  1.0000
  C   C10       1.0  0.09063  0.10195  0.33004  1.0000
  C   C11       1.0  0.11701  0.11808  0.32840  1.0000
  C   C12       1.0  0.11216  0.14388  0.33228  1.0000
  H   H9        1.0  0.09441  0.08363  0.32696  1.0000
  N   N1        1.0  0.14585  0.10762  0.32012  1.0000
  H   H10       1.0  0.14819  0.09007  0.31533  1.0000
  H   H11       1.0  0.16457  0.11692  0.30909  1.0000
  C   C13       1.0  0.44791  0.89992  0.30995  1.0000
  C   C14       1.0  0.45186  0.87567  0.28032  1.0000
  C   C15       1.0  0.42694  0.85885  0.27316  1.0000
  C   C16       1.0  0.39667  0.86524  0.30777  1.0000
  H   H12       1.0  0.47343  0.87028  0.25723  1.0000
  N   N2        1.0  0.43325  0.83780  0.22837  1.0000
  H   H13       1.0  0.45401  0.83462  0.20339  1.0000
  H   H14       1.0  0.41640  0.82820  0.20289  1.0000
  C   C17       1.0  0.39288  0.12060  0.33926  1.0000
  C   C18       1.0  0.41756  0.10337  0.33579  1.0000
  H   H15       1.0  0.37097  0.11523  0.31899  1.0000
  H   H16       1.0  0.41263  0.08616  0.31442  1.0000
  C   C19       1.0  0.11474  0.89007  0.33424  1.0000
  C   C20       1.0  0.08964  0.90688  0.32820  1.0000
  H   H17       1.0  0.13706  0.89637  0.32379  1.0000
  H   H18       1.0  0.09467  0.92468  0.31526  1.0000
  C   C21       1.0  0.30840  0.61020  0.33929  1.0000
  C   C22       1.0  0.33979  0.60210  0.33068  1.0000
  C   C23       1.0  0.36611  0.61826  0.32740  1.0000
  C   C24       1.0  0.36128  0.64403  0.33341  1.0000
  H   H19       1.0  0.34351  0.58382  0.32506  1.0000
  N   N3        1.0  0.39480  0.60784  0.31476  1.0000
  H   H20       1.0  0.39707  0.59030  0.30876  1.0000
  H   H21       1.0  0.41344  0.61715  0.30326  1.0000
  C   C25       1.0  0.19715  0.40028  0.30674  1.0000
  C   C26       1.0  0.20083  0.37610  0.27604  1.0000
  C   C27       1.0  0.17571  0.35947  0.26818  1.0000
  C   C28       1.0  0.14555  0.36593  0.30340  1.0000
  H   H22       1.0  0.22232  0.37068  0.25252  1.0000
  N   N4        1.0  0.18178  0.33855  0.22229  1.0000
  H   H23       1.0  0.20251  0.33533  0.19712  1.0000
  H   H24       1.0  0.16484  0.32918  0.19619  1.0000
  C   C29       1.0  0.14226  0.62054  0.34331  1.0000
  C   C30       1.0  0.16692  0.60329  0.33961  1.0000
  H   H25       1.0  0.12055  0.61539  0.32068  1.0000
  H   H26       1.0  0.16215  0.58630  0.31564  1.0000
  C   C31       1.0  0.36395  0.38988  0.33452  1.0000
  C   C32       1.0  0.33894  0.40674  0.32731  1.0000
  H   H27       1.0  0.38638  0.39625  0.32679  1.0000
  H   H28       1.0  0.34412  0.42460  0.31624  1.0000
  C   C33       1.0  0.15383  0.24801  0.30094  1.0000
  C   C34       1.0  0.14589  0.27275  0.30150  1.0000
  H   H29       1.0  0.17403  0.24301  0.26838  1.0000
  H   H30       1.0  0.16055  0.28468  0.26965  1.0000
  C   C35       1.0  0.38822  0.77198  0.27678  1.0000
  C   C36       1.0  0.39552  0.74725  0.26687  1.0000
  H   H31       1.0  0.39538  0.78369  0.22745  1.0000
  H   H32       1.0  0.40844  0.74182  0.21237  1.0000
  C   C37       1.0  0.39024  0.28073  0.33836  1.0000
  C   C38       1.0  0.36298  0.27335  0.29155  1.0000
  C   C39       1.0  0.35447  0.24860  0.28223  1.0000
  C   C40       1.0  0.37301  0.23046  0.32595  1.0000
  H   H33       1.0  0.34956  0.28627  0.26038  1.0000
  N   N5        1.0  0.32939  0.24337  0.22860  1.0000
  H   H34       1.0  0.31800  0.25612  0.19713  1.0000
  H   H35       1.0  0.32499  0.22694  0.20939  1.0000
  C   C41       1.0  0.12360  0.73021  0.33134  1.0000
  C   C42       1.0  0.10551  0.74723  0.28250  1.0000
  C   C43       1.0  0.11361  0.77214  0.27727  1.0000
  C   C44       1.0  0.14001  0.78072  0.32739  1.0000
  H   H36       1.0  0.08640  0.74117  0.24712  1.0000
  N   N6        1.0  0.09621  0.78640  0.22142  1.0000
  H   H37       1.0  0.07900  0.77970  0.18606  1.0000
  H   H38       1.0  0.10263  0.80270  0.20587  1.0000
  C   C45       1.0  0.00363  0.97859  0.32287  1.0000
  C   C46       1.0  0.02819  0.99161  0.28075  1.0000
  C   C47       1.0  0.02836  0.01734  0.27390  1.0000
  C   C48       1.0  0.00403  0.03110  0.31666  1.0000
  H   H39       1.0  0.04567  0.98198  0.24965  1.0000
  N   N7        1.0  0.05135  0.02751  0.22238  1.0000
  H   H40       1.0  0.06679  0.01750  0.19135  1.0000
  H   H41       1.0  0.05014  0.04421  0.20291  1.0000
  C   C49       1.0  0.25321  0.47869  0.32237  1.0000
  C   C50       1.0  0.27765  0.49182  0.28012  1.0000
  C   C51       1.0  0.27776  0.51756  0.27400  1.0000
  C   C52       1.0  0.25346  0.53121  0.31742  1.0000
  H   H42       1.0  0.29510  0.48226  0.24853  1.0000
  N   N8        1.0  0.30063  0.52788  0.22249  1.0000
  H   H43       1.0  0.31613  0.51797  0.19125  1.0000
  H   H44       1.0  0.29956  0.54467  0.20400  1.0000
  C   C53       1.0  0.18789  0.17796  0.36179  1.0000
  N   N9        1.0  0.16716  0.15921  0.35048  1.0000
  C   C54       1.0  0.13557  0.16257  0.33704  1.0000
  N   N10       1.0  0.12605  0.18626  0.33391  1.0000
  C   C55       1.0  0.14511  0.20572  0.34228  1.0000
  N   N11       1.0  0.17569  0.20062  0.35532  1.0000
  C   C56       1.0  0.32143  0.83512  0.37309  1.0000
  N   N12       1.0  0.34251  0.85266  0.34816  1.0000
  C   C57       1.0  0.37318  0.84751  0.32686  1.0000
  N   N13       1.0  0.38176  0.82371  0.33140  1.0000
  C   C58       1.0  0.36215  0.80546  0.35452  1.0000
  N   N14       1.0  0.33228  0.81189  0.37362  1.0000
  C   C59       1.0  0.32151  0.17730  0.35313  1.0000
  N   N15       1.0  0.34293  0.15876  0.35421  1.0000
  C   C60       1.0  0.37466  0.16322  0.35141  1.0000
  N   N16       1.0  0.38379  0.18675  0.33942  1.0000
  C   C61       1.0  0.36366  0.20565  0.33257  1.0000
  N   N17       1.0  0.33312  0.20008  0.34318  1.0000
  C   C62       1.0  0.18867  0.83569  0.35637  1.0000
  N   N18       1.0  0.16623  0.85350  0.35223  1.0000
  C   C63       1.0  0.13484  0.84796  0.34511  1.0000
  N   N19       1.0  0.12765  0.82406  0.33440  1.0000
  C   C64       1.0  0.14867  0.80573  0.33347  1.0000
  N   N20       1.0  0.17873  0.81239  0.34731  1.0000
  C   C65       1.0  0.43736  0.67833  0.34705  1.0000
  N   N21       1.0  0.41644  0.65950  0.34242  1.0000
  C   C66       1.0  0.38463  0.66278  0.33310  1.0000
  N   N22       1.0  0.37497  0.68643  0.32750  1.0000
  C   C67       1.0  0.39457  0.70566  0.32555  1.0000
  N   N23       1.0  0.42529  0.70091  0.33619  1.0000
  C   C68       1.0  0.07023  0.33643  0.37045  1.0000
  N   N24       1.0  0.09144  0.35384  0.34547  1.0000
  C   C69       1.0  0.12177  0.34833  0.32142  1.0000
  N   N25       1.0  0.12971  0.32435  0.32299  1.0000
  C   C70       1.0  0.10972  0.30612  0.34415  1.0000
  N   N26       1.0  0.08044  0.31313  0.36694  1.0000
  C   C71       1.0  0.07125  0.67748  0.34742  1.0000
  N   N27       1.0  0.09246  0.65885  0.35334  1.0000
  C   C72       1.0  0.12425  0.66313  0.35700  1.0000
  N   N28       1.0  0.13386  0.68664  0.34807  1.0000
  C   C73       1.0  0.11405  0.70557  0.33740  1.0000
  N   N29       1.0  0.08326  0.70018  0.33909  1.0000
  C   C74       1.0  0.43786  0.33610  0.36815  1.0000
  N   N30       1.0  0.41528  0.35365  0.35850  1.0000
  C   C75       1.0  0.38410  0.34784  0.34780  1.0000
  N   N31       1.0  0.37736  0.32382  0.33842  1.0000
  C   C76       1.0  0.39858  0.30569  0.34510  1.0000
  N   N32       1.0  0.42833  0.31262  0.36195  1.0000
  C   C77       1.0  0.03236  0.09465  0.33524  1.0000
  N   N33       1.0  0.03143  0.07006  0.32697  1.0000
  C   C78       1.0  0.00382  0.05719  0.32321  1.0000
  N   N34       1.0  0.47616  0.06998  0.33099  1.0000
  C   C79       1.0  0.47548  0.09452  0.34269  1.0000
  N   N35       1.0  0.00397  0.10528  0.34323  1.0000
  C   C80       1.0  0.47462  0.91535  0.31680  1.0000
  N   N36       1.0  0.47550  0.94003  0.32153  1.0000
  C   C81       1.0  0.50336  0.95262  0.32415  1.0000
  N   N37       1.0  0.03097  0.93967  0.32546  1.0000
  C   C82       1.0  0.03148  0.91494  0.32581  1.0000
  N   N38       1.0  0.50293  0.90434  0.32007  1.0000
  C   C83       1.0  0.28162  0.59472  0.33940  1.0000
  N   N39       1.0  0.28076  0.57019  0.32908  1.0000
  C   C84       1.0  0.25320  0.55728  0.32490  1.0000
  N   N40       1.0  0.22552  0.56997  0.33397  1.0000
  C   C85       1.0  0.22479  0.59444  0.34766  1.0000
  N   N41       1.0  0.25323  0.60527  0.34878  1.0000
  C   C86       1.0  0.22397  0.41557  0.31390  1.0000
  N   N42       1.0  0.22499  0.44023  0.31972  1.0000
  C   C87       1.0  0.25291  0.45272  0.32278  1.0000
  N   N43       1.0  0.28046  0.43968  0.32351  1.0000
  C   C88       1.0  0.28083  0.41495  0.32260  1.0000
  N   N44       1.0  0.25222  0.40446  0.31643  1.0000
  C   C89       1.0  0.28849  0.17542  0.36462  1.0000
  C   C90       1.0  0.27168  0.19597  0.39550  1.0000
  C   C91       1.0  0.23887  0.19614  0.40804  1.0000
  C   C92       1.0  0.22084  0.17600  0.37620  1.0000
  H   H45       1.0  0.28388  0.21094  0.41648  1.0000
  N   N45       1.0  0.22673  0.21527  0.45501  1.0000
  H   H46       1.0  0.24023  0.22807  0.47829  1.0000
  H   H47       1.0  0.20639  0.21389  0.48392  1.0000
  C   C93       1.0  0.22128  0.83871  0.37247  1.0000
  C   C94       1.0  0.23762  0.81983  0.41687  1.0000
  C   C95       1.0  0.27029  0.82030  0.43147  1.0000
  C   C96       1.0  0.28872  0.83861  0.38868  1.0000
  H   H48       1.0  0.22512  0.80591  0.44527  1.0000
  N   N46       1.0  0.28230  0.80382  0.49040  1.0000
  H   H49       1.0  0.26877  0.79225  0.52130  1.0000
  H   H50       1.0  0.30235  0.80694  0.51878  1.0000
  C   C97       1.0  0.03803  0.67582  0.35447  1.0000
  C   C98       1.0  0.02097  0.69668  0.38125  1.0000
  C   C99       1.0  0.48810  0.69697  0.39192  1.0000
  C   C100      1.0  0.47029  0.67653  0.36181  1.0000
  H   H51       1.0  0.03295  0.71183  0.40139  1.0000
  N   N47       1.0  0.47569  0.71642  0.43646  1.0000
  H   H52       1.0  0.48905  0.72942  0.45896  1.0000
  H   H53       1.0  0.45522  0.71524  0.46473  1.0000
  C   C101      1.0  0.47043  0.33964  0.38361  1.0000
  C   C102      1.0  0.48753  0.32118  0.42818  1.0000
  C   C103      1.0  0.02045  0.32167  0.43770  1.0000
  C   C104      1.0  0.03793  0.33993  0.39138  1.0000
  H   H54       1.0  0.47556  0.30726  0.45832  1.0000
  N   N48       1.0  0.03367  0.30493  0.49371  1.0000
  H   H55       1.0  0.02079  0.29330  0.52649  1.0000
  H   H56       1.0  0.05499  0.30694  0.51560  1.0000
  C   C105      1.0  0.08030  0.15159  0.33495  1.0000
  C   C106      1.0  0.05502  0.13552  0.33698  1.0000
  H   H57       1.0  0.07429  0.16953  0.33782  1.0000
  H   H58       1.0  0.03313  0.14315  0.33936  1.0000
  C   C107      1.0  0.39199  0.88997  0.33128  1.0000
  C   C108      1.0  0.41681  0.90708  0.33006  1.0000
  H   H59       1.0  0.37067  0.89559  0.35539  1.0000
  H   H60       1.0  0.41252  0.92432  0.35221  1.0000
  C   C109      1.0  0.44905  0.11017  0.35266  1.0000
  C   C110      1.0  0.45375  0.13436  0.38221  1.0000
  C   C111      1.0  0.42931  0.15144  0.39196  1.0000
  C   C112      1.0  0.39842  0.14526  0.36186  1.0000
  H   H61       1.0  0.47561  0.13958  0.40330  1.0000
  N   N49       1.0  0.43654  0.17234  0.43681  1.0000
  H   H62       1.0  0.45765  0.17527  0.45966  1.0000
  H   H63       1.0  0.42009  0.18178  0.46510  1.0000
  C   C113      1.0  0.05798  0.89926  0.33344  1.0000
  C   C114      1.0  0.05318  0.87429  0.35180  1.0000
  C   C115      1.0  0.07781  0.85757  0.36613  1.0000
  C   C116      1.0  0.10957  0.86494  0.34937  1.0000
  H   H64       1.0  0.03081  0.86818  0.36290  1.0000
  N   N50       1.0  0.06927  0.83582  0.40291  1.0000
  H   H65       1.0  0.04733  0.83205  0.41551  1.0000
  H   H66       1.0  0.08426  0.82616  0.43625  1.0000
  C   C117      1.0  0.32953  0.65168  0.34204  1.0000
  C   C118      1.0  0.30430  0.63557  0.34551  1.0000
  H   H67       1.0  0.32362  0.66958  0.34806  1.0000
  H   H68       1.0  0.28247  0.64314  0.35172  1.0000
  C   C119      1.0  0.14120  0.39059  0.32846  1.0000
  C   C120      1.0  0.16618  0.40755  0.32770  1.0000
  H   H69       1.0  0.11998  0.39628  0.35300  1.0000
  H   H70       1.0  0.16208  0.42474  0.35073  1.0000
  C   C121      1.0  0.19829  0.60993  0.35888  1.0000
  C   C122      1.0  0.20282  0.63383  0.39174  1.0000
  C   C123      1.0  0.17835  0.65087  0.40185  1.0000
  C   C124      1.0  0.14771  0.64500  0.36891  1.0000
  H   H71       1.0  0.22456  0.63882  0.41461  1.0000
  N   N51       1.0  0.18532  0.67146  0.44889  1.0000
  H   H72       1.0  0.20625  0.67419  0.47338  1.0000
  H   H73       1.0  0.16871  0.68091  0.47640  1.0000
  C   C125      1.0  0.30723  0.39914  0.32994  1.0000
  C   C126      1.0  0.30226  0.37407  0.34586  1.0000
  C   C127      1.0  0.32671  0.35728  0.36165  1.0000
  C   C128      1.0  0.35865  0.36471  0.34837  1.0000
  H   H74       1.0  0.27978  0.36791  0.35454  1.0000
  N   N52       1.0  0.31765  0.33546  0.39684  1.0000
  H   H75       1.0  0.29554  0.33168  0.40681  1.0000
  H   H76       1.0  0.33208  0.32581  0.43210  1.0000
  C   C129      1.0  0.11813  0.28100  0.34345  1.0000
  C   C130      1.0  0.09892  0.26330  0.38526  1.0000
  C   C131      1.0  0.10689  0.23832  0.38816  1.0000
  C   C132      1.0  0.13468  0.23033  0.34328  1.0000
  H   H77       1.0  0.07906  0.26883  0.41818  1.0000
  N   N53       1.0  0.08815  0.22346  0.43805  1.0000
  H   H78       1.0  0.06999  0.22974  0.47043  1.0000
  H   H79       1.0  0.09401  0.20692  0.45155  1.0000
  C   C133      1.0  0.38448  0.73004  0.32950  1.0000
  C   C134      1.0  0.36762  0.73842  0.40508  1.0000
  C   C135      1.0  0.36182  0.76346  0.41919  1.0000
  C   C136      1.0  0.37112  0.78054  0.35208  1.0000
  H   H80       1.0  0.36154  0.72623  0.45416  1.0000
  N   N54       1.0  0.34955  0.77034  0.49976  1.0000
  H   H81       1.0  0.34489  0.75847  0.54639  1.0000
  H   H82       1.0  0.35050  0.78711  0.51892  1.0000
  C   C137      1.0  0.40054  0.23788  0.37168  1.0000
  C   C138      1.0  0.40917  0.26243  0.37689  1.0000
  H   H83       1.0  0.41427  0.22552  0.40469  1.0000
  H   H84       1.0  0.42894  0.26685  0.41251  1.0000
  C   C139      1.0  0.15820  0.76350  0.37564  1.0000
  C   C140      1.0  0.15048  0.73874  0.37663  1.0000
  H   H85       1.0  0.17712  0.76887  0.41324  1.0000
  H   H86       1.0  0.16387  0.72719  0.41452  1.0000
  C   C141      1.0  0.97942  0.01790  0.35859  1.0000
  C   C142      1.0  0.97891  0.99237  0.36030  1.0000
  H   H87       1.0  0.96150  0.02682  0.39048  1.0000
  H   H88       1.0  0.96067  0.98390  0.39232  1.0000
  C   C143      1.0  0.22898  0.51790  0.35946  1.0000
  C   C144      1.0  0.22855  0.49236  0.36060  1.0000
  H   H89       1.0  0.21112  0.52672  0.39196  1.0000
  H   H90       1.0  0.21040  0.48381  0.39272  1.0000
  C   C145      1.0  0.73752  0.15467  0.35217  1.0000
  C   C146      1.0  0.77078  0.15415  0.34922  1.0000
  H   H91       1.0  0.72557  0.13965  0.33065  1.0000
  H   H92       1.0  0.78175  0.13882  0.32659  1.0000
  C   C147      1.0  0.77235  0.85884  0.35256  1.0000
  C   C148      1.0  0.73908  0.85928  0.34756  1.0000
  H   H93       1.0  0.78453  0.87257  0.32217  1.0000
  H   H94       1.0  0.72837  0.87332  0.31465  1.0000
  C   C149      1.0  0.98709  0.65497  0.34169  1.0000
  C   C150      1.0  0.52037  0.65444  0.34067  1.0000
  H   H95       1.0  0.97525  0.63973  0.32196  1.0000
  H   H96       1.0  0.53151  0.63884  0.32151  1.0000
  C   C151      1.0  0.52094  0.36000  0.35659  1.0000
  C   C152      1.0  0.98764  0.36016  0.35501  1.0000
  H   H97       1.0  0.53254  0.37356  0.32338  1.0000
  H   H98       1.0  0.97638  0.37385  0.32159  1.0000
  C   C153      1.0  0.55917  0.11010  0.33483  1.0000
  C   C154      1.0  0.59063  0.10195  0.33004  1.0000
  C   C155      1.0  0.61700  0.11808  0.32840  1.0000
  C   C156      1.0  0.61216  0.14388  0.33228  1.0000
  H   H99       1.0  0.59441  0.08363  0.32696  1.0000
  N   N55       1.0  0.64585  0.10762  0.32012  1.0000
  H   H100      1.0  0.64819  0.09006  0.31533  1.0000
  H   H101      1.0  0.66457  0.11692  0.30909  1.0000
  C   C157      1.0  0.94790  0.89992  0.30995  1.0000
  C   C158      1.0  0.95186  0.87567  0.28032  1.0000
  C   C159      1.0  0.92693  0.85885  0.27316  1.0000
  C   C160      1.0  0.89667  0.86524  0.30777  1.0000
  H   H102      1.0  0.97343  0.87028  0.25723  1.0000
  N   N56       1.0  0.93325  0.83780  0.22837  1.0000
  H   H103      1.0  0.95401  0.83462  0.20339  1.0000
  H   H104      1.0  0.91640  0.82820  0.20289  1.0000
  C   C161      1.0  0.89287  0.12060  0.33926  1.0000
  C   C162      1.0  0.91756  0.10337  0.33579  1.0000
  H   H105      1.0  0.87097  0.11523  0.31899  1.0000
  H   H106      1.0  0.91263  0.08616  0.31442  1.0000
  C   C163      1.0  0.61474  0.89007  0.33424  1.0000
  C   C164      1.0  0.58964  0.90688  0.32820  1.0000
  H   H107      1.0  0.63706  0.89637  0.32379  1.0000
  H   H108      1.0  0.59467  0.92468  0.31526  1.0000
  C   C165      1.0  0.80840  0.61020  0.33929  1.0000
  C   C166      1.0  0.83979  0.60210  0.33068  1.0000
  C   C167      1.0  0.86611  0.61826  0.32740  1.0000
  C   C168      1.0  0.86128  0.64403  0.33341  1.0000
  H   H109      1.0  0.84351  0.58382  0.32506  1.0000
  N   N57       1.0  0.89480  0.60784  0.31476  1.0000
  H   H110      1.0  0.89707  0.59030  0.30876  1.0000
  H   H111      1.0  0.91344  0.61715  0.30326  1.0000
  C   C169      1.0  0.69715  0.40028  0.30674  1.0000
  C   C170      1.0  0.70083  0.37610  0.27604  1.0000
  C   C171      1.0  0.67571  0.35947  0.26818  1.0000
  C   C172      1.0  0.64555  0.36593  0.30340  1.0000
  H   H112      1.0  0.72232  0.37068  0.25252  1.0000
  N   N58       1.0  0.68178  0.33855  0.22229  1.0000
  H   H113      1.0  0.70251  0.33533  0.19712  1.0000
  H   H114      1.0  0.66484  0.32918  0.19619  1.0000
  C   C173      1.0  0.64226  0.62054  0.34331  1.0000
  C   C174      1.0  0.66692  0.60329  0.33961  1.0000
  H   H115      1.0  0.62055  0.61539  0.32068  1.0000
  H   H116      1.0  0.66215  0.58630  0.31564  1.0000
  C   C175      1.0  0.86395  0.38988  0.33452  1.0000
  C   C176      1.0  0.83894  0.40674  0.32731  1.0000
  H   H117      1.0  0.88638  0.39625  0.32679  1.0000
  H   H118      1.0  0.84412  0.42460  0.31624  1.0000
  C   C177      1.0  0.65382  0.24801  0.30094  1.0000
  C   C178      1.0  0.64589  0.27275  0.30150  1.0000
  H   H119      1.0  0.67403  0.24301  0.26838  1.0000
  H   H120      1.0  0.66055  0.28468  0.26965  1.0000
  C   C179      1.0  0.88822  0.77198  0.27678  1.0000
  C   C180      1.0  0.89552  0.74725  0.26687  1.0000
  H   H121      1.0  0.89538  0.78369  0.22745  1.0000
  H   H122      1.0  0.90844  0.74182  0.21237  1.0000
  C   C181      1.0  0.89024  0.28073  0.33836  1.0000
  C   C182      1.0  0.86298  0.27335  0.29155  1.0000
  C   C183      1.0  0.85447  0.24860  0.28223  1.0000
  C   C184      1.0  0.87301  0.23046  0.32595  1.0000
  H   H123      1.0  0.84956  0.28627  0.26038  1.0000
  N   N59       1.0  0.82939  0.24337  0.22860  1.0000
  H   H124      1.0  0.81800  0.25612  0.19713  1.0000
  H   H125      1.0  0.82498  0.22694  0.20939  1.0000
  C   C185      1.0  0.62360  0.73021  0.33134  1.0000
  C   C186      1.0  0.60551  0.74723  0.28250  1.0000
  C   C187      1.0  0.61362  0.77214  0.27727  1.0000
  C   C188      1.0  0.64001  0.78072  0.32739  1.0000
  H   H126      1.0  0.58640  0.74117  0.24712  1.0000
  N   N60       1.0  0.59621  0.78640  0.22142  1.0000
  H   H127      1.0  0.57900  0.77970  0.18606  1.0000
  H   H128      1.0  0.60263  0.80270  0.20587  1.0000
  C   C189      1.0  0.50362  0.97859  0.32287  1.0000
  C   C190      1.0  0.52819  0.99161  0.28075  1.0000
  C   C191      1.0  0.52836  0.01734  0.27390  1.0000
  C   C192      1.0  0.50403  0.03110  0.31666  1.0000
  H   H129      1.0  0.54567  0.98198  0.24965  1.0000
  N   N61       1.0  0.55135  0.02751  0.22238  1.0000
  H   H130      1.0  0.56679  0.01750  0.19135  1.0000
  H   H131      1.0  0.55014  0.04421  0.20291  1.0000
  C   C193      1.0  0.75321  0.47869  0.32237  1.0000
  C   C194      1.0  0.77765  0.49182  0.28012  1.0000
  C   C195      1.0  0.77776  0.51756  0.27400  1.0000
  C   C196      1.0  0.75346  0.53121  0.31742  1.0000
  H   H132      1.0  0.79510  0.48226  0.24853  1.0000
  N   N62       1.0  0.80063  0.52788  0.22249  1.0000
  H   H133      1.0  0.81613  0.51797  0.19125  1.0000
  H   H134      1.0  0.79956  0.54467  0.20400  1.0000
  C   C197      1.0  0.68789  0.17796  0.36179  1.0000
  N   N63       1.0  0.66716  0.15921  0.35048  1.0000
  C   C198      1.0  0.63557  0.16257  0.33704  1.0000
  N   N64       1.0  0.62605  0.18626  0.33391  1.0000
  C   C199      1.0  0.64511  0.20572  0.34228  1.0000
  N   N65       1.0  0.67569  0.20062  0.35532  1.0000
  C   C200      1.0  0.82143  0.83512  0.37309  1.0000
  N   N66       1.0  0.84251  0.85266  0.34816  1.0000
  C   C201      1.0  0.87318  0.84751  0.32686  1.0000
  N   N67       1.0  0.88176  0.82371  0.33140  1.0000
  C   C202      1.0  0.86215  0.80546  0.35452  1.0000
  N   N68       1.0  0.83228  0.81189  0.37362  1.0000
  C   C203      1.0  0.82151  0.17730  0.35313  1.0000
  N   N69       1.0  0.84292  0.15876  0.35421  1.0000
  C   C204      1.0  0.87466  0.16322  0.35141  1.0000
  N   N70       1.0  0.88379  0.18675  0.33942  1.0000
  C   C205      1.0  0.86366  0.20565  0.33257  1.0000
  N   N71       1.0  0.83311  0.20008  0.34318  1.0000
  C   C206      1.0  0.68866  0.83569  0.35637  1.0000
  N   N72       1.0  0.66623  0.85350  0.35223  1.0000
  C   C207      1.0  0.63484  0.84796  0.34511  1.0000
  N   N73       1.0  0.62765  0.82406  0.33440  1.0000
  C   C208      1.0  0.64867  0.80573  0.33347  1.0000
  N   N74       1.0  0.67873  0.81239  0.34731  1.0000
  C   C209      1.0  0.93736  0.67833  0.34705  1.0000
  N   N75       1.0  0.91644  0.65950  0.34242  1.0000
  C   C210      1.0  0.88463  0.66278  0.33310  1.0000
  N   N76       1.0  0.87497  0.68643  0.32750  1.0000
  C   C211      1.0  0.89457  0.70566  0.32555  1.0000
  N   N77       1.0  0.92529  0.70091  0.33619  1.0000
  C   C212      1.0  0.57022  0.33643  0.37045  1.0000
  N   N78       1.0  0.59144  0.35384  0.34547  1.0000
  C   C213      1.0  0.62177  0.34833  0.32142  1.0000
  N   N79       1.0  0.62971  0.32435  0.32299  1.0000
  C   C214      1.0  0.60972  0.30612  0.34415  1.0000
  N   N80       1.0  0.58044  0.31313  0.36694  1.0000
  C   C215      1.0  0.57125  0.67748  0.34742  1.0000
  N   N81       1.0  0.59246  0.65885  0.35334  1.0000
  C   C216      1.0  0.62425  0.66313  0.35700  1.0000
  N   N82       1.0  0.63386  0.68664  0.34807  1.0000
  C   C217      1.0  0.61405  0.70557  0.33740  1.0000
  N   N83       1.0  0.58326  0.70018  0.33909  1.0000
  C   C218      1.0  0.93786  0.33610  0.36815  1.0000
  N   N84       1.0  0.91528  0.35365  0.35850  1.0000
  C   C219      1.0  0.88409  0.34784  0.34780  1.0000
  N   N85       1.0  0.87736  0.32382  0.33842  1.0000
  C   C220      1.0  0.89857  0.30569  0.34510  1.0000
  N   N86       1.0  0.92833  0.31262  0.36195  1.0000
  C   C221      1.0  0.53236  0.09465  0.33524  1.0000
  N   N87       1.0  0.53143  0.07006  0.32697  1.0000
  C   C222      1.0  0.50382  0.05719  0.32321  1.0000
  N   N88       1.0  0.97616  0.06998  0.33099  1.0000
  C   C223      1.0  0.97548  0.09452  0.34269  1.0000
  N   N89       1.0  0.50397  0.10528  0.34323  1.0000
  C   C224      1.0  0.97462  0.91535  0.31680  1.0000
  N   N90       1.0  0.97550  0.94003  0.32153  1.0000
  C   C225      1.0  0.00336  0.95262  0.32415  1.0000
  N   N91       1.0  0.53097  0.93967  0.32546  1.0000
  C   C226      1.0  0.53148  0.91494  0.32581  1.0000
  N   N92       1.0  0.00293  0.90434  0.32007  1.0000
  C   C227      1.0  0.78162  0.59472  0.33940  1.0000
  N   N93       1.0  0.78076  0.57019  0.32908  1.0000
  C   C228      1.0  0.75320  0.55728  0.32490  1.0000
  N   N94       1.0  0.72552  0.56997  0.33397  1.0000
  C   C229      1.0  0.72479  0.59444  0.34766  1.0000
  N   N95       1.0  0.75323  0.60527  0.34878  1.0000
  C   C230      1.0  0.72397  0.41557  0.31390  1.0000
  N   N96       1.0  0.72499  0.44023  0.31972  1.0000
  C   C231      1.0  0.75291  0.45272  0.32278  1.0000
  N   N97       1.0  0.78046  0.43968  0.32351  1.0000
  C   C232      1.0  0.78083  0.41495  0.32260  1.0000
  N   N98       1.0  0.75222  0.40446  0.31643  1.0000
  C   C233      1.0  0.78848  0.17542  0.36462  1.0000
  C   C234      1.0  0.77168  0.19597  0.39550  1.0000
  C   C235      1.0  0.73887  0.19614  0.40804  1.0000
  C   C236      1.0  0.72084  0.17600  0.37620  1.0000
  H   H135      1.0  0.78388  0.21094  0.41648  1.0000
  N   N99       1.0  0.72673  0.21527  0.45501  1.0000
  H   H136      1.0  0.74023  0.22807  0.47829  1.0000
  H   H137      1.0  0.70638  0.21389  0.48392  1.0000
  C   C237      1.0  0.72128  0.83871  0.37247  1.0000
  C   C238      1.0  0.73762  0.81983  0.41687  1.0000
  C   C239      1.0  0.77029  0.82030  0.43147  1.0000
  C   C240      1.0  0.78872  0.83861  0.38868  1.0000
  H   H138      1.0  0.72512  0.80591  0.44527  1.0000
  N   N100      1.0  0.78231  0.80382  0.49040  1.0000
  H   H139      1.0  0.76877  0.79225  0.52130  1.0000
  H   H140      1.0  0.80236  0.80694  0.51878  1.0000
  C   C241      1.0  0.53803  0.67582  0.35447  1.0000
  C   C242      1.0  0.52097  0.69668  0.38125  1.0000
  C   C243      1.0  0.98810  0.69697  0.39192  1.0000
  C   C244      1.0  0.97029  0.67653  0.36181  1.0000
  H   H141      1.0  0.53295  0.71183  0.40139  1.0000
  N   N101      1.0  0.97569  0.71642  0.43646  1.0000
  H   H142      1.0  0.98905  0.72942  0.45896  1.0000
  H   H143      1.0  0.95522  0.71524  0.46473  1.0000
  C   C245      1.0  0.97043  0.33964  0.38361  1.0000
  C   C246      1.0  0.98753  0.32118  0.42818  1.0000
  C   C247      1.0  0.52045  0.32167  0.43770  1.0000
  C   C248      1.0  0.53793  0.33993  0.39138  1.0000
  H   H144      1.0  0.97556  0.30726  0.45832  1.0000
  N   N102      1.0  0.53367  0.30493  0.49371  1.0000
  H   H145      1.0  0.52079  0.29330  0.52649  1.0000
  H   H146      1.0  0.55498  0.30694  0.51560  1.0000
  C   C249      1.0  0.58030  0.15159  0.33495  1.0000
  C   C250      1.0  0.55502  0.13552  0.33698  1.0000
  H   H147      1.0  0.57429  0.16953  0.33782  1.0000
  H   H148      1.0  0.53313  0.14315  0.33936  1.0000
  C   C251      1.0  0.89199  0.88997  0.33128  1.0000
  C   C252      1.0  0.91681  0.90708  0.33006  1.0000
  H   H149      1.0  0.87067  0.89559  0.35539  1.0000
  H   H150      1.0  0.91251  0.92432  0.35221  1.0000
  C   C253      1.0  0.94905  0.11017  0.35266  1.0000
  C   C254      1.0  0.95375  0.13436  0.38221  1.0000
  C   C255      1.0  0.92931  0.15144  0.39196  1.0000
  C   C256      1.0  0.89843  0.14526  0.36186  1.0000
  H   H151      1.0  0.97561  0.13958  0.40330  1.0000
  N   N103      1.0  0.93654  0.17234  0.43681  1.0000
  H   H152      1.0  0.95765  0.17527  0.45966  1.0000
  H   H153      1.0  0.92009  0.18178  0.46510  1.0000
  C   C257      1.0  0.55798  0.89926  0.33344  1.0000
  C   C258      1.0  0.55318  0.87429  0.35180  1.0000
  C   C259      1.0  0.57781  0.85757  0.36613  1.0000
  C   C260      1.0  0.60957  0.86494  0.34937  1.0000
  H   H154      1.0  0.53081  0.86818  0.36290  1.0000
  N   N104      1.0  0.56927  0.83582  0.40291  1.0000
  H   H155      1.0  0.54733  0.83205  0.41551  1.0000
  H   H156      1.0  0.58427  0.82616  0.43625  1.0000
  C   C261      1.0  0.82952  0.65168  0.34204  1.0000
  C   C262      1.0  0.80430  0.63557  0.34551  1.0000
  H   H157      1.0  0.82362  0.66958  0.34806  1.0000
  H   H158      1.0  0.78246  0.64314  0.35172  1.0000
  C   C263      1.0  0.64120  0.39059  0.32846  1.0000
  C   C264      1.0  0.66618  0.40755  0.32770  1.0000
  H   H159      1.0  0.61998  0.39628  0.35300  1.0000
  H   H160      1.0  0.66208  0.42474  0.35073  1.0000
  C   C265      1.0  0.69829  0.60993  0.35888  1.0000
  C   C266      1.0  0.70282  0.63383  0.39174  1.0000
  C   C267      1.0  0.67835  0.65087  0.40185  1.0000
  C   C268      1.0  0.64771  0.64500  0.36891  1.0000
  H   H161      1.0  0.72456  0.63882  0.41461  1.0000
  N   N105      1.0  0.68532  0.67146  0.44889  1.0000
  H   H162      1.0  0.70625  0.67419  0.47338  1.0000
  H   H163      1.0  0.66871  0.68091  0.47640  1.0000
  C   C269      1.0  0.80723  0.39914  0.32994  1.0000
  C   C270      1.0  0.80225  0.37407  0.34586  1.0000
  C   C271      1.0  0.82671  0.35728  0.36165  1.0000
  C   C272      1.0  0.85865  0.36471  0.34837  1.0000
  H   H164      1.0  0.77978  0.36791  0.35454  1.0000
  N   N106      1.0  0.81764  0.33546  0.39684  1.0000
  H   H165      1.0  0.79554  0.33168  0.40681  1.0000
  H   H166      1.0  0.83208  0.32581  0.43210  1.0000
  C   C273      1.0  0.61813  0.28100  0.34345  1.0000
  C   C274      1.0  0.59892  0.26330  0.38526  1.0000
  C   C275      1.0  0.60689  0.23832  0.38816  1.0000
  C   C276      1.0  0.63468  0.23033  0.34328  1.0000
  H   H167      1.0  0.57906  0.26883  0.41818  1.0000
  N   N107      1.0  0.58815  0.22346  0.43805  1.0000
  H   H168      1.0  0.56999  0.22974  0.47043  1.0000
  H   H169      1.0  0.59400  0.20692  0.45155  1.0000
  C   C277      1.0  0.88448  0.73004  0.32950  1.0000
  C   C278      1.0  0.86762  0.73842  0.40508  1.0000
  C   C279      1.0  0.86182  0.76346  0.41919  1.0000
  C   C280      1.0  0.87112  0.78054  0.35208  1.0000
  H   H170      1.0  0.86154  0.72623  0.45416  1.0000
  N   N108      1.0  0.84955  0.77034  0.49976  1.0000
  H   H171      1.0  0.84489  0.75847  0.54639  1.0000
  H   H172      1.0  0.85050  0.78711  0.51892  1.0000
  C   C281      1.0  0.90054  0.23788  0.37168  1.0000
  C   C282      1.0  0.90917  0.26243  0.37689  1.0000
  H   H173      1.0  0.91427  0.22552  0.40469  1.0000
  H   H174      1.0  0.92894  0.26685  0.41251  1.0000
  C   C283      1.0  0.65820  0.76350  0.37564  1.0000
  C   C284      1.0  0.65048  0.73874  0.37663  1.0000
  H   H175      1.0  0.67712  0.76887  0.41324  1.0000
  H   H176      1.0  0.66387  0.72719  0.41452  1.0000
  C   C285      1.0  0.47942  0.01790  0.35859  1.0000
  C   C286      1.0  0.47891  0.99237  0.36030  1.0000
  H   H177      1.0  0.46150  0.02682  0.39048  1.0000
  H   H178      1.0  0.46067  0.98390  0.39232  1.0000
  C   C287      1.0  0.72898  0.51790  0.35946  1.0000
  C   C288      1.0  0.72855  0.49236  0.36060  1.0000
  H   H179      1.0  0.71112  0.52672  0.39196  1.0000
  H   H180      1.0  0.71040  0.48381  0.39272  1.0000
