data_image0
_chemical_formula_structural       C4H2C4HNH2C4H2C4HNH2C4H2C4HNH2C4H3NH2C4H3NH2C4H3NH2C4H2C4HNH2C4H2C4HNH2C4H2C4HNH2C4H2C4HNH2C4H2C4HNH2C4H2C4HNH2C4H3NH2C4H3NH2C4H3NH2C4H3NH2C4H3NH2C4H3NH2C4H2C4HNH2C4H2C4HNH2C4H2C4HNH2C4H2C4HNH2C4H2C4HNH2C4H2C4HNH2C6H3C6H3C6H3C6H3C6H3C6H3C6H3C6H3C6H3C6H3C6H3C6H3C6H3C6H3C6H3C6H3C4H3NH2C4H3NH2C4H3NH2C4H2C4HNH2C4H2C4HNH2C4H2C4HNH2C4H3NH2C4H3NH2C4H3NH2C4H3NH2C4H3NH2C4H3NH2C4H2C4HNH2C4H2C4HNH2C4H2C4HNH2C4H2C4HNH2C4H2C4HNH2C4H2C4HNH2C4H3NH2C4H3NH2C4H3NH2C4H3NH2C4H3NH2C4H3NH2
_chemical_formula_sum              "C384 H288 N48"
_cell_length_a       63.4547
_cell_length_b       63.4547
_cell_length_c       14.8851
_cell_angle_alpha    90
_cell_angle_beta     90
_cell_angle_gamma    120

_space_group_name_H-M_alt    "P 1"
_space_group_IT_number       1

loop_
  _space_group_symop_operation_xyz
  'x, y, z'

loop_
  _atom_site_type_symbol
  _atom_site_label
  _atom_site_symmetry_multiplicity
  _atom_site_fract_x
  _atom_site_fract_y
  _atom_site_fract_z
  _atom_site_occupancy
  C   C1        1.0  0.00552  0.04949  0.33781  1.0000
  C   C2        1.0  0.00499  0.09505  0.33861  1.0000
  C   C3        1.0  0.02255  0.09232  0.28938  1.0000
  C   C4        1.0  0.02277  0.07017  0.28901  1.0000
  H   H1        1.0  0.03528  0.10651  0.25181  1.0000
  H   H2        1.0  0.03553  0.06916  0.25013  1.0000
  C   C5        1.0  0.00516  0.11786  0.33409  1.0000
  C   C6        1.0  0.00581  0.16395  0.33603  1.0000
  C   C7        1.0  0.99002  0.14447  0.27898  1.0000
  C   C8        1.0  0.98938  0.12171  0.27669  1.0000
  H   H3        1.0  0.97885  0.14703  0.23628  1.0000
  N   N1        1.0  0.97367  0.10426  0.21903  1.0000
  H   H4        1.0  0.97272  0.08854  0.21391  1.0000
  H   H5        1.0  0.96304  0.10709  0.17986  1.0000
  C   C9        1.0  0.96016  0.95796  0.33781  1.0000
  C   C10       1.0  0.91460  0.91187  0.33861  1.0000
  C   C11       1.0  0.91733  0.93216  0.28938  1.0000
  C   C12       1.0  0.93948  0.95454  0.28901  1.0000
  H   H6        1.0  0.90313  0.93070  0.25181  1.0000
  H   H7        1.0  0.94049  0.96831  0.25013  1.0000
  C   C13       1.0  0.89179  0.88923  0.33408  1.0000
  C   C14       1.0  0.84570  0.84380  0.33601  1.0000
  C   C15       1.0  0.86518  0.84748  0.27898  1.0000
  C   C16       1.0  0.88794  0.86960  0.27669  1.0000
  H   H8        1.0  0.86262  0.83375  0.23628  1.0000
  N   N2        1.0  0.90539  0.87134  0.21903  1.0000
  H   H9        1.0  0.92111  0.88611  0.21392  1.0000
  H   H10       1.0  0.90256  0.85788  0.17987  1.0000
  C   C17       1.0  0.05168  0.00413  0.33781  1.0000
  C   C18       1.0  0.09777  0.00466  0.33861  1.0000
  C   C19       1.0  0.07748  0.98709  0.28938  1.0000
  C   C20       1.0  0.05511  0.98687  0.28901  1.0000
  H   H11       1.0  0.07896  0.97437  0.25181  1.0000
  H   H12       1.0  0.04134  0.97411  0.25014  1.0000
  C   C21       1.0  0.12042  0.00449  0.33409  1.0000
  C   C22       1.0  0.16585  0.00384  0.33602  1.0000
  C   C23       1.0  0.16217  0.01963  0.27900  1.0000
  C   C24       1.0  0.14005  0.02027  0.27670  1.0000
  H   H13       1.0  0.17590  0.03080  0.23630  1.0000
  N   N3        1.0  0.13831  0.03598  0.21905  1.0000
  H   H14       1.0  0.12355  0.03694  0.21393  1.0000
  H   H15       1.0  0.15177  0.04661  0.17989  1.0000
  C   C25       1.0  0.07033  0.26216  0.29390  1.0000
  C   C26       1.0  0.09074  0.28616  0.29161  1.0000
  C   C27       1.0  0.10870  0.34502  0.28881  1.0000
  C   C28       1.0  0.12615  0.36999  0.28725  1.0000
  H   H16       1.0  0.09446  0.33860  0.24452  1.0000
  H   H17       1.0  0.12420  0.38081  0.24089  1.0000
  H   H18       1.0  0.06940  0.24960  0.24847  1.0000
  N   N4        1.0  0.10887  0.29134  0.23163  1.0000
  H   H19       1.0  0.10821  0.27895  0.19131  1.0000
  H   H20       1.0  0.12327  0.30739  0.22802  1.0000
  C   C29       1.0  0.74749  0.81010  0.29390  1.0000
  C   C30       1.0  0.72349  0.80651  0.29163  1.0000
  C   C31       1.0  0.66462  0.76560  0.28882  1.0000
  C   C32       1.0  0.63965  0.75809  0.28727  1.0000
  H   H21       1.0  0.67104  0.75778  0.24453  1.0000
  H   H22       1.0  0.62884  0.74532  0.24090  1.0000
  H   H23       1.0  0.76005  0.82174  0.24848  1.0000
  N   N5        1.0  0.71830  0.81946  0.23167  1.0000
  H   H24       1.0  0.73070  0.83121  0.19136  1.0000
  H   H25       1.0  0.70225  0.81781  0.22807  1.0000
  C   C33       1.0  0.19954  0.93931  0.29388  1.0000
  C   C34       1.0  0.20314  0.91891  0.29161  1.0000
  C   C35       1.0  0.24404  0.90095  0.28882  1.0000
  C   C36       1.0  0.25156  0.88350  0.28727  1.0000
  H   H26       1.0  0.25186  0.91519  0.24453  1.0000
  H   H27       1.0  0.26433  0.88545  0.24091  1.0000
  H   H28       1.0  0.18791  0.94024  0.24845  1.0000
  N   N6        1.0  0.19019  0.90077  0.23164  1.0000
  H   H29       1.0  0.17845  0.90143  0.19132  1.0000
  H   H30       1.0  0.19184  0.88637  0.22805  1.0000
  C   C37       1.0  0.25734  0.04818  0.32610  1.0000
  C   C38       1.0  0.30596  0.08925  0.32890  1.0000
  C   C39       1.0  0.29939  0.06970  0.26882  1.0000
  C   C40       1.0  0.27560  0.04965  0.26746  1.0000
  H   H31       1.0  0.31210  0.06962  0.22657  1.0000
  H   H32       1.0  0.27185  0.03571  0.22393  1.0000
  C   C41       1.0  0.33088  0.10832  0.33019  1.0000
  C   C42       1.0  0.38183  0.14416  0.33493  1.0000
  C   C43       1.0  0.36576  0.14580  0.27291  1.0000
  C   C44       1.0  0.34057  0.12823  0.26887  1.0000
  H   H33       1.0  0.37271  0.15984  0.22765  1.0000
  N   N7        1.0  0.32649  0.13101  0.20633  1.0000
  H   H34       1.0  0.30915  0.11960  0.20132  1.0000
  H   H35       1.0  0.33334  0.14473  0.16496  1.0000
  C   C45       1.0  0.79857  0.75231  0.32606  1.0000
  C   C46       1.0  0.79100  0.70369  0.32890  1.0000
  C   C47       1.0  0.77803  0.71026  0.26881  1.0000
  C   C48       1.0  0.78177  0.73405  0.26743  1.0000
  H   H36       1.0  0.76524  0.69755  0.22654  1.0000
  H   H37       1.0  0.77159  0.73780  0.22389  1.0000
  C   C49       1.0  0.78515  0.67876  0.33019  1.0000
  C   C50       1.0  0.77005  0.62782  0.33493  1.0000
  C   C51       1.0  0.78776  0.64388  0.27292  1.0000
  C   C52       1.0  0.79538  0.66908  0.26887  1.0000
  H   H38       1.0  0.79485  0.63694  0.22766  1.0000
  N   N8        1.0  0.81223  0.68315  0.20633  1.0000
  H   H39       1.0  0.81817  0.70050  0.20133  1.0000
  H   H40       1.0  0.81910  0.67631  0.16496  1.0000
  C   C53       1.0  0.96146  0.21108  0.32608  1.0000
  C   C54       1.0  0.92040  0.21864  0.32891  1.0000
  C   C55       1.0  0.93995  0.23162  0.26883  1.0000
  C   C56       1.0  0.96000  0.22788  0.26746  1.0000
  H   H41       1.0  0.94003  0.24441  0.22658  1.0000
  H   H42       1.0  0.97394  0.23807  0.22393  1.0000
  C   C57       1.0  0.90133  0.22450  0.33020  1.0000
  C   C58       1.0  0.86548  0.23959  0.33494  1.0000
  C   C59       1.0  0.86384  0.22189  0.27293  1.0000
  C   C60       1.0  0.88142  0.21427  0.26889  1.0000
  H   H43       1.0  0.84981  0.21479  0.22767  1.0000
  N   N9        1.0  0.87864  0.19742  0.20635  1.0000
  H   H44       1.0  0.89004  0.19148  0.20134  1.0000
  H   H45       1.0  0.86492  0.19054  0.16498  1.0000
  C   C61       1.0  0.36192  0.50677  0.34988  1.0000
  C   C62       1.0  0.30991  0.48220  0.35089  1.0000
  C   C63       1.0  0.32355  0.50192  0.29200  1.0000
  C   C64       1.0  0.34915  0.51401  0.29149  1.0000
  H   H46       1.0  0.31489  0.50743  0.24775  1.0000
  H   H47       1.0  0.35835  0.52756  0.24549  1.0000
  C   C65       1.0  0.28404  0.47050  0.34837  1.0000
  C   C66       1.0  0.23227  0.44813  0.35355  1.0000
  C   C67       1.0  0.24391  0.44130  0.28825  1.0000
  C   C68       1.0  0.26963  0.45221  0.28428  1.0000
  H   H48       1.0  0.23349  0.42872  0.24061  1.0000
  N   N10       1.0  0.27961  0.44486  0.21922  1.0000
  H   H49       1.0  0.29709  0.45165  0.21404  1.0000
  H   H50       1.0  0.26949  0.43232  0.17604  1.0000
  C   C69       1.0  0.50288  0.85708  0.34988  1.0000
  C   C70       1.0  0.52744  0.82964  0.35090  1.0000
  C   C71       1.0  0.50772  0.82356  0.29201  1.0000
  C   C72       1.0  0.49563  0.83707  0.29150  1.0000
  H   H51       1.0  0.50221  0.80939  0.24777  1.0000
  H   H52       1.0  0.48208  0.83271  0.24550  1.0000
  C   C73       1.0  0.53914  0.81546  0.34838  1.0000
  C   C74       1.0  0.56153  0.78608  0.35361  1.0000
  C   C75       1.0  0.56834  0.80453  0.28825  1.0000
  C   C76       1.0  0.55742  0.81934  0.28425  1.0000
  H   H53       1.0  0.58091  0.80669  0.24059  1.0000
  N   N11       1.0  0.56476  0.83666  0.21915  1.0000
  H   H54       1.0  0.55797  0.84734  0.21396  1.0000
  H   H55       1.0  0.57730  0.83907  0.17596  1.0000
  C   C77       1.0  0.15256  0.64773  0.34983  1.0000
  C   C78       1.0  0.18001  0.69973  0.35090  1.0000
  C   C79       1.0  0.18610  0.68610  0.29201  1.0000
  C   C80       1.0  0.17258  0.66050  0.29149  1.0000
  H   H56       1.0  0.20026  0.69475  0.24779  1.0000
  H   H57       1.0  0.17694  0.65130  0.24550  1.0000
  C   C81       1.0  0.19418  0.72560  0.34838  1.0000
  C   C82       1.0  0.22357  0.77738  0.35360  1.0000
  C   C83       1.0  0.20511  0.76573  0.28825  1.0000
  C   C84       1.0  0.19031  0.74001  0.28425  1.0000
  H   H58       1.0  0.20295  0.77615  0.24058  1.0000
  N   N12       1.0  0.17299  0.73003  0.21916  1.0000
  H   H59       1.0  0.16230  0.71255  0.21396  1.0000
  H   H60       1.0  0.17058  0.74016  0.17596  1.0000
  C   C85       1.0  0.49019  0.34614  0.26444  1.0000
  C   C86       1.0  0.47749  0.32037  0.26348  1.0000
  C   C87       1.0  0.47903  0.27029  0.26510  1.0000
  C   C88       1.0  0.46804  0.24483  0.26370  1.0000
  H   H61       1.0  0.49220  0.28019  0.21845  1.0000
  H   H62       1.0  0.47365  0.23699  0.21634  1.0000
  H   H63       1.0  0.48535  0.35508  0.21892  1.0000
  N   N13       1.0  0.45912  0.30855  0.20311  1.0000
  H   H64       1.0  0.45471  0.31744  0.16097  1.0000
  H   H65       1.0  0.44947  0.29091  0.20094  1.0000
  C   C89       1.0  0.86367  0.51945  0.26444  1.0000
  C   C90       1.0  0.85059  0.53215  0.26348  1.0000
  C   C91       1.0  0.79898  0.53062  0.26510  1.0000
  C   C92       1.0  0.78451  0.54161  0.26371  1.0000
  H   H66       1.0  0.79571  0.51745  0.21847  1.0000
  H   H67       1.0  0.77105  0.53600  0.21635  1.0000
  H   H68       1.0  0.87744  0.52429  0.21891  1.0000
  N   N14       1.0  0.85713  0.55052  0.20311  1.0000
  H   H69       1.0  0.87044  0.55493  0.16097  1.0000
  H   H70       1.0  0.84915  0.56017  0.20094  1.0000
  C   C93       1.0  0.66350  0.14598  0.26442  1.0000
  C   C94       1.0  0.68927  0.15905  0.26346  1.0000
  C   C95       1.0  0.73936  0.21066  0.26510  1.0000
  C   C96       1.0  0.76482  0.22514  0.26371  1.0000
  H   H71       1.0  0.72946  0.21393  0.21847  1.0000
  H   H72       1.0  0.77266  0.23860  0.21637  1.0000
  H   H73       1.0  0.65456  0.13220  0.21889  1.0000
  N   N15       1.0  0.70110  0.15250  0.20308  1.0000
  H   H74       1.0  0.69220  0.13920  0.16093  1.0000
  H   H75       1.0  0.71873  0.16049  0.20090  1.0000
  C   C97       1.0  0.12889  0.54391  0.26471  1.0000
  C   C98       1.0  0.13375  0.52443  0.26526  1.0000
  C   C99       1.0  0.17219  0.50518  0.27626  1.0000
  C   C100      1.0  0.17759  0.48627  0.27632  1.0000
  H   H76       1.0  0.18079  0.51901  0.23063  1.0000
  H   H77       1.0  0.19002  0.48697  0.23079  1.0000
  H   H78       1.0  0.11690  0.54374  0.21816  1.0000
  N   N16       1.0  0.12222  0.50621  0.20406  1.0000
  H   H79       1.0  0.11099  0.50650  0.16015  1.0000
  H   H80       1.0  0.12448  0.49217  0.20268  1.0000
  C   C101      1.0  0.46574  0.58691  0.26474  1.0000
  C   C102      1.0  0.48521  0.61125  0.26528  1.0000
  C   C103      1.0  0.50446  0.66895  0.27630  1.0000
  C   C104      1.0  0.52337  0.69326  0.27636  1.0000
  H   H81       1.0  0.49063  0.66371  0.23069  1.0000
  H   H82       1.0  0.52267  0.70499  0.23085  1.0000
  H   H83       1.0  0.46591  0.57510  0.21820  1.0000
  N   N17       1.0  0.50343  0.61794  0.20408  1.0000
  H   H84       1.0  0.50315  0.60643  0.16017  1.0000
  H   H85       1.0  0.51747  0.63425  0.20268  1.0000
  C   C105      1.0  0.42274  0.88076  0.26474  1.0000
  C   C106      1.0  0.39840  0.87590  0.26528  1.0000
  C   C107      1.0  0.34070  0.83745  0.27631  1.0000
  C   C108      1.0  0.31639  0.83205  0.27636  1.0000
  H   H86       1.0  0.34593  0.82885  0.23068  1.0000
  H   H87       1.0  0.30465  0.81961  0.23085  1.0000
  H   H88       1.0  0.43455  0.89275  0.21819  1.0000
  N   N18       1.0  0.39171  0.88742  0.20409  1.0000
  H   H89       1.0  0.40322  0.89865  0.16018  1.0000
  H   H90       1.0  0.37540  0.88516  0.20270  1.0000
  C   C109      1.0  0.56520  0.13773  0.35324  1.0000
  C   C110      1.0  0.52645  0.14830  0.35242  1.0000
  C   C111      1.0  0.54576  0.15940  0.28989  1.0000
  C   C112      1.0  0.56488  0.15420  0.29026  1.0000
  H   H91       1.0  0.54570  0.17088  0.24164  1.0000
  H   H92       1.0  0.57783  0.16151  0.24097  1.0000
  C   C113      1.0  0.50701  0.15334  0.34669  1.0000
  C   C114      1.0  0.46846  0.16424  0.34651  1.0000
  C   C115      1.0  0.46830  0.14687  0.28657  1.0000
  C   C116      1.0  0.48725  0.14115  0.28545  1.0000
  H   H93       1.0  0.45442  0.13869  0.24095  1.0000
  N   N19       1.0  0.48583  0.12419  0.22600  1.0000
  H   H94       1.0  0.49820  0.11947  0.22307  1.0000
  H   H95       1.0  0.47214  0.11599  0.18487  1.0000
  C   C117      1.0  0.58024  0.44444  0.35322  1.0000
  C   C118      1.0  0.62957  0.48319  0.35242  1.0000
  C   C119      1.0  0.62136  0.46388  0.28987  1.0000
  C   C120      1.0  0.59704  0.44477  0.29024  1.0000
  H   H96       1.0  0.63290  0.46395  0.24163  1.0000
  H   H97       1.0  0.59139  0.43181  0.24094  1.0000
  C   C121      1.0  0.65405  0.50263  0.34669  1.0000
  C   C122      1.0  0.70350  0.54119  0.34651  1.0000
  C   C123      1.0  0.68629  0.54134  0.28657  1.0000
  C   C124      1.0  0.66162  0.52240  0.28545  1.0000
  H   H98       1.0  0.69198  0.55523  0.24095  1.0000
  N   N20       1.0  0.64608  0.52382  0.22600  1.0000
  H   H99       1.0  0.62898  0.51144  0.22307  1.0000
  H   H100      1.0  0.65157  0.53751  0.18487  1.0000
  C   C125      1.0  0.87191  0.42940  0.35322  1.0000
  C   C126      1.0  0.86134  0.38008  0.35242  1.0000
  C   C127      1.0  0.85024  0.38829  0.28988  1.0000
  C   C128      1.0  0.85545  0.41261  0.29024  1.0000
  H   H101      1.0  0.83876  0.37674  0.24164  1.0000
  H   H102      1.0  0.84813  0.41825  0.24094  1.0000
  C   C129      1.0  0.85630  0.35560  0.34669  1.0000
  C   C130      1.0  0.84540  0.30614  0.34652  1.0000
  C   C131      1.0  0.86277  0.32335  0.28657  1.0000
  C   C132      1.0  0.86850  0.34803  0.28545  1.0000
  H   H103      1.0  0.87096  0.31766  0.24095  1.0000
  N   N21       1.0  0.88546  0.36356  0.22600  1.0000
  H   H104      1.0  0.89017  0.38066  0.22307  1.0000
  H   H105      1.0  0.89365  0.35807  0.18487  1.0000
  C   C133      1.0  0.94141  0.51219  0.33162  1.0000
  C   C134      1.0  0.99283  0.54195  0.33328  1.0000
  C   C135      1.0  0.98137  0.52197  0.27403  1.0000
  C   C136      1.0  0.95598  0.50731  0.27314  1.0000
  H   H106      1.0  0.99144  0.51763  0.23203  1.0000
  H   H107      1.0  0.94823  0.49288  0.22968  1.0000
  C   C137      1.0  0.01856  0.55480  0.33529  1.0000
  C   C138      1.0  0.06992  0.57669  0.34065  1.0000
  C   C139      1.0  0.05850  0.58374  0.27519  1.0000
  C   C140      1.0  0.03287  0.57292  0.27077  1.0000
  H   H108      1.0  0.06900  0.59641  0.22792  1.0000
  N   N22       1.0  0.02292  0.58014  0.20512  1.0000
  H   H109      1.0  0.00545  0.57344  0.20006  1.0000
  H   H110      1.0  0.03307  0.59262  0.16179  1.0000
  C   C141      1.0  0.49745  0.43115  0.33165  1.0000
  C   C142      1.0  0.46769  0.45280  0.33329  1.0000
  C   C143      1.0  0.48767  0.46133  0.27404  1.0000
  C   C144      1.0  0.50233  0.45059  0.27316  1.0000
  H   H111      1.0  0.49201  0.47573  0.23204  1.0000
  H   H112      1.0  0.51676  0.45727  0.22970  1.0000
  C   C145      1.0  0.45484  0.46569  0.33529  1.0000
  C   C146      1.0  0.43295  0.49515  0.34064  1.0000
  C   C147      1.0  0.42590  0.47669  0.27519  1.0000
  C   C148      1.0  0.43672  0.46187  0.27077  1.0000
  H   H113      1.0  0.41323  0.47452  0.22792  1.0000
  N   N23       1.0  0.42950  0.44471  0.20512  1.0000
  H   H114      1.0  0.43620  0.43394  0.20006  1.0000
  H   H115      1.0  0.41702  0.44238  0.16178  1.0000
  C   C149      1.0  0.57850  0.06824  0.33165  1.0000
  C   C150      1.0  0.55685  0.01682  0.33328  1.0000
  C   C151      1.0  0.54832  0.02827  0.27404  1.0000
  C   C152      1.0  0.55905  0.05367  0.27316  1.0000
  H   H116      1.0  0.53391  0.01821  0.23204  1.0000
  H   H117      1.0  0.55237  0.06142  0.22970  1.0000
  C   C153      1.0  0.54396  0.99109  0.33528  1.0000
  C   C154      1.0  0.51450  0.93973  0.34063  1.0000
  C   C155      1.0  0.53296  0.95114  0.27519  1.0000
  C   C156      1.0  0.54777  0.97677  0.27077  1.0000
  H   H118      1.0  0.53512  0.94064  0.22791  1.0000
  N   N24       1.0  0.56494  0.98672  0.20511  1.0000
  H   H119      1.0  0.57571  0.00419  0.20005  1.0000
  H   H120      1.0  0.56726  0.97657  0.16177  1.0000
  C   C157      1.0  0.00566  0.02659  0.33717  1.0000
  C   C158      1.0  0.02774  0.02594  0.33708  1.0000
  C   C159      1.0  0.02865  0.00399  0.33717  1.0000
  C   C160      1.0  0.00592  0.98190  0.33708  1.0000
  C   C161      1.0  0.98305  0.98099  0.33717  1.0000
  C   C162      1.0  0.98370  0.00373  0.33707  1.0000
  H   H121      1.0  0.00603  0.96585  0.33711  1.0000
  H   H122      1.0  0.96754  0.00362  0.33711  1.0000
  H   H123      1.0  0.04380  0.04211  0.33711  1.0000
  C   C163      1.0  0.02847  0.23222  0.34640  1.0000
  C   C164      1.0  0.00599  0.23170  0.33966  1.0000
  C   C165      1.0  0.98346  0.20983  0.33198  1.0000
  C   C166      1.0  0.98386  0.18767  0.33262  1.0000
  C   C167      1.0  0.00590  0.18689  0.33751  1.0000
  C   C168      1.0  0.02799  0.20962  0.34370  1.0000
  H   H124      1.0  0.96762  0.17171  0.32885  1.0000
  H   H125      1.0  0.04419  0.20980  0.34668  1.0000
  H   H126      1.0  0.00602  0.24787  0.34036  1.0000
  C   C169      1.0  0.77743  0.79817  0.34639  1.0000
  C   C170      1.0  0.77795  0.77622  0.33965  1.0000
  C   C171      1.0  0.79982  0.77556  0.33197  1.0000
  C   C172      1.0  0.82198  0.79813  0.33261  1.0000
  C   C173      1.0  0.82275  0.82094  0.33750  1.0000
  C   C174      1.0  0.80003  0.82030  0.34368  1.0000
  H   H127      1.0  0.83794  0.79785  0.32885  1.0000
  H   H128      1.0  0.79985  0.83632  0.34666  1.0000
  H   H129      1.0  0.76178  0.76009  0.34033  1.0000
  C   C175      1.0  0.21147  0.98118  0.34638  1.0000
  C   C176      1.0  0.23343  0.00366  0.33965  1.0000
  C   C177      1.0  0.23409  0.02618  0.33199  1.0000
  C   C178      1.0  0.21152  0.02578  0.33262  1.0000
  C   C179      1.0  0.18871  0.00375  0.33750  1.0000
  C   C180      1.0  0.18935  0.98166  0.34368  1.0000
  H   H130      1.0  0.21180  0.04202  0.32887  1.0000
  H   H131      1.0  0.17333  0.96546  0.34665  1.0000
  H   H132      1.0  0.24956  0.00362  0.34035  1.0000
  C   C181      1.0  0.17337  0.44860  0.34175  1.0000
  C   C182      1.0  0.19836  0.45604  0.34616  1.0000
  C   C183      1.0  0.20667  0.43918  0.35036  1.0000
  C   C184      1.0  0.18917  0.41404  0.34928  1.0000
  C   C185      1.0  0.16380  0.40563  0.34625  1.0000
  C   C186      1.0  0.15636  0.42333  0.34295  1.0000
  H   H133      1.0  0.19506  0.40169  0.35115  1.0000
  H   H134      1.0  0.13818  0.41776  0.34102  1.0000
  H   H135      1.0  0.21088  0.47428  0.34626  1.0000
  C   C187      1.0  0.56104  0.72670  0.34178  1.0000
  C   C188      1.0  0.55361  0.74425  0.34620  1.0000
  C   C189      1.0  0.57048  0.76943  0.35040  1.0000
  C   C190      1.0  0.59561  0.77706  0.34931  1.0000
  C   C191      1.0  0.60402  0.76010  0.34626  1.0000
  C   C192      1.0  0.58631  0.73496  0.34297  1.0000
  H   H136      1.0  0.60796  0.79530  0.35118  1.0000
  H   H137      1.0  0.59188  0.72235  0.34103  1.0000
  H   H138      1.0  0.53537  0.73853  0.34632  1.0000
  C   C193      1.0  0.28295  0.83627  0.34180  1.0000
  C   C194      1.0  0.26540  0.81129  0.34620  1.0000
  C   C195      1.0  0.24022  0.80298  0.35038  1.0000
  C   C196      1.0  0.23259  0.82048  0.34931  1.0000
  C   C197      1.0  0.24954  0.84585  0.34627  1.0000
  C   C198      1.0  0.27469  0.85329  0.34298  1.0000
  H   H139      1.0  0.21434  0.81459  0.35118  1.0000
  H   H140      1.0  0.28730  0.87147  0.34104  1.0000
  H   H141      1.0  0.27111  0.79876  0.34632  1.0000
  C   C199      1.0  0.45039  0.17139  0.34176  1.0000
  C   C200      1.0  0.45783  0.19637  0.33655  1.0000
  C   C201      1.0  0.44097  0.20467  0.33125  1.0000
  C   C202      1.0  0.41584  0.18717  0.33214  1.0000
  C   C203      1.0  0.40741  0.16181  0.33603  1.0000
  C   C204      1.0  0.42512  0.15438  0.34035  1.0000
  H   H142      1.0  0.40348  0.19306  0.32941  1.0000
  H   H143      1.0  0.41954  0.13620  0.34276  1.0000
  H   H144      1.0  0.47607  0.20888  0.33650  1.0000
  C   C205      1.0  0.72872  0.55926  0.34176  1.0000
  C   C206      1.0  0.74626  0.55182  0.33655  1.0000
  C   C207      1.0  0.77142  0.56868  0.33124  1.0000
  C   C208      1.0  0.77905  0.59381  0.33214  1.0000
  C   C209      1.0  0.76211  0.60223  0.33604  1.0000
  C   C210      1.0  0.73698  0.58453  0.34035  1.0000
  H   H145      1.0  0.79729  0.60616  0.32942  1.0000
  H   H146      1.0  0.72438  0.59010  0.34276  1.0000
  H   H147      1.0  0.74054  0.53358  0.33651  1.0000
  C   C211      1.0  0.83826  0.28093  0.34177  1.0000
  C   C212      1.0  0.81328  0.26339  0.33656  1.0000
  C   C213      1.0  0.80497  0.23822  0.33127  1.0000
  C   C214      1.0  0.82247  0.23059  0.33216  1.0000
  C   C215      1.0  0.84784  0.24753  0.33605  1.0000
  C   C216      1.0  0.85527  0.27266  0.34035  1.0000
  H   H148      1.0  0.81659  0.21235  0.32942  1.0000
  H   H149      1.0  0.87344  0.28526  0.34276  1.0000
  H   H150      1.0  0.80076  0.26911  0.33652  1.0000
  C   C217      1.0  0.09551  0.58653  0.34027  1.0000
  C   C218      1.0  0.10532  0.57095  0.33675  1.0000
  C   C219      1.0  0.13070  0.58006  0.33431  1.0000
  C   C220      1.0  0.14642  0.60561  0.33951  1.0000
  C   C221      1.0  0.13716  0.62185  0.34427  1.0000
  C   C222      1.0  0.11159  0.61186  0.34248  1.0000
  H   H151      1.0  0.16485  0.61245  0.33965  1.0000
  H   H152      1.0  0.10442  0.62317  0.34397  1.0000
  H   H153      1.0  0.09362  0.55252  0.33491  1.0000
  C   C223      1.0  0.42311  0.51090  0.34027  1.0000
  C   C224      1.0  0.43869  0.53630  0.33676  1.0000
  C   C225      1.0  0.42959  0.55257  0.33433  1.0000
  C   C226      1.0  0.40404  0.54275  0.33954  1.0000
  C   C227      1.0  0.38779  0.51724  0.34430  1.0000
  C   C228      1.0  0.39779  0.50167  0.34250  1.0000
  H   H154      1.0  0.39720  0.55433  0.33968  1.0000
  H   H155      1.0  0.38647  0.48318  0.34399  1.0000
  H   H156      1.0  0.45713  0.54303  0.33492  1.0000
  C   C229      1.0  0.49874  0.91414  0.34026  1.0000
  C   C230      1.0  0.47335  0.90433  0.33674  1.0000
  C   C231      1.0  0.45708  0.87895  0.33431  1.0000
  C   C232      1.0  0.46690  0.86322  0.33953  1.0000
  C   C233      1.0  0.49240  0.87248  0.34430  1.0000
  C   C234      1.0  0.50798  0.89805  0.34250  1.0000
  H   H157      1.0  0.45531  0.84480  0.33969  1.0000
  H   H158      1.0  0.52647  0.90522  0.34398  1.0000
  H   H159      1.0  0.46662  0.91603  0.33490  1.0000
  C   C235      1.0  0.58840  0.09389  0.33414  1.0000
  C   C236      1.0  0.57293  0.10380  0.34121  1.0000
  C   C237      1.0  0.58211  0.12917  0.34543  1.0000
  C   C238      1.0  0.60764  0.14488  0.33958  1.0000
  C   C239      1.0  0.62380  0.13559  0.33193  1.0000
  C   C240      1.0  0.61374  0.11001  0.33083  1.0000
  H   H160      1.0  0.61453  0.16331  0.34111  1.0000
  H   H161      1.0  0.62504  0.10286  0.32675  1.0000
  H   H162      1.0  0.55450  0.09218  0.34407  1.0000
  C   C241      1.0  0.51321  0.42124  0.33414  1.0000
  C   C242      1.0  0.53858  0.43671  0.34119  1.0000
  C   C243      1.0  0.55478  0.42753  0.34539  1.0000
  C   C244      1.0  0.54495  0.40200  0.33957  1.0000
  C   C245      1.0  0.51950  0.38584  0.33193  1.0000
  C   C246      1.0  0.50399  0.39591  0.33083  1.0000
  H   H163      1.0  0.55649  0.39511  0.34110  1.0000
  H   H164      1.0  0.48553  0.38460  0.32676  1.0000
  H   H165      1.0  0.54539  0.45514  0.34405  1.0000
  C   C247      1.0  0.91575  0.49644  0.33412  1.0000
  C   C248      1.0  0.90585  0.47106  0.34118  1.0000
  C   C249      1.0  0.88047  0.45487  0.34538  1.0000
  C   C250      1.0  0.86477  0.46469  0.33957  1.0000
  C   C251      1.0  0.87406  0.49014  0.33192  1.0000
  C   C252      1.0  0.89964  0.50565  0.33081  1.0000
  H   H166      1.0  0.84634  0.45315  0.34111  1.0000
  H   H167      1.0  0.90678  0.52411  0.32675  1.0000
  H   H168      1.0  0.91747  0.46425  0.34404  1.0000
  C   C253      1.0  0.98810  0.05251  0.38743  1.0000
  C   C254      1.0  0.98741  0.07461  0.38872  1.0000
  C   C255      1.0  0.02109  0.13723  0.39080  1.0000
  C   C256      1.0  0.02144  0.15966  0.39152  1.0000
  H   H169      1.0  0.03249  0.13502  0.43352  1.0000
  H   H170      1.0  0.03294  0.17277  0.43551  1.0000
  H   H171      1.0  0.97566  0.03827  0.42549  1.0000
  N   N25       1.0  0.96990  0.07555  0.43847  1.0000
  H   H172      1.0  0.95798  0.06152  0.47248  1.0000
  H   H173      1.0  0.96874  0.09022  0.44240  1.0000
  C   C257      1.0  0.95714  0.93751  0.38742  1.0000
  C   C258      1.0  0.93504  0.91473  0.38871  1.0000
  C   C259      1.0  0.87242  0.88579  0.39079  1.0000
  C   C260      1.0  0.84999  0.86371  0.39151  1.0000
  H   H174      1.0  0.87463  0.89940  0.43351  1.0000
  H   H175      1.0  0.83687  0.86210  0.43549  1.0000
  H   H176      1.0  0.97137  0.93932  0.42548  1.0000
  N   N26       1.0  0.93409  0.89627  0.43846  1.0000
  H   H177      1.0  0.94813  0.89839  0.47247  1.0000
  H   H178      1.0  0.91942  0.88045  0.44239  1.0000
  C   C261      1.0  0.07213  0.02155  0.38743  1.0000
  C   C262      1.0  0.09492  0.02224  0.38872  1.0000
  C   C263      1.0  0.12386  0.98856  0.39079  1.0000
  C   C264      1.0  0.14594  0.98821  0.39151  1.0000
  H   H179      1.0  0.11024  0.97715  0.43350  1.0000
  H   H180      1.0  0.14755  0.97670  0.43549  1.0000
  H   H181      1.0  0.07032  0.03398  0.42548  1.0000
  N   N27       1.0  0.11338  0.03975  0.43847  1.0000
  H   H182      1.0  0.11126  0.05167  0.47248  1.0000
  H   H183      1.0  0.12920  0.04091  0.44239  1.0000
  C   C265      1.0  0.05050  0.25541  0.35308  1.0000
  C   C266      1.0  0.09146  0.30409  0.35136  1.0000
  C   C267      1.0  0.07207  0.29724  0.41246  1.0000
  C   C268      1.0  0.05207  0.27342  0.41328  1.0000
  H   H184      1.0  0.07206  0.30977  0.45584  1.0000
  H   H185      1.0  0.03822  0.26947  0.45750  1.0000
  C   C269      1.0  0.11045  0.32905  0.35065  1.0000
  C   C270      1.0  0.14617  0.38004  0.34698  1.0000
  C   C271      1.0  0.14790  0.36390  0.40836  1.0000
  C   C272      1.0  0.13039  0.33868  0.41188  1.0000
  H   H186      1.0  0.16197  0.37079  0.45348  1.0000
  N   N28       1.0  0.13326  0.32452  0.47378  1.0000
  H   H187      1.0  0.12191  0.30715  0.47836  1.0000
  H   H188      1.0  0.14699  0.33133  0.51508  1.0000
  C   C273      1.0  0.75423  0.79701  0.35305  1.0000
  C   C274      1.0  0.70556  0.78930  0.35136  1.0000
  C   C275      1.0  0.71241  0.77676  0.41244  1.0000
  C   C276      1.0  0.73623  0.78057  0.41326  1.0000
  H   H189      1.0  0.69988  0.76421  0.45582  1.0000
  H   H190      1.0  0.74018  0.77067  0.45747  1.0000
  C   C277      1.0  0.68059  0.78333  0.35066  1.0000
  C   C278      1.0  0.62961  0.76806  0.34700  1.0000
  C   C279      1.0  0.64575  0.78593  0.40837  1.0000
  C   C280      1.0  0.67097  0.79364  0.41189  1.0000
  H   H191      1.0  0.63886  0.79310  0.45350  1.0000
  N   N29       1.0  0.68513  0.81066  0.47379  1.0000
  H   H192      1.0  0.70249  0.81668  0.47837  1.0000
  H   H193      1.0  0.67832  0.81759  0.51508  1.0000
  C   C281      1.0  0.21263  0.95915  0.35304  1.0000
  C   C282      1.0  0.22034  0.91818  0.35136  1.0000
  C   C283      1.0  0.23288  0.93757  0.41246  1.0000
  C   C284      1.0  0.22907  0.95758  0.41327  1.0000
  H   H194      1.0  0.24542  0.93759  0.45584  1.0000
  H   H195      1.0  0.23897  0.97143  0.45749  1.0000
  C   C285      1.0  0.22631  0.89919  0.35066  1.0000
  C   C286      1.0  0.24158  0.86348  0.34701  1.0000
  C   C287      1.0  0.22371  0.86175  0.40838  1.0000
  C   C288      1.0  0.21600  0.87926  0.41189  1.0000
  H   H196      1.0  0.21654  0.84768  0.45351  1.0000
  N   N30       1.0  0.19898  0.87639  0.47379  1.0000
  H   H197      1.0  0.19296  0.88774  0.47837  1.0000
  H   H198      1.0  0.19205  0.86265  0.51509  1.0000
  C   C289      1.0  0.26381  0.06817  0.38419  1.0000
  C   C290      1.0  0.28778  0.08863  0.38701  1.0000
  C   C291      1.0  0.34677  0.10666  0.39271  1.0000
  C   C292      1.0  0.37171  0.12417  0.39482  1.0000
  H   H199      1.0  0.34031  0.09243  0.43711  1.0000
  H   H200      1.0  0.38247  0.12228  0.44163  1.0000
  H   H201      1.0  0.25106  0.06734  0.42843  1.0000
  N   N31       1.0  0.29269  0.10691  0.44595  1.0000
  H   H202      1.0  0.28013  0.10632  0.48517  1.0000
  H   H203      1.0  0.30872  0.12133  0.44991  1.0000
  C   C293      1.0  0.81207  0.74583  0.38420  1.0000
  C   C294      1.0  0.80856  0.72186  0.38703  1.0000
  C   C295      1.0  0.76760  0.66288  0.39271  1.0000
  C   C296      1.0  0.76017  0.63793  0.39482  1.0000
  H   H204      1.0  0.75984  0.66934  0.43711  1.0000
  H   H205      1.0  0.74752  0.62718  0.44163  1.0000
  H   H206      1.0  0.82399  0.75858  0.42847  1.0000
  N   N32       1.0  0.82192  0.71695  0.44600  1.0000
  H   H207      1.0  0.83388  0.72951  0.48524  1.0000
  H   H208      1.0  0.82031  0.70092  0.44998  1.0000
  C   C297      1.0  0.94148  0.19758  0.38419  1.0000
  C   C298      1.0  0.92102  0.20109  0.38702  1.0000
  C   C299      1.0  0.90299  0.24204  0.39272  1.0000
  C   C300      1.0  0.88548  0.24947  0.39482  1.0000
  H   H209      1.0  0.91722  0.24981  0.43712  1.0000
  H   H210      1.0  0.88737  0.26212  0.44164  1.0000
  H   H211      1.0  0.94231  0.18566  0.42845  1.0000
  N   N33       1.0  0.90274  0.18772  0.44597  1.0000
  H   H212      1.0  0.90333  0.17575  0.48521  1.0000
  H   H213      1.0  0.88832  0.18933  0.44995  1.0000
  C   C301      1.0  0.34808  0.48742  0.41030  1.0000
  C   C302      1.0  0.32232  0.47485  0.41177  1.0000
  C   C303      1.0  0.27243  0.47704  0.41468  1.0000
  C   C304      1.0  0.24698  0.46608  0.41701  1.0000
  H   H214      1.0  0.28246  0.49007  0.46163  1.0000
  H   H215      1.0  0.23925  0.47156  0.46528  1.0000
  H   H216      1.0  0.35700  0.48211  0.45409  1.0000
  N   N34       1.0  0.31048  0.45598  0.47018  1.0000
  H   H217      1.0  0.31935  0.45112  0.51059  1.0000
  H   H218      1.0  0.29283  0.44645  0.47268  1.0000
  C   C305      1.0  0.52222  0.86259  0.41030  1.0000
  C   C306      1.0  0.53479  0.84940  0.41177  1.0000
  C   C307      1.0  0.53261  0.79733  0.41472  1.0000
  C   C308      1.0  0.54358  0.78285  0.41707  1.0000
  H   H219      1.0  0.51959  0.79433  0.46167  1.0000
  H   H220      1.0  0.53810  0.76964  0.46535  1.0000
  H   H221      1.0  0.52753  0.87682  0.45408  1.0000
  N   N35       1.0  0.55366  0.85642  0.47017  1.0000
  H   H222      1.0  0.55852  0.87016  0.51057  1.0000
  H   H223      1.0  0.56320  0.84832  0.47267  1.0000
  C   C309      1.0  0.14705  0.66156  0.41027  1.0000
  C   C310      1.0  0.16025  0.68732  0.41175  1.0000
  C   C311      1.0  0.21232  0.73721  0.41472  1.0000
  C   C312      1.0  0.22680  0.76266  0.41706  1.0000
  H   H224      1.0  0.21532  0.72719  0.46167  1.0000
  H   H225      1.0  0.24001  0.77039  0.46534  1.0000
  H   H226      1.0  0.13282  0.65264  0.45404  1.0000
  N   N36       1.0  0.15322  0.69917  0.47016  1.0000
  H   H227      1.0  0.13948  0.69029  0.51055  1.0000
  H   H228      1.0  0.16133  0.71681  0.47267  1.0000
  C   C313      1.0  0.50900  0.35996  0.32677  1.0000
  C   C314      1.0  0.48415  0.30795  0.32694  1.0000
  C   C315      1.0  0.50336  0.32157  0.38780  1.0000
  C   C316      1.0  0.51558  0.34718  0.38775  1.0000
  H   H229      1.0  0.50838  0.31291  0.43390  1.0000
  H   H230      1.0  0.52872  0.35637  0.43519  1.0000
  C   C317      1.0  0.47232  0.28207  0.33011  1.0000
  C   C318      1.0  0.44993  0.23027  0.32692  1.0000
  C   C319      1.0  0.44294  0.24208  0.39093  1.0000
  C   C320      1.0  0.45385  0.26781  0.39390  1.0000
  H   H231      1.0  0.43024  0.23179  0.43840  1.0000
  N   N37       1.0  0.44632  0.27795  0.45768  1.0000
  H   H232      1.0  0.45305  0.29544  0.46200  1.0000
  H   H233      1.0  0.43364  0.26793  0.50060  1.0000
  C   C321      1.0  0.85868  0.50064  0.32677  1.0000
  C   C322      1.0  0.83151  0.52549  0.32694  1.0000
  C   C323      1.0  0.82593  0.50628  0.38782  1.0000
  C   C324      1.0  0.83931  0.49406  0.38776  1.0000
  H   H234      1.0  0.81225  0.50126  0.43392  1.0000
  H   H235      1.0  0.83537  0.48093  0.43520  1.0000
  C   C325      1.0  0.81746  0.53732  0.33012  1.0000
  C   C326      1.0  0.78806  0.55972  0.32693  1.0000
  C   C327      1.0  0.80686  0.56670  0.39094  1.0000
  C   C328      1.0  0.82167  0.55579  0.39391  1.0000
  H   H236      1.0  0.80927  0.57941  0.43841  1.0000
  N   N38       1.0  0.83935  0.56332  0.45770  1.0000
  H   H237      1.0  0.85011  0.55660  0.46201  1.0000
  H   H238      1.0  0.84201  0.57600  0.50062  1.0000
  C   C329      1.0  0.64968  0.15097  0.32675  1.0000
  C   C330      1.0  0.70170  0.17813  0.32694  1.0000
  C   C331      1.0  0.68807  0.18371  0.38782  1.0000
  C   C332      1.0  0.66247  0.17033  0.38776  1.0000
  H   H239      1.0  0.69674  0.19738  0.43394  1.0000
  H   H240      1.0  0.65328  0.17427  0.43523  1.0000
  C   C333      1.0  0.72758  0.19218  0.33010  1.0000
  C   C334      1.0  0.77938  0.22159  0.32694  1.0000
  C   C335      1.0  0.76756  0.20278  0.39092  1.0000
  C   C336      1.0  0.74183  0.18796  0.39388  1.0000
  H   H241      1.0  0.77786  0.20037  0.43838  1.0000
  N   N39       1.0  0.73170  0.17028  0.45764  1.0000
  H   H242      1.0  0.71421  0.15952  0.46195  1.0000
  H   H243      1.0  0.74172  0.16762  0.50056  1.0000
  C   C337      1.0  0.13920  0.56307  0.32830  1.0000
  C   C338      1.0  0.14995  0.52444  0.33139  1.0000
  C   C339      1.0  0.16104  0.54396  0.39306  1.0000
  C   C340      1.0  0.15575  0.56302  0.39158  1.0000
  H   H244      1.0  0.17263  0.54413  0.44137  1.0000
  H   H245      1.0  0.16309  0.57617  0.44018  1.0000
  C   C341      1.0  0.15522  0.50516  0.33766  1.0000
  C   C342      1.0  0.16623  0.46668  0.33755  1.0000
  C   C343      1.0  0.14900  0.46657  0.39813  1.0000
  C   C344      1.0  0.14323  0.48548  0.39940  1.0000
  H   H246      1.0  0.14094  0.45273  0.44397  1.0000
  N   N40       1.0  0.12640  0.48410  0.45938  1.0000
  H   H247      1.0  0.12167  0.49647  0.46248  1.0000
  H   H248      1.0  0.11834  0.47048  0.50087  1.0000
  C   C345      1.0  0.44658  0.57807  0.32834  1.0000
  C   C346      1.0  0.48521  0.62745  0.33140  1.0000
  C   C347      1.0  0.46568  0.61902  0.39308  1.0000
  C   C348      1.0  0.44663  0.59466  0.39160  1.0000
  H   H249      1.0  0.46551  0.63043  0.44137  1.0000
  H   H250      1.0  0.43348  0.58886  0.44019  1.0000
  C   C349      1.0  0.50448  0.65200  0.33768  1.0000
  C   C350      1.0  0.54296  0.70148  0.33759  1.0000
  C   C351      1.0  0.54308  0.68437  0.39813  1.0000
  C   C352      1.0  0.52416  0.65968  0.39940  1.0000
  H   H251      1.0  0.55692  0.69014  0.44396  1.0000
  N   N41       1.0  0.52555  0.64422  0.45936  1.0000
  H   H252      1.0  0.51318  0.62712  0.46245  1.0000
  H   H253      1.0  0.53917  0.64978  0.50083  1.0000
  C   C353      1.0  0.43158  0.87045  0.32833  1.0000
  C   C354      1.0  0.38220  0.85969  0.33140  1.0000
  C   C355      1.0  0.39063  0.84860  0.39308  1.0000
  C   C356      1.0  0.41498  0.85390  0.39160  1.0000
  H   H254      1.0  0.37922  0.83701  0.44137  1.0000
  H   H255      1.0  0.42079  0.84655  0.44018  1.0000
  C   C357      1.0  0.35765  0.85442  0.33769  1.0000
  C   C358      1.0  0.30816  0.84341  0.33760  1.0000
  C   C359      1.0  0.32528  0.86065  0.39815  1.0000
  C   C360      1.0  0.34997  0.86642  0.39941  1.0000
  H   H256      1.0  0.31951  0.86872  0.44398  1.0000
  N   N42       1.0  0.36543  0.88326  0.45937  1.0000
  H   H257      1.0  0.38252  0.88799  0.46246  1.0000
  H   H258      1.0  0.35986  0.89132  0.50085  1.0000
  C   C361      1.0  0.54626  0.12739  0.41766  1.0000
  C   C362      1.0  0.52674  0.13219  0.41832  1.0000
  C   C363      1.0  0.50708  0.17044  0.40755  1.0000
  C   C364      1.0  0.48812  0.17578  0.40737  1.0000
  H   H259      1.0  0.52099  0.17920  0.45274  1.0000
  H   H260      1.0  0.48887  0.18834  0.45240  1.0000
  H   H261      1.0  0.54626  0.11541  0.46381  1.0000
  N   N43       1.0  0.50874  0.12068  0.48030  1.0000
  H   H262      1.0  0.50923  0.10952  0.52407  1.0000
  H   H263      1.0  0.49470  0.12293  0.48260  1.0000
  C   C365      1.0  0.58884  0.46338  0.41764  1.0000
  C   C366      1.0  0.61316  0.48290  0.41830  1.0000
  C   C367      1.0  0.67108  0.50257  0.40755  1.0000
  C   C368      1.0  0.69538  0.52152  0.40737  1.0000
  H   H264      1.0  0.66593  0.48866  0.45274  1.0000
  H   H265      1.0  0.70718  0.52078  0.45240  1.0000
  H   H266      1.0  0.57686  0.46338  0.46379  1.0000
  N   N44       1.0  0.61965  0.50090  0.48030  1.0000
  H   H267      1.0  0.60801  0.50042  0.52407  1.0000
  H   H268      1.0  0.63595  0.51494  0.48260  1.0000
  C   C369      1.0  0.88225  0.42080  0.41764  1.0000
  C   C370      1.0  0.87745  0.39648  0.41831  1.0000
  C   C371      1.0  0.83921  0.33857  0.40757  1.0000
  C   C372      1.0  0.83387  0.31427  0.40739  1.0000
  H   H269      1.0  0.83044  0.34371  0.45275  1.0000
  H   H270      1.0  0.82131  0.30246  0.45242  1.0000
  H   H271      1.0  0.89424  0.43279  0.46379  1.0000
  N   N45       1.0  0.88896  0.38999  0.48030  1.0000
  H   H272      1.0  0.90012  0.40163  0.52407  1.0000
  H   H273      1.0  0.88671  0.37370  0.48260  1.0000
  C   C373      1.0  0.95298  0.53248  0.38976  1.0000
  C   C374      1.0  0.97861  0.54753  0.39206  1.0000
  C   C375      1.0  0.02992  0.54800  0.40172  1.0000
  C   C376      1.0  0.05531  0.55880  0.40421  1.0000
  H   H274      1.0  0.01978  0.53478  0.44791  1.0000
  H   H275      1.0  0.06303  0.55334  0.45261  1.0000
  H   H276      1.0  0.94261  0.53594  0.43349  1.0000
  N   N46       1.0  0.98864  0.56662  0.45031  1.0000
  H   H277      1.0  0.97855  0.57016  0.48967  1.0000
  H   H278      1.0  0.00610  0.57764  0.45336  1.0000
  C   C377      1.0  0.47716  0.42243  0.38978  1.0000
  C   C378      1.0  0.46211  0.43300  0.39206  1.0000
  C   C379      1.0  0.46163  0.48384  0.40174  1.0000
  C   C380      1.0  0.45084  0.49844  0.40422  1.0000
  H   H279      1.0  0.47485  0.48692  0.44793  1.0000
  H   H280      1.0  0.45630  0.51162  0.45261  1.0000
  H   H281      1.0  0.47370  0.40860  0.43350  1.0000
  N   N47       1.0  0.44302  0.42395  0.45031  1.0000
  H   H282      1.0  0.43948  0.41031  0.48967  1.0000
  H   H283      1.0  0.43200  0.43038  0.45336  1.0000
  C   C381      1.0  0.58722  0.05666  0.38976  1.0000
  C   C382      1.0  0.57665  0.03104  0.39205  1.0000
  C   C383      1.0  0.52581  0.97973  0.40173  1.0000
  C   C384      1.0  0.51121  0.95434  0.40422  1.0000
  H   H284      1.0  0.52273  0.98986  0.44792  1.0000
  H   H285      1.0  0.49803  0.94661  0.45261  1.0000
  H   H286      1.0  0.60106  0.06703  0.43349  1.0000
  N   N48       1.0  0.58571  0.02100  0.45029  1.0000
  H   H287      1.0  0.59934  0.03110  0.48964  1.0000
  H   H288      1.0  0.57927  0.00354  0.45334  1.0000
