data_image0
_chemical_formula_structural       C8H2N2O4C8H2N2O4C2H2C2H2C2H2C2H2C8H2N2O4C8H2N2O4C2H2C2H2C2H2C2H2C8H2N2O4C8H2N2O4C8H2N2O4C8H2N2O4C2H2C2H2C2H2C2H2C8H2N2O4C8H2N2O4C2H2C2H2C2H2C2H2C8H2N2O4C8H2N2O4C2H2C2H2C2H2C2H2C8H2N2O4C8H2N2O4CNCNCNCNCNCNCNCNCNCNCNCNCNCNCNCNCNCNCNCNCNCNCNCNCNCNCNCNCNCNCNCNCNCNCNCNCNCNCNCNCNCNCNCNCNCNCNCNC2H2C2H2C2H2C2H2C8H2N2O4C8H2N2O4C2H2C2H2C2H2C2H2C8H2N2O4C8H2N2O4C2H2C2H2C2H2C2H2C2H2C2H2C2H2C2H2C8H2N2O4C8H2N2O4C2H2C2H2C2H2C2H2C8H2N2O4C8H2N2O4C2H2C2H2C2H2C2H2C8H2N2O4C8H2N2O4C2H2C2H2C2H2C2H2
_chemical_formula_sum              "C336 H144 N96 O96"
_cell_length_a       66.5129
_cell_length_b       52.1561
_cell_length_c       14.8687
_cell_angle_alpha    90
_cell_angle_beta     90
_cell_angle_gamma    90

_space_group_name_H-M_alt    "P 1"
_space_group_IT_number       1

loop_
  _space_group_symop_operation_xyz
  'x, y, z'

loop_
  _atom_site_type_symbol
  _atom_site_label
  _atom_site_symmetry_multiplicity
  _atom_site_fract_x
  _atom_site_fract_y
  _atom_site_fract_z
  _atom_site_occupancy
  C   C1        1.0  0.00316  0.07384  0.34145  1.0000
  C   C2        1.0  0.98732  0.05908  0.30264  1.0000
  C   C3        1.0  0.98825  0.03182  0.30315  1.0000
  C   C4        1.0  0.00449  0.01815  0.34174  1.0000
  C   C5        1.0  0.00505  0.99044  0.34157  1.0000
  C   C6        1.0  0.02226  0.97613  0.31431  1.0000
  C   C7        1.0  0.02184  0.94886  0.31590  1.0000
  C   C8        1.0  0.00463  0.93477  0.34262  1.0000
  H   H1        1.0  0.03440  0.93922  0.29504  1.0000
  H   H2        1.0  0.97686  0.02179  0.27304  1.0000
  N   N1        1.0  0.03948  0.98917  0.28187  1.0000
  N   N2        1.0  0.97079  0.07150  0.26123  1.0000
  O   O1        1.0  0.04303  0.98371  0.20110  1.0000
  O   O2        1.0  0.95448  0.06599  0.29931  1.0000
  O   O3        1.0  0.05480  0.98407  0.32799  1.0000
  O   O4        1.0  0.96945  0.06613  0.17905  1.0000
  C   C9        1.0  0.50329  0.57378  0.33761  1.0000
  C   C10       1.0  0.48739  0.55902  0.29914  1.0000
  C   C11       1.0  0.48826  0.53175  0.29992  1.0000
  C   C12       1.0  0.50449  0.51804  0.33845  1.0000
  C   C13       1.0  0.50500  0.49030  0.33851  1.0000
  C   C14       1.0  0.52217  0.47590  0.31143  1.0000
  C   C15       1.0  0.52171  0.44863  0.31321  1.0000
  C   C16       1.0  0.50447  0.43459  0.34000  1.0000
  H   H3        1.0  0.53425  0.43894  0.29245  1.0000
  H   H4        1.0  0.47684  0.52175  0.27002  1.0000
  N   N3        1.0  0.53943  0.48887  0.27894  1.0000
  N   N4        1.0  0.47087  0.57147  0.25778  1.0000
  O   O5        1.0  0.54299  0.48335  0.19822  1.0000
  O   O6        1.0  0.45457  0.56604  0.29608  1.0000
  O   O7        1.0  0.55474  0.48374  0.32515  1.0000
  O   O8        1.0  0.46947  0.56604  0.17567  1.0000
  C   C17       1.0  0.07557  0.16113  0.31744  1.0000
  C   C18       1.0  0.05766  0.14658  0.31728  1.0000
  H   H5        1.0  0.08754  0.15465  0.28075  1.0000
  H   H6        1.0  0.05736  0.12999  0.28060  1.0000
  C   C19       1.0  0.10790  0.24434  0.33075  1.0000
  C   C20       1.0  0.09173  0.22704  0.33287  1.0000
  H   H7        1.0  0.10479  0.26278  0.31195  1.0000
  H   H8        1.0  0.07780  0.23373  0.31526  1.0000
  C   C21       1.0  0.93240  0.84751  0.31592  1.0000
  C   C22       1.0  0.95029  0.86209  0.31625  1.0000
  H   H9        1.0  0.92035  0.85423  0.28025  1.0000
  H   H10       1.0  0.95050  0.87892  0.28092  1.0000
  C   C23       1.0  0.89995  0.76432  0.32434  1.0000
  C   C24       1.0  0.91619  0.78155  0.32701  1.0000
  H   H11       1.0  0.90297  0.74598  0.30410  1.0000
  H   H12       1.0  0.93006  0.77491  0.30828  1.0000
  C   C25       1.0  0.96744  0.15627  0.33179  1.0000
  C   C26       1.0  0.96656  0.18062  0.28850  1.0000
  C   C27       1.0  0.94837  0.19485  0.28859  1.0000
  C   C28       1.0  0.93067  0.18593  0.33128  1.0000
  C   C29       1.0  0.91306  0.20202  0.33634  1.0000
  C   C30       1.0  0.89339  0.19403  0.31073  1.0000
  C   C31       1.0  0.87701  0.21164  0.31414  1.0000
  C   C32       1.0  0.87946  0.23743  0.34193  1.0000
  H   H13       1.0  0.86314  0.20558  0.29327  1.0000
  H   H14       1.0  0.94816  0.21226  0.25681  1.0000
  N   N5        1.0  0.89058  0.16880  0.27811  1.0000
  N   N6        1.0  0.98368  0.19039  0.24319  1.0000
  O   O9        1.0  0.88455  0.16878  0.19802  1.0000
  O   O10       1.0  0.98921  0.21155  0.27515  1.0000
  O   O11       1.0  0.87817  0.15665  0.32549  1.0000
  O   O12       1.0  0.98050  0.19309  0.16042  1.0000
  C   C33       1.0  0.04057  0.85274  0.32880  1.0000
  C   C34       1.0  0.04155  0.82863  0.28392  1.0000
  C   C35       1.0  0.05973  0.81438  0.28401  1.0000
  C   C36       1.0  0.07731  0.82304  0.32823  1.0000
  C   C37       1.0  0.09488  0.80689  0.33338  1.0000
  C   C38       1.0  0.11463  0.81493  0.30925  1.0000
  C   C39       1.0  0.13098  0.79727  0.31281  1.0000
  C   C40       1.0  0.12842  0.77140  0.33939  1.0000
  H   H15       1.0  0.14491  0.80340  0.29310  1.0000
  H   H16       1.0  0.06001  0.79713  0.25114  1.0000
  N   N7        1.0  0.11756  0.84029  0.27803  1.0000
  N   N8        1.0  0.02453  0.81913  0.23718  1.0000
  O   O13       1.0  0.12382  0.84060  0.19832  1.0000
  O   O14       1.0  0.01891  0.79781  0.26745  1.0000
  O   O15       1.0  0.12985  0.85222  0.32671  1.0000
  O   O16       1.0  0.02791  0.81687  0.15440  1.0000
  C   C41       1.0  0.57569  0.66142  0.31215  1.0000
  C   C42       1.0  0.55785  0.64673  0.31219  1.0000
  H   H17       1.0  0.58760  0.65511  0.27471  1.0000
  H   H18       1.0  0.55752  0.63026  0.27486  1.0000
  C   C43       1.0  0.60840  0.74442  0.32958  1.0000
  C   C44       1.0  0.59205  0.72735  0.33182  1.0000
  H   H19       1.0  0.60548  0.76303  0.31225  1.0000
  H   H20       1.0  0.57812  0.73436  0.31577  1.0000
  C   C45       1.0  0.43205  0.34728  0.31777  1.0000
  C   C46       1.0  0.44991  0.36192  0.31732  1.0000
  H   H21       1.0  0.41987  0.35402  0.28303  1.0000
  H   H22       1.0  0.44997  0.37883  0.28236  1.0000
  C   C47       1.0  0.39946  0.26413  0.32729  1.0000
  C   C48       1.0  0.41580  0.28121  0.32957  1.0000
  H   H23       1.0  0.40224  0.24577  0.30653  1.0000
  H   H24       1.0  0.42960  0.27446  0.31025  1.0000
  C   C49       1.0  0.46793  0.65659  0.32641  1.0000
  C   C50       1.0  0.46730  0.68096  0.28313  1.0000
  C   C51       1.0  0.44924  0.69548  0.28313  1.0000
  C   C52       1.0  0.43146  0.68684  0.32574  1.0000
  C   C53       1.0  0.41393  0.70307  0.33016  1.0000
  C   C54       1.0  0.39424  0.69497  0.30539  1.0000
  C   C55       1.0  0.37782  0.71247  0.30972  1.0000
  C   C56       1.0  0.38026  0.73829  0.33720  1.0000
  H   H25       1.0  0.36390  0.70624  0.29021  1.0000
  H   H26       1.0  0.44919  0.71288  0.25122  1.0000
  N   N9        1.0  0.39140  0.66973  0.27281  1.0000
  N   N10       1.0  0.48451  0.69050  0.23797  1.0000
  O   O17       1.0  0.38525  0.66973  0.19290  1.0000
  O   O18       1.0  0.49025  0.71155  0.27014  1.0000
  O   O19       1.0  0.37908  0.65752  0.32047  1.0000
  O   O20       1.0  0.48138  0.69330  0.15520  1.0000
  C   C57       1.0  0.54007  0.35223  0.32396  1.0000
  C   C58       1.0  0.54077  0.32826  0.27803  1.0000
  C   C59       1.0  0.55881  0.31371  0.27731  1.0000
  C   C60       1.0  0.57648  0.32191  0.32184  1.0000
  C   C61       1.0  0.59397  0.30558  0.32554  1.0000
  C   C62       1.0  0.61375  0.31382  0.30296  1.0000
  C   C63       1.0  0.63014  0.29624  0.30666  1.0000
  C   C64       1.0  0.62758  0.27022  0.33139  1.0000
  H   H27       1.0  0.64414  0.30261  0.28889  1.0000
  H   H28       1.0  0.55891  0.29661  0.24350  1.0000
  N   N11       1.0  0.61674  0.33932  0.27326  1.0000
  N   N12       1.0  0.52364  0.31923  0.23103  1.0000
  O   O21       1.0  0.62318  0.33998  0.19382  1.0000
  O   O22       1.0  0.51781  0.29789  0.26043  1.0000
  O   O23       1.0  0.62892  0.35108  0.32303  1.0000
  O   O24       1.0  0.52697  0.31720  0.14814  1.0000
  C   C65       1.0  0.35825  0.18320  0.33517  1.0000
  C   C66       1.0  0.34518  0.16411  0.29898  1.0000
  C   C67       1.0  0.35135  0.13808  0.29741  1.0000
  C   C68       1.0  0.37026  0.13042  0.33092  1.0000
  C   C69       1.0  0.37696  0.10457  0.32316  1.0000
  C   C70       1.0  0.39500  0.09857  0.27667  1.0000
  C   C71       1.0  0.40184  0.07293  0.27538  1.0000
  C   C72       1.0  0.39127  0.05285  0.31875  1.0000
  H   H29       1.0  0.41496  0.06911  0.24194  1.0000
  H   H30       1.0  0.34210  0.12468  0.26879  1.0000
  N   N13       1.0  0.40586  0.11804  0.23113  1.0000
  N   N14       1.0  0.32637  0.17106  0.26148  1.0000
  O   O25       1.0  0.40683  0.11374  0.14809  1.0000
  O   O26       1.0  0.31202  0.16046  0.30204  1.0000
  O   O27       1.0  0.42342  0.12029  0.26135  1.0000
  O   O28       1.0  0.32530  0.16565  0.17925  1.0000
  C   C73       1.0  0.65026  0.82489  0.33176  1.0000
  C   C74       1.0  0.66354  0.84385  0.29627  1.0000
  C   C75       1.0  0.65751  0.86994  0.29425  1.0000
  C   C76       1.0  0.63855  0.87779  0.32662  1.0000
  C   C77       1.0  0.63210  0.90375  0.31899  1.0000
  C   C78       1.0  0.61415  0.91010  0.27242  1.0000
  C   C79       1.0  0.60756  0.93585  0.27148  1.0000
  C   C80       1.0  0.61833  0.95569  0.31521  1.0000
  H   H31       1.0  0.59447  0.93995  0.23823  1.0000
  H   H32       1.0  0.66694  0.88325  0.26624  1.0000
  N   N15       1.0  0.60311  0.89086  0.22654  1.0000
  N   N16       1.0  0.68244  0.83676  0.26002  1.0000
  O   O29       1.0  0.60221  0.89528  0.14356  1.0000
  O   O30       1.0  0.69670  0.84724  0.30155  1.0000
  O   O31       1.0  0.58551  0.88887  0.25659  1.0000
  O   O32       1.0  0.68380  0.84216  0.17787  1.0000
  C   C81       1.0  0.62636  0.14688  0.30805  1.0000
  C   C82       1.0  0.63142  0.17304  0.31039  1.0000
  H   H33       1.0  0.61314  0.14153  0.27825  1.0000
  H   H34       1.0  0.62181  0.18570  0.28016  1.0000
  C   C83       1.0  0.62384  0.06432  0.25459  1.0000
  C   C84       1.0  0.63008  0.09002  0.25997  1.0000
  H   H35       1.0  0.62013  0.05686  0.19310  1.0000
  H   H36       1.0  0.63125  0.10034  0.20162  1.0000
  C   C85       1.0  0.38397  0.86086  0.33552  1.0000
  C   C86       1.0  0.37844  0.83486  0.33769  1.0000
  H   H37       1.0  0.39858  0.86541  0.32087  1.0000
  H   H38       1.0  0.38932  0.82166  0.32284  1.0000
  C   C87       1.0  0.39233  0.94072  0.26043  1.0000
  C   C88       1.0  0.38547  0.91537  0.26805  1.0000
  H   H39       1.0  0.40047  0.94580  0.20472  1.0000
  H   H40       1.0  0.38851  0.90295  0.21647  1.0000
  C   C89       1.0  0.86025  0.68276  0.33191  1.0000
  C   C90       1.0  0.84866  0.66473  0.28207  1.0000
  C   C91       1.0  0.85451  0.63860  0.28082  1.0000
  C   C92       1.0  0.87161  0.63002  0.32815  1.0000
  C   C93       1.0  0.87825  0.60424  0.32050  1.0000
  C   C94       1.0  0.89688  0.59846  0.27889  1.0000
  C   C95       1.0  0.90350  0.57275  0.27645  1.0000
  C   C96       1.0  0.89215  0.55242  0.31430  1.0000
  H   H41       1.0  0.91704  0.56908  0.24637  1.0000
  H   H42       1.0  0.84649  0.62587  0.24259  1.0000
  N   N17       1.0  0.90850  0.61830  0.23946  1.0000
  N   N18       1.0  0.83215  0.67316  0.22954  1.0000
  O   O33       1.0  0.91073  0.61486  0.15641  1.0000
  O   O34       1.0  0.81624  0.66156  0.24981  1.0000
  O   O35       1.0  0.92556  0.62002  0.27537  1.0000
  O   O36       1.0  0.83541  0.66991  0.14708  1.0000
  C   C97       1.0  0.14789  0.32576  0.33472  1.0000
  C   C98       1.0  0.15831  0.34251  0.27531  1.0000
  C   C99       1.0  0.15336  0.36891  0.27429  1.0000
  C   C100      1.0  0.13860  0.37897  0.33246  1.0000
  C   C101      1.0  0.13276  0.40498  0.32532  1.0000
  C   C102      1.0  0.11975  0.41297  0.25521  1.0000
  C   C103      1.0  0.11318  0.43872  0.25326  1.0000
  C   C104      1.0  0.11952  0.45673  0.31851  1.0000
  H   H43       1.0  0.10332  0.44418  0.20392  1.0000
  H   H44       1.0  0.16054  0.38083  0.22993  1.0000
  N   N19       1.0  0.11306  0.39500  0.19027  1.0000
  N   N20       1.0  0.17271  0.33252  0.21444  1.0000
  O   O37       1.0  0.11833  0.40148  0.11236  1.0000
  O   O38       1.0  0.18956  0.34304  0.22414  1.0000
  O   O39       1.0  0.09427  0.39252  0.19178  1.0000
  O   O40       1.0  0.16718  0.33545  0.13428  1.0000
  C   C105      1.0  0.12504  0.64789  0.31005  1.0000
  C   C106      1.0  0.13042  0.67395  0.31132  1.0000
  H   H45       1.0  0.11208  0.64267  0.27775  1.0000
  H   H46       1.0  0.12138  0.68668  0.27798  1.0000
  C   C107      1.0  0.12150  0.56573  0.25696  1.0000
  C   C108      1.0  0.12762  0.59143  0.26389  1.0000
  H   H47       1.0  0.11756  0.55864  0.19520  1.0000
  H   H48       1.0  0.12843  0.60209  0.20618  1.0000
  C   C109      1.0  0.88281  0.36091  0.30921  1.0000
  C   C110      1.0  0.87746  0.33484  0.31138  1.0000
  H   H49       1.0  0.89578  0.36606  0.27686  1.0000
  H   H50       1.0  0.88653  0.32204  0.27856  1.0000
  C   C111      1.0  0.88651  0.44293  0.25392  1.0000
  C   C112      1.0  0.88022  0.41730  0.26135  1.0000
  H   H51       1.0  0.89063  0.44982  0.19210  1.0000
  H   H52       1.0  0.87940  0.40653  0.20391  1.0000
  C   C113      1.0  0.45150  0.00324  0.31715  1.0000
  C   C114      1.0  0.46267  0.98318  0.27587  1.0000
  C   C115      1.0  0.48393  0.98457  0.27465  1.0000
  C   C116      1.0  0.49435  0.00533  0.31405  1.0000
  C   C117      1.0  0.51570  0.00610  0.31468  1.0000
  C   C118      1.0  0.52671  0.02760  0.28261  1.0000
  C   C119      1.0  0.54797  0.02732  0.28733  1.0000
  C   C120      1.0  0.55853  0.00593  0.32153  1.0000
  H   H53       1.0  0.55576  0.04273  0.26275  1.0000
  H   H54       1.0  0.49185  0.97026  0.24358  1.0000
  N   N21       1.0  0.51643  0.04859  0.24327  1.0000
  N   N22       1.0  0.45266  0.96234  0.23422  1.0000
  O   O41       1.0  0.52117  0.05143  0.16205  1.0000
  O   O42       1.0  0.45717  0.94136  0.27064  1.0000
  O   O43       1.0  0.51999  0.06915  0.28442  1.0000
  O   O44       1.0  0.45651  0.96100  0.15161  1.0000
  C   C121      1.0  0.95146  0.50126  0.30999  1.0000
  C   C122      1.0  0.96216  0.48188  0.26279  1.0000
  C   C123      1.0  0.98341  0.48311  0.25889  1.0000
  C   C124      1.0  0.99422  0.50307  0.30123  1.0000
  C   C125      1.0  0.01556  0.50375  0.29911  1.0000
  C   C126      1.0  0.02640  0.52585  0.27127  1.0000
  C   C127      1.0  0.04766  0.52573  0.27588  1.0000
  C   C128      1.0  0.05839  0.50400  0.30627  1.0000
  H   H55       1.0  0.05530  0.54173  0.25542  1.0000
  H   H56       1.0  0.99103  0.46935  0.22350  1.0000
  N   N23       1.0  0.01596  0.54745  0.23716  1.0000
  N   N24       1.0  0.95163  0.46207  0.21772  1.0000
  O   O45       1.0  0.02061  0.55188  0.15674  1.0000
  O   O46       1.0  0.95624  0.44038  0.24820  1.0000
  O   O47       1.0  0.01944  0.56722  0.28298  1.0000
  O   O48       1.0  0.95490  0.46235  0.13448  1.0000
  C   C129      1.0  0.22958  0.23608  0.35015  1.0000
  C   C130      1.0  0.20855  0.23996  0.34951  1.0000
  H   H57       1.0  0.23497  0.21839  0.33284  1.0000
  H   H58       1.0  0.19955  0.22509  0.32971  1.0000
  C   C131      1.0  0.29452  0.23799  0.28651  1.0000
  C   C132      1.0  0.27355  0.24076  0.29443  1.0000
  H   H59       1.0  0.30016  0.22845  0.23187  1.0000
  H   H60       1.0  0.26475  0.23363  0.24381  1.0000
  C   C133      1.0  0.77833  0.77184  0.34315  1.0000
  C   C134      1.0  0.79938  0.76821  0.34265  1.0000
  H   H61       1.0  0.77279  0.78900  0.32087  1.0000
  H   H62       1.0  0.80824  0.78260  0.31781  1.0000
  C   C135      1.0  0.71347  0.76831  0.28175  1.0000
  C   C136      1.0  0.73445  0.76570  0.29003  1.0000
  H   H63       1.0  0.70778  0.77681  0.22514  1.0000
  H   H64       1.0  0.74319  0.77184  0.23767  1.0000
  C   C137      1.0  0.80747  0.26377  0.31738  1.0000
  C   C138      1.0  0.79414  0.28252  0.28078  1.0000
  C   C139      1.0  0.77307  0.27843  0.28259  1.0000
  C   C140      1.0  0.76432  0.25559  0.31543  1.0000
  C   C141      1.0  0.74272  0.25257  0.31837  1.0000
  C   C142      1.0  0.72971  0.25996  0.24640  1.0000
  C   C143      1.0  0.70850  0.25766  0.25562  1.0000
  C   C144      1.0  0.69969  0.24741  0.33399  1.0000
  H   H65       1.0  0.69948  0.26233  0.20226  1.0000
  H   H66       1.0  0.76398  0.29293  0.26059  1.0000
  N   N25       1.0  0.73794  0.26815  0.16330  1.0000
  N   N26       1.0  0.80172  0.30495  0.23869  1.0000
  O   O49       1.0  0.73196  0.29023  0.14226  1.0000
  O   O50       1.0  0.79490  0.32512  0.27336  1.0000
  O   O51       1.0  0.73368  0.25298  0.10049  1.0000
  O   O52       1.0  0.79773  0.30520  0.15607  1.0000
  C   C145      1.0  0.20043  0.74501  0.31623  1.0000
  C   C146      1.0  0.21381  0.72617  0.28054  1.0000
  C   C147      1.0  0.23488  0.73025  0.28280  1.0000
  C   C148      1.0  0.24358  0.75317  0.31520  1.0000
  C   C149      1.0  0.26518  0.75617  0.31894  1.0000
  C   C150      1.0  0.27835  0.74852  0.24787  1.0000
  C   C151      1.0  0.29954  0.75079  0.25803  1.0000
  C   C152      1.0  0.30817  0.76128  0.33642  1.0000
  H   H67       1.0  0.30869  0.74593  0.20532  1.0000
  H   H68       1.0  0.24399  0.71569  0.26155  1.0000
  N   N27       1.0  0.27030  0.74009  0.16472  1.0000
  N   N28       1.0  0.20628  0.70364  0.23893  1.0000
  O   O53       1.0  0.27630  0.71793  0.14483  1.0000
  O   O54       1.0  0.21305  0.68355  0.27438  1.0000
  O   O55       1.0  0.27474  0.75505  0.10152  1.0000
  O   O56       1.0  0.21038  0.70319  0.15644  1.0000
  C   C153      1.0  0.98571  0.14171  0.33815  1.0000
  N   N29       1.0  0.98603  0.11557  0.33771  1.0000
  C   C154      1.0  0.00334  0.10152  0.34304  1.0000
  N   N30       1.0  0.02091  0.11500  0.35058  1.0000
  C   C155      1.0  0.02160  0.14114  0.35334  1.0000
  N   N31       1.0  0.00376  0.15372  0.34642  1.0000
  C   C156      1.0  0.02227  0.86721  0.33560  1.0000
  N   N32       1.0  0.02186  0.89335  0.33626  1.0000
  C   C157      1.0  0.00446  0.90718  0.34306  1.0000
  N   N33       1.0  0.98695  0.89358  0.35024  1.0000
  C   C158      1.0  0.98638  0.86744  0.35160  1.0000
  N   N34       1.0  0.00428  0.85503  0.34375  1.0000
  C   C159      1.0  0.48607  0.64179  0.33316  1.0000
  N   N35       1.0  0.48628  0.61565  0.33300  1.0000
  C   C160      1.0  0.50353  0.60148  0.33888  1.0000
  N   N36       1.0  0.52115  0.61488  0.34667  1.0000
  C   C161      1.0  0.52191  0.64102  0.34928  1.0000
  N   N37       1.0  0.50414  0.65369  0.34183  1.0000
  C   C162      1.0  0.52191  0.36691  0.33186  1.0000
  N   N38       1.0  0.52159  0.39306  0.33264  1.0000
  C   C163      1.0  0.50425  0.40698  0.34054  1.0000
  N   N39       1.0  0.48672  0.39344  0.34883  1.0000
  C   C164      1.0  0.48609  0.36729  0.35025  1.0000
  N   N40       1.0  0.50393  0.35482  0.34115  1.0000
  C   C165      1.0  0.39863  0.98248  0.32762  1.0000
  N   N41       1.0  0.38905  0.00562  0.32812  1.0000
  C   C166      1.0  0.39981  0.02787  0.32256  1.0000
  N   N42       1.0  0.42015  0.02606  0.31919  1.0000
  C   C167      1.0  0.43017  0.00350  0.31979  1.0000
  N   N43       1.0  0.41900  0.98184  0.32332  1.0000
  C   C168      1.0  0.61145  0.02599  0.32916  1.0000
  N   N44       1.0  0.62089  0.00280  0.32628  1.0000
  C   C169      1.0  0.60996  0.98072  0.32039  1.0000
  N   N45       1.0  0.58962  0.98273  0.31970  1.0000
  C   C170      1.0  0.57980  0.00541  0.32313  1.0000
  N   N46       1.0  0.59106  0.02704  0.32700  1.0000
  C   C171      1.0  0.89843  0.48189  0.32546  1.0000
  N   N47       1.0  0.88923  0.50526  0.32457  1.0000
  C   C172      1.0  0.90031  0.52719  0.31714  1.0000
  N   N48       1.0  0.92059  0.52476  0.31284  1.0000
  C   C173      1.0  0.93020  0.50192  0.31419  1.0000
  N   N49       1.0  0.91877  0.48051  0.32009  1.0000
  C   C174      1.0  0.11052  0.52631  0.32888  1.0000
  N   N50       1.0  0.12063  0.50360  0.33037  1.0000
  C   C175      1.0  0.11038  0.48114  0.32122  1.0000
  N   N51       1.0  0.09009  0.48196  0.31290  1.0000
  C   C176      1.0  0.07964  0.50423  0.31239  1.0000
  N   N52       1.0  0.09022  0.52636  0.31963  1.0000
  C   C177      1.0  0.14387  0.25533  0.35406  1.0000
  N   N53       1.0  0.16395  0.24956  0.36331  1.0000
  C   C178      1.0  0.17864  0.26809  0.36310  1.0000
  N   N54       1.0  0.17236  0.29257  0.35073  1.0000
  C   C179      1.0  0.15294  0.29948  0.34184  1.0000
  N   N55       1.0  0.13903  0.28060  0.34497  1.0000
  C   C180      1.0  0.86405  0.75332  0.34932  1.0000
  N   N56       1.0  0.84404  0.75912  0.36015  1.0000
  C   C181      1.0  0.82938  0.74057  0.36129  1.0000
  N   N57       1.0  0.83552  0.71601  0.34889  1.0000
  C   C182      1.0  0.85491  0.70906  0.33821  1.0000
  N   N58       1.0  0.86879  0.72804  0.33991  1.0000
  C   C183      1.0  0.86333  0.25584  0.34080  1.0000
  N   N59       1.0  0.84335  0.24996  0.32997  1.0000
  C   C184      1.0  0.82867  0.26844  0.32773  1.0000
  N   N60       1.0  0.83476  0.29310  0.33863  1.0000
  C   C185      1.0  0.85417  0.30018  0.34946  1.0000
  N   N61       1.0  0.86804  0.28116  0.34907  1.0000
  C   C186      1.0  0.14456  0.75299  0.33874  1.0000
  N   N62       1.0  0.16454  0.75885  0.32804  1.0000
  C   C187      1.0  0.17923  0.74036  0.32631  1.0000
  N   N63       1.0  0.17313  0.71572  0.33775  1.0000
  C   C188      1.0  0.15372  0.70867  0.34855  1.0000
  N   N64       1.0  0.13985  0.72769  0.34757  1.0000
  C   C189      1.0  0.64471  0.75425  0.34767  1.0000
  N   N65       1.0  0.66455  0.74727  0.35149  1.0000
  C   C190      1.0  0.67961  0.76503  0.34589  1.0000
  N   N66       1.0  0.67452  0.79011  0.33876  1.0000
  C   C191      1.0  0.65519  0.79824  0.33610  1.0000
  N   N67       1.0  0.64076  0.77982  0.34057  1.0000
  C   C192      1.0  0.36338  0.25388  0.35018  1.0000
  N   N68       1.0  0.34350  0.26069  0.35400  1.0000
  C   C193      1.0  0.32853  0.24278  0.34851  1.0000
  N   N69       1.0  0.33379  0.21775  0.34160  1.0000
  C   C194      1.0  0.35316  0.20980  0.33909  1.0000
  N   N70       1.0  0.36748  0.22835  0.34336  1.0000
  C   C195      1.0  0.36385  0.75623  0.33979  1.0000
  N   N71       1.0  0.34402  0.74931  0.33481  1.0000
  C   C196      1.0  0.32898  0.76707  0.34059  1.0000
  N   N72       1.0  0.33415  0.79210  0.34903  1.0000
  C   C197      1.0  0.35348  0.80031  0.35298  1.0000
  N   N73       1.0  0.36784  0.78177  0.34822  1.0000
  C   C198      1.0  0.64398  0.25226  0.33397  1.0000
  N   N74       1.0  0.66382  0.25923  0.33071  1.0000
  C   C199      1.0  0.67889  0.24150  0.33707  1.0000
  N   N75       1.0  0.67378  0.21643  0.34456  1.0000
  C   C200      1.0  0.65441  0.20833  0.34681  1.0000
  N   N76       1.0  0.63997  0.22671  0.34128  1.0000
  C   C201      1.0  0.01991  0.03302  0.38137  1.0000
  C   C202      1.0  0.01937  0.06005  0.38038  1.0000
  H   H69       1.0  0.03170  0.02421  0.41294  1.0000
  H   H70       1.0  0.03094  0.06961  0.41089  1.0000
  C   C203      1.0  0.98758  0.94929  0.36830  1.0000
  C   C204      1.0  0.98783  0.97633  0.36816  1.0000
  H   H71       1.0  0.97473  0.94027  0.38894  1.0000
  H   H72       1.0  0.97516  0.98573  0.38913  1.0000
  C   C205      1.0  0.51995  0.53290  0.37777  1.0000
  C   C206      1.0  0.51946  0.55994  0.37652  1.0000
  H   H73       1.0  0.53174  0.52409  0.40932  1.0000
  H   H74       1.0  0.53108  0.56947  0.40681  1.0000
  C   C207      1.0  0.48746  0.44920  0.36555  1.0000
  C   C208      1.0  0.48776  0.47624  0.36516  1.0000
  H   H75       1.0  0.47458  0.44023  0.38621  1.0000
  H   H76       1.0  0.47510  0.48569  0.38602  1.0000
  C   C209      1.0  0.04002  0.15533  0.36114  1.0000
  C   C210      1.0  0.04121  0.17891  0.40918  1.0000
  C   C211      1.0  0.05943  0.19309  0.40975  1.0000
  C   C212      1.0  0.07682  0.18488  0.36306  1.0000
  C   C213      1.0  0.09434  0.20112  0.35839  1.0000
  C   C214      1.0  0.11421  0.19298  0.37985  1.0000
  C   C215      1.0  0.13050  0.21076  0.37707  1.0000
  C   C216      1.0  0.12776  0.23686  0.35376  1.0000
  H   H77       1.0  0.14455  0.20451  0.39458  1.0000
  H   H78       1.0  0.05986  0.20998  0.44479  1.0000
  N   N77       1.0  0.11735  0.16733  0.40749  1.0000
  N   N78       1.0  0.02437  0.18797  0.45827  1.0000
  O   O57       1.0  0.12399  0.16622  0.48651  1.0000
  O   O58       1.0  0.01871  0.20962  0.43115  1.0000
  O   O59       1.0  0.12944  0.15598  0.35617  1.0000
  O   O60       1.0  0.02804  0.18934  0.54103  1.0000
  C   C217      1.0  0.96802  0.85311  0.35882  1.0000
  C   C218      1.0  0.96694  0.82921  0.40498  1.0000
  C   C219      1.0  0.94874  0.81499  0.40504  1.0000
  C   C220      1.0  0.93125  0.82349  0.35970  1.0000
  C   C221      1.0  0.91370  0.80731  0.35464  1.0000
  C   C222      1.0  0.89390  0.81540  0.37770  1.0000
  C   C223      1.0  0.87756  0.79770  0.37433  1.0000
  C   C224      1.0  0.88019  0.77174  0.34891  1.0000
  H   H79       1.0  0.86359  0.80388  0.39317  1.0000
  H   H80       1.0  0.94838  0.79788  0.43877  1.0000
  N   N79       1.0  0.89090  0.84086  0.40761  1.0000
  N   N80       1.0  0.98387  0.81988  0.45278  1.0000
  O   O61       1.0  0.88447  0.84147  0.48705  1.0000
  O   O62       1.0  0.98952  0.79841  0.42382  1.0000
  O   O63       1.0  0.87870  0.85260  0.35789  1.0000
  O   O64       1.0  0.98035  0.81798  0.53554  1.0000
  C   C225      1.0  0.93163  0.16149  0.37224  1.0000
  C   C226      1.0  0.94952  0.14691  0.37168  1.0000
  H   H81       1.0  0.91942  0.15443  0.40593  1.0000
  H   H82       1.0  0.94955  0.12970  0.40478  1.0000
  C   C227      1.0  0.89909  0.24474  0.36902  1.0000
  C   C228      1.0  0.91536  0.22758  0.36648  1.0000
  H   H83       1.0  0.90194  0.26296  0.39106  1.0000
  H   H84       1.0  0.92913  0.23412  0.38707  1.0000
  C   C229      1.0  0.07627  0.84725  0.37077  1.0000
  C   C230      1.0  0.05838  0.86186  0.37027  1.0000
  H   H85       1.0  0.08839  0.85411  0.40564  1.0000
  H   H86       1.0  0.05827  0.87886  0.40465  1.0000
  C   C231      1.0  0.10871  0.76403  0.36495  1.0000
  C   C232      1.0  0.09246  0.78123  0.36218  1.0000
  H   H87       1.0  0.10576  0.74574  0.38602  1.0000
  H   H88       1.0  0.07863  0.77464  0.38167  1.0000
  C   C233      1.0  0.54029  0.65523  0.35720  1.0000
  C   C234      1.0  0.54147  0.67870  0.40597  1.0000
  C   C235      1.0  0.55963  0.69299  0.40637  1.0000
  C   C236      1.0  0.57696  0.68501  0.35873  1.0000
  C   C237      1.0  0.59452  0.70120  0.35478  1.0000
  C   C238      1.0  0.61436  0.69261  0.37440  1.0000
  C   C239      1.0  0.63081  0.71011  0.37119  1.0000
  C   C240      1.0  0.62825  0.73636  0.34963  1.0000
  H   H89       1.0  0.64485  0.70348  0.38683  1.0000
  H   H90       1.0  0.56007  0.70975  0.44216  1.0000
  N   N81       1.0  0.61738  0.66681  0.40063  1.0000
  N   N82       1.0  0.52468  0.68750  0.45595  1.0000
  O   O65       1.0  0.62423  0.66531  0.47920  1.0000
  O   O66       1.0  0.51887  0.70917  0.42973  1.0000
  O   O67       1.0  0.62921  0.65547  0.34811  1.0000
  O   O68       1.0  0.52849  0.68868  0.53862  1.0000
  C   C241      1.0  0.46778  0.35292  0.35855  1.0000
  C   C242      1.0  0.46689  0.32892  0.40418  1.0000
  C   C243      1.0  0.44873  0.31463  0.40505  1.0000
  C   C244      1.0  0.43108  0.32316  0.36107  1.0000
  C   C245      1.0  0.41350  0.30702  0.35715  1.0000
  C   C246      1.0  0.39381  0.31529  0.38122  1.0000
  C   C247      1.0  0.37736  0.29781  0.37773  1.0000
  C   C248      1.0  0.37977  0.27186  0.35179  1.0000
  H   H91       1.0  0.36344  0.30415  0.39681  1.0000
  H   H92       1.0  0.44851  0.29747  0.43845  1.0000
  N   N83       1.0  0.39103  0.34069  0.41229  1.0000
  N   N84       1.0  0.48398  0.31953  0.45064  1.0000
  O   O69       1.0  0.38484  0.34108  0.49213  1.0000
  O   O70       1.0  0.48957  0.29814  0.42073  1.0000
  O   O71       1.0  0.37876  0.35272  0.36380  1.0000
  O   O72       1.0  0.48074  0.31743  0.53357  1.0000
  C   C249      1.0  0.43220  0.66240  0.36689  1.0000
  C   C250      1.0  0.44993  0.64752  0.36637  1.0000
  H   H93       1.0  0.41993  0.65553  0.40063  1.0000
  H   H94       1.0  0.44980  0.63034  0.39958  1.0000
  C   C251      1.0  0.39994  0.74588  0.36211  1.0000
  C   C252      1.0  0.41626  0.72876  0.35904  1.0000
  H   H95       1.0  0.40273  0.76415  0.38385  1.0000
  H   H96       1.0  0.43006  0.73539  0.37886  1.0000
  C   C253      1.0  0.57567  0.34596  0.36569  1.0000
  C   C254      1.0  0.55796  0.36088  0.36590  1.0000
  H   H97       1.0  0.58785  0.35247  0.40092  1.0000
  H   H98       1.0  0.55801  0.37773  0.40115  1.0000
  C   C255      1.0  0.60779  0.26249  0.35407  1.0000
  C   C256      1.0  0.59151  0.27966  0.35156  1.0000
  H   H99       1.0  0.60490  0.24406  0.37383  1.0000
  H   H100      1.0  0.57764  0.27291  0.36979  1.0000
  C   C257      1.0  0.38289  0.14932  0.36857  1.0000
  C   C258      1.0  0.37705  0.17518  0.37004  1.0000
  H   H101      1.0  0.39660  0.14443  0.39473  1.0000
  H   H102      1.0  0.38677  0.18809  0.39824  1.0000
  C   C259      1.0  0.37282  0.05892  0.36060  1.0000
  C   C260      1.0  0.36582  0.08442  0.36310  1.0000
  H   H103      1.0  0.36480  0.04505  0.39357  1.0000
  H   H104      1.0  0.35282  0.08830  0.39731  1.0000
  C   C261      1.0  0.62572  0.85901  0.36360  1.0000
  C   C262      1.0  0.63140  0.83310  0.36551  1.0000
  H   H105      1.0  0.61198  0.86404  0.38913  1.0000
  H   H106      1.0  0.62153  0.82030  0.39323  1.0000
  C   C263      1.0  0.63670  0.94928  0.35715  1.0000
  C   C264      1.0  0.64342  0.92366  0.35934  1.0000
  H   H107      1.0  0.64480  0.96295  0.39063  1.0000
  H   H108      1.0  0.65635  0.91953  0.39373  1.0000
  C   C265      1.0  0.64955  0.18166  0.35037  1.0000
  C   C266      1.0  0.66247  0.16303  0.39009  1.0000
  C   C267      1.0  0.65712  0.13672  0.38748  1.0000
  C   C268      1.0  0.63916  0.12828  0.34653  1.0000
  C   C269      1.0  0.63403  0.10172  0.34405  1.0000
  C   C270      1.0  0.63187  0.08688  0.42376  1.0000
  C   C271      1.0  0.62569  0.06093  0.41733  1.0000
  C   C272      1.0  0.62175  0.04947  0.33324  1.0000
  H   H109      1.0  0.62313  0.05074  0.47510  1.0000
  H   H110      1.0  0.66665  0.12353  0.41546  1.0000
  N   N85       1.0  0.63461  0.09861  0.50883  1.0000
  N   N86       1.0  0.68031  0.17069  0.43468  1.0000
  O   O73       1.0  0.64815  0.08761  0.55336  1.0000
  O   O74       1.0  0.69567  0.16095  0.39927  1.0000
  O   O75       1.0  0.61866  0.09856  0.55415  1.0000
  O   O76       1.0  0.67995  0.16490  0.51673  1.0000
  C   C273      1.0  0.35846  0.82707  0.35702  1.0000
  C   C274      1.0  0.34412  0.84668  0.37642  1.0000
  C   C275      1.0  0.34991  0.87284  0.37300  1.0000
  C   C276      1.0  0.36976  0.88038  0.35241  1.0000
  C   C277      1.0  0.37523  0.90686  0.34600  1.0000
  C   C278      1.0  0.37138  0.92488  0.41588  1.0000
  C   C279      1.0  0.37794  0.95065  0.40629  1.0000
  C   C280      1.0  0.38860  0.95869  0.32933  1.0000
  H   H111      1.0  0.37601  0.96315  0.45869  1.0000
  H   H112      1.0  0.33924  0.88660  0.38436  1.0000
  N   N87       1.0  0.36230  0.91656  0.49696  1.0000
  N   N88       1.0  0.32412  0.84039  0.40073  1.0000
  O   O77       1.0  0.34636  0.92866  0.51291  1.0000
  O   O78       1.0  0.31150  0.84950  0.34655  1.0000
  O   O79       1.0  0.37396  0.91907  0.56290  1.0000
  O   O80       1.0  0.31993  0.84789  0.47886  1.0000
  C   C281      1.0  0.88298  0.64805  0.37734  1.0000
  C   C282      1.0  0.87743  0.67402  0.37887  1.0000
  H   H113      1.0  0.89552  0.64243  0.41205  1.0000
  H   H114      1.0  0.88597  0.68643  0.41614  1.0000
  C   C283      1.0  0.87322  0.55844  0.35182  1.0000
  C   C284      1.0  0.86638  0.58399  0.35504  1.0000
  H   H115      1.0  0.86460  0.54442  0.38066  1.0000
  H   H116      1.0  0.85290  0.58780  0.38549  1.0000
  C   C285      1.0  0.12820  0.36221  0.39046  1.0000
  C   C286      1.0  0.13273  0.33588  0.39124  1.0000
  H   H117      1.0  0.11706  0.36897  0.43165  1.0000
  H   H118      1.0  0.12513  0.32426  0.43508  1.0000
  C   C287      1.0  0.13307  0.44871  0.38587  1.0000
  C   C288      1.0  0.13942  0.42297  0.38989  1.0000
  H   H119      1.0  0.13742  0.46108  0.43565  1.0000
  H   H120      1.0  0.14868  0.41738  0.44125  1.0000
  C   C289      1.0  0.14825  0.68233  0.35418  1.0000
  C   C290      1.0  0.16041  0.66380  0.39869  1.0000
  C   C291      1.0  0.15479  0.63759  0.39648  1.0000
  C   C292      1.0  0.13721  0.62920  0.35207  1.0000
  C   C293      1.0  0.13204  0.60261  0.34842  1.0000
  C   C294      1.0  0.13058  0.58706  0.42690  1.0000
  C   C295      1.0  0.12468  0.56103  0.41881  1.0000
  C   C296      1.0  0.12015  0.55022  0.33431  1.0000
  H   H121      1.0  0.12274  0.55029  0.47584  1.0000
  H   H122      1.0  0.16393  0.62444  0.42708  1.0000
  N   N89       1.0  0.13378  0.59806  0.51285  1.0000
  N   N90       1.0  0.17744  0.67166  0.44885  1.0000
  O   O81       1.0  0.14775  0.58693  0.55426  1.0000
  O   O82       1.0  0.19316  0.66036  0.42398  1.0000
  O   O83       1.0  0.11816  0.59730  0.56036  1.0000
  O   O84       1.0  0.17499  0.66741  0.53131  1.0000
  C   C297      1.0  0.85962  0.32654  0.35438  1.0000
  C   C298      1.0  0.84743  0.34518  0.39813  1.0000
  C   C299      1.0  0.85302  0.37139  0.39508  1.0000
  C   C300      1.0  0.87059  0.37970  0.35045  1.0000
  C   C301      1.0  0.87577  0.40628  0.34613  1.0000
  C   C302      1.0  0.87734  0.42193  0.42430  1.0000
  C   C303      1.0  0.88345  0.44787  0.41569  1.0000
  C   C304      1.0  0.88800  0.45854  0.33098  1.0000
  H   H123      1.0  0.88561  0.45861  0.47257  1.0000
  H   H124      1.0  0.84386  0.38462  0.42522  1.0000
  N   N91       1.0  0.87414  0.41108  0.51049  1.0000
  N   N92       1.0  0.83037  0.33743  0.44838  1.0000
  O   O85       1.0  0.86026  0.42241  0.55186  1.0000
  O   O86       1.0  0.81465  0.34863  0.42289  1.0000
  O   O87       1.0  0.88979  0.41174  0.55782  1.0000
  O   O88       1.0  0.83277  0.34192  0.53070  1.0000
  C   C305      1.0  0.48313  0.02482  0.35636  1.0000
  C   C306      1.0  0.46208  0.02390  0.35702  1.0000
  H   H125      1.0  0.49018  0.03972  0.38814  1.0000
  H   H126      1.0  0.45458  0.03838  0.38925  1.0000
  C   C307      1.0  0.54732  0.98465  0.35234  1.0000
  C   C308      1.0  0.52627  0.98481  0.34963  1.0000
  H   H127      1.0  0.55434  0.96889  0.37875  1.0000
  H   H128      1.0  0.51871  0.96922  0.37436  1.0000
  C   C309      1.0  0.98344  0.52178  0.34973  1.0000
  C   C310      1.0  0.96240  0.52104  0.35313  1.0000
  H   H129      1.0  0.99080  0.53601  0.38382  1.0000
  H   H130      1.0  0.95518  0.53497  0.38937  1.0000
  C   C311      1.0  0.04734  0.48202  0.33178  1.0000
  C   C312      1.0  0.02628  0.48196  0.32886  1.0000
  H   H131      1.0  0.05444  0.46601  0.35572  1.0000
  H   H132      1.0  0.01884  0.46594  0.35079  1.0000
  C   C313      1.0  0.19996  0.26396  0.37212  1.0000
  C   C314      1.0  0.21348  0.28392  0.39867  1.0000
  C   C315      1.0  0.23452  0.27984  0.39623  1.0000
  C   C316      1.0  0.24313  0.25601  0.37306  1.0000
  C   C317      1.0  0.26471  0.25309  0.36956  1.0000
  C   C318      1.0  0.27792  0.26288  0.43713  1.0000
  C   C319      1.0  0.29910  0.26074  0.42671  1.0000
  C   C320      1.0  0.30767  0.24834  0.35171  1.0000
  H   H133      1.0  0.30830  0.26715  0.47715  1.0000
  H   H134      1.0  0.24370  0.29502  0.41063  1.0000
  N   N93       1.0  0.26992  0.27341  0.51741  1.0000
  N   N94       1.0  0.20629  0.30787  0.43074  1.0000
  O   O89       1.0  0.27570  0.29610  0.52953  1.0000
  O   O90       1.0  0.21248  0.32641  0.38434  1.0000
  O   O91       1.0  0.27466  0.26031  0.58511  1.0000
  O   O92       1.0  0.21105  0.31160  0.51150  1.0000
  C   C321      1.0  0.80815  0.74489  0.37163  1.0000
  C   C322      1.0  0.79490  0.72552  0.40492  1.0000
  C   C323      1.0  0.77382  0.72928  0.40224  1.0000
  C   C324      1.0  0.76497  0.75234  0.37212  1.0000
  C   C325      1.0  0.74338  0.75494  0.36795  1.0000
  C   C326      1.0  0.73022  0.74651  0.43795  1.0000
  C   C327      1.0  0.70903  0.74843  0.42733  1.0000
  C   C328      1.0  0.70041  0.75928  0.34955  1.0000
  H   H135      1.0  0.69986  0.74308  0.47940  1.0000
  H   H136      1.0  0.76481  0.71438  0.42145  1.0000
  N   N95       1.0  0.73825  0.73762  0.52055  1.0000
  N   N96       1.0  0.80251  0.70269  0.44417  1.0000
  O   O93       1.0  0.73250  0.71520  0.53817  1.0000
  O   O94       1.0  0.79617  0.68287  0.40539  1.0000
  O   O95       1.0  0.73352  0.75200  0.58498  1.0000
  O   O96       1.0  0.79815  0.70124  0.52626  1.0000
  C   C329      1.0  0.77780  0.23668  0.34794  1.0000
  C   C330      1.0  0.79882  0.24066  0.34907  1.0000
  H   H137      1.0  0.77237  0.21968  0.37218  1.0000
  H   H138      1.0  0.80774  0.22669  0.37628  1.0000
  C   C331      1.0  0.71262  0.23931  0.40373  1.0000
  C   C332      1.0  0.73360  0.24234  0.39677  1.0000
  H   H139      1.0  0.70680  0.23126  0.46091  1.0000
  H   H140      1.0  0.74221  0.23691  0.45052  1.0000
  C   C333      1.0  0.23006  0.77217  0.34669  1.0000
  C   C334      1.0  0.20905  0.76820  0.34740  1.0000
  H   H141      1.0  0.23546  0.78923  0.37058  1.0000
  H   H142      1.0  0.20009  0.78224  0.37396  1.0000
  C   C335      1.0  0.29509  0.76959  0.40529  1.0000
  C   C336      1.0  0.27413  0.76660  0.39741  1.0000
  H   H143      1.0  0.30078  0.77777  0.46250  1.0000
  H   H144      1.0  0.26540  0.77218  0.45060  1.0000
