data_image0
_chemical_formula_structural       C15HNO2CHC3HNO2CHC3HNO2CHC3HNO2CHC3HNO2CHC3HNO2CHC3HNO2CHC3HNO2CHC3HNO2CHC3HNO2CHC3HNO2CHC3HNO2CHC3HNO2CHC3HNO2CHC3HNO2CHC3HNO2CHC3HNO2CHC3HNO2CHC3HNO2CHC3HNO2CHC3HNO2CHC3HNO2CHC3HNO2CHC3HNO2CHC3HNO2CHC3HNO2CHC3HNO2CHC3HNO2CHC3HNO2CHC3HNO2CHNCNCN5CNCN5CNCN5CNCN4CNCNCN4CNCNCN4CNCNCN4CNCNCN4CNCNCN4CNCNCN4CNCNCN4CNCNCN5CNCN5CNCN5CNCN5CNCN5CNCN5CNCN5CNCN5CNCN4C3HNO2CHC3HNO2CHC3HNO2CHC3HNO2CHC3HNO2CHC3HNO2CHC3HNO2CHC3HNO2CHC3HNO2CHC3HNO2CHC3HNO2CHC3HNO2CHC3HNO2CHC3HNO2CHC3HNO2CHC3HNO2CHC3HNO2CHC3HNO2CHC3HNO2CHC3HNO2CHC3HNO2CHC3HNO2CHC3HNO2CHC3HNO2CHC3HNO2CHC3HNO2CHC3HNO2CHC3HNO2CHC3HNO2CHC3HNO2CH
_chemical_formula_sum              "C300 H120 N180 O120"
_cell_length_a       66.7087
_cell_length_b       66.7087
_cell_length_c       14.6139
_cell_angle_alpha    90
_cell_angle_beta     90
_cell_angle_gamma    90

_space_group_name_H-M_alt    "P 1"
_space_group_IT_number       1

loop_
  _space_group_symop_operation_xyz
  'x, y, z'

loop_
  _atom_site_type_symbol
  _atom_site_label
  _atom_site_symmetry_multiplicity
  _atom_site_fract_x
  _atom_site_fract_y
  _atom_site_fract_z
  _atom_site_occupancy
  C   C1        1.0  0.25115  0.01777  0.35627  1.0000
  C   C2        1.0  0.77529  0.00864  0.35695  1.0000
  C   C3        1.0  0.00863  0.25113  0.35627  1.0000
  C   C4        1.0  0.01779  0.77527  0.35701  1.0000
  C   C5        1.0  0.36907  0.71404  0.35832  1.0000
  C   C6        1.0  0.65736  0.31241  0.35924  1.0000
  C   C7        1.0  0.71407  0.65737  0.35890  1.0000
  C   C8        1.0  0.31240  0.36906  0.35831  1.0000
  C   C9        1.0  0.45903  0.06503  0.35580  1.0000
  C   C10       1.0  0.56744  0.96139  0.35776  1.0000
  C   C11       1.0  0.96139  0.45902  0.35587  1.0000
  C   C12       1.0  0.06504  0.56743  0.35767  1.0000
  C   C13       1.0  0.37433  0.05802  0.35179  1.0000
  C   C14       1.0  0.36232  0.05187  0.27664  1.0000
  C   C15       1.0  0.34118  0.05096  0.28653  1.0000
  H   H1        1.0  0.33269  0.04691  0.23110  1.0000
  N   N1        1.0  0.37163  0.04721  0.19211  1.0000
  O   O1        1.0  0.36581  0.05869  0.12931  1.0000
  O   O2        1.0  0.36823  0.02941  0.16868  1.0000
  C   C16       1.0  0.39516  0.05801  0.34648  1.0000
  H   H2        1.0  0.40195  0.04546  0.32676  1.0000
  C   C17       1.0  0.65211  0.96841  0.35448  1.0000
  C   C18       1.0  0.66407  0.97443  0.27895  1.0000
  C   C19       1.0  0.68522  0.97534  0.28851  1.0000
  H   H3        1.0  0.69366  0.97930  0.23285  1.0000
  N   N2        1.0  0.65470  0.97896  0.19439  1.0000
  O   O3        1.0  0.66048  0.96737  0.13190  1.0000
  O   O4        1.0  0.65809  0.99672  0.17031  1.0000
  C   C20       1.0  0.63127  0.96841  0.34947  1.0000
  H   H4        1.0  0.62447  0.98097  0.32980  1.0000
  C   C21       1.0  0.96839  0.37432  0.35178  1.0000
  C   C22       1.0  0.97451  0.36232  0.27659  1.0000
  C   C23       1.0  0.97542  0.34118  0.28645  1.0000
  H   H5        1.0  0.97945  0.33270  0.23100  1.0000
  N   N3        1.0  0.97915  0.37164  0.19203  1.0000
  O   O5        1.0  0.96764  0.36581  0.12930  1.0000
  O   O6        1.0  0.99694  0.36824  0.16848  1.0000
  C   C24       1.0  0.96840  0.39516  0.34651  1.0000
  H   H6        1.0  0.98096  0.40195  0.32684  1.0000
  C   C25       1.0  0.05801  0.65209  0.35443  1.0000
  C   C26       1.0  0.05203  0.66405  0.27885  1.0000
  C   C27       1.0  0.05110  0.68519  0.28840  1.0000
  H   H7        1.0  0.04718  0.69364  0.23269  1.0000
  N   N4        1.0  0.04753  0.65468  0.19424  1.0000
  O   O7        1.0  0.05915  0.66046  0.13186  1.0000
  O   O8        1.0  0.02978  0.65807  0.17000  1.0000
  C   C28       1.0  0.05801  0.63125  0.34941  1.0000
  H   H8        1.0  0.04546  0.62445  0.32973  1.0000
  C   C29       1.0  0.19533  0.55687  0.35005  1.0000
  C   C30       1.0  0.18335  0.55952  0.27072  1.0000
  C   C31       1.0  0.16274  0.56431  0.28027  1.0000
  H   H9        1.0  0.15453  0.56720  0.22251  1.0000
  N   N5        1.0  0.19240  0.55816  0.18319  1.0000
  O   O9        1.0  0.18451  0.54454  0.13595  1.0000
  O   O10       1.0  0.19113  0.57441  0.14009  1.0000
  C   C32       1.0  0.21611  0.55662  0.34431  1.0000
  H   H10       1.0  0.22276  0.56940  0.32659  1.0000
  C   C33       1.0  0.83110  0.46950  0.35394  1.0000
  C   C34       1.0  0.84302  0.46698  0.27434  1.0000
  C   C35       1.0  0.86364  0.46218  0.28347  1.0000
  H   H11       1.0  0.87182  0.45938  0.22553  1.0000
  N   N6        1.0  0.83392  0.46847  0.18696  1.0000
  O   O11       1.0  0.84178  0.48215  0.14003  1.0000
  O   O12       1.0  0.83518  0.45228  0.14335  1.0000
  C   C36       1.0  0.81032  0.46972  0.34840  1.0000
  H   H12       1.0  0.80367  0.45684  0.33232  1.0000
  C   C37       1.0  0.55690  0.83109  0.34998  1.0000
  C   C38       1.0  0.55966  0.84306  0.27066  1.0000
  C   C39       1.0  0.56443  0.86368  0.28023  1.0000
  H   H13       1.0  0.56741  0.87186  0.22249  1.0000
  N   N7        1.0  0.55840  0.83400  0.18311  1.0000
  O   O13       1.0  0.54485  0.84189  0.13549  1.0000
  O   O14       1.0  0.57471  0.83527  0.14043  1.0000
  C   C40       1.0  0.55662  0.81031  0.34415  1.0000
  H   H14       1.0  0.56937  0.80366  0.32598  1.0000
  C   C41       1.0  0.46953  0.19531  0.35412  1.0000
  C   C42       1.0  0.46707  0.18337  0.27453  1.0000
  C   C43       1.0  0.46228  0.16275  0.28363  1.0000
  H   H15       1.0  0.45948  0.15458  0.22566  1.0000
  N   N8        1.0  0.46858  0.19247  0.18715  1.0000
  O   O15       1.0  0.48229  0.18462  0.14035  1.0000
  O   O16       1.0  0.45241  0.19120  0.14339  1.0000
  C   C44       1.0  0.46973  0.21609  0.34854  1.0000
  H   H16       1.0  0.45683  0.22273  0.33262  1.0000
  C   C45       1.0  0.20192  0.14010  0.35345  1.0000
  C   C46       1.0  0.20515  0.12758  0.27614  1.0000
  C   C47       1.0  0.21701  0.10995  0.28457  1.0000
  H   H17       1.0  0.21963  0.10149  0.22735  1.0000
  N   N9        1.0  0.19691  0.13325  0.19061  1.0000
  O   O17       1.0  0.21037  0.13621  0.13194  1.0000
  O   O18       1.0  0.18508  0.12015  0.16068  1.0000
  C   C48       1.0  0.18927  0.15686  0.34923  1.0000
  H   H18       1.0  0.17514  0.15471  0.33008  1.0000
  C   C49       1.0  0.82453  0.88633  0.35380  1.0000
  C   C50       1.0  0.82146  0.89902  0.27692  1.0000
  C   C51       1.0  0.80958  0.91663  0.28559  1.0000
  H   H19       1.0  0.80709  0.92522  0.22865  1.0000
  N   N10       1.0  0.82988  0.89353  0.19150  1.0000
  O   O19       1.0  0.81654  0.89070  0.13211  1.0000
  O   O20       1.0  0.84177  0.90669  0.16268  1.0000
  C   C52       1.0  0.83715  0.86955  0.34937  1.0000
  H   H20       1.0  0.85125  0.87168  0.32946  1.0000
  C   C53       1.0  0.88630  0.20191  0.35364  1.0000
  C   C54       1.0  0.89878  0.20519  0.27623  1.0000
  C   C55       1.0  0.91641  0.21704  0.28460  1.0000
  H   H21       1.0  0.92484  0.21970  0.22731  1.0000
  N   N11       1.0  0.89307  0.19698  0.19069  1.0000
  O   O21       1.0  0.89009  0.21047  0.13216  1.0000
  O   O22       1.0  0.90616  0.18516  0.16053  1.0000
  C   C56       1.0  0.86955  0.18926  0.34950  1.0000
  H   H22       1.0  0.87170  0.17513  0.33012  1.0000
  C   C57       1.0  0.14011  0.82450  0.35385  1.0000
  C   C58       1.0  0.12743  0.82142  0.27692  1.0000
  C   C59       1.0  0.10981  0.80956  0.28558  1.0000
  H   H23       1.0  0.10124  0.80704  0.22859  1.0000
  N   N12       1.0  0.13293  0.82983  0.19150  1.0000
  O   O23       1.0  0.13577  0.81648  0.13217  1.0000
  O   O24       1.0  0.11978  0.84172  0.16258  1.0000
  C   C60       1.0  0.15687  0.83714  0.34946  1.0000
  H   H24       1.0  0.15474  0.85124  0.32970  1.0000
  C   C61       1.0  0.30084  0.60412  0.35048  1.0000
  C   C62       1.0  0.30397  0.61670  0.27326  1.0000
  C   C63       1.0  0.31588  0.63429  0.28160  1.0000
  H   H25       1.0  0.31822  0.64292  0.22466  1.0000
  N   N13       1.0  0.29523  0.61132  0.18834  1.0000
  O   O25       1.0  0.30833  0.60849  0.12792  1.0000
  O   O26       1.0  0.28325  0.62452  0.16059  1.0000
  C   C64       1.0  0.28719  0.58820  0.34743  1.0000
  H   H26       1.0  0.27310  0.59175  0.33190  1.0000
  C   C65       1.0  0.72559  0.42233  0.35204  1.0000
  C   C66       1.0  0.72244  0.40980  0.27468  1.0000
  C   C67       1.0  0.71053  0.39221  0.28287  1.0000
  H   H27       1.0  0.70817  0.38361  0.22585  1.0000
  N   N14       1.0  0.73116  0.41523  0.18977  1.0000
  O   O27       1.0  0.71804  0.41810  0.12947  1.0000
  O   O28       1.0  0.74313  0.40204  0.16179  1.0000
  C   C68       1.0  0.73925  0.43825  0.34919  1.0000
  H   H28       1.0  0.75335  0.43469  0.33391  1.0000
  C   C69       1.0  0.60412  0.72556  0.35102  1.0000
  C   C70       1.0  0.61654  0.72225  0.27345  1.0000
  C   C71       1.0  0.63414  0.71035  0.28163  1.0000
  H   H29       1.0  0.64266  0.70787  0.22446  1.0000
  N   N15       1.0  0.61100  0.73081  0.18836  1.0000
  O   O29       1.0  0.60805  0.71757  0.12867  1.0000
  O   O30       1.0  0.62415  0.74272  0.15953  1.0000
  C   C72       1.0  0.58822  0.73924  0.34814  1.0000
  H   H30       1.0  0.59181  0.75334  0.33310  1.0000
  C   C73       1.0  0.42233  0.30082  0.35164  1.0000
  C   C74       1.0  0.40980  0.30396  0.27423  1.0000
  C   C75       1.0  0.39221  0.31587  0.28234  1.0000
  H   H31       1.0  0.38362  0.31822  0.22529  1.0000
  N   N16       1.0  0.41524  0.29522  0.18937  1.0000
  O   O31       1.0  0.41812  0.30834  0.12903  1.0000
  O   O32       1.0  0.40205  0.28325  0.16140  1.0000
  C   C76       1.0  0.43825  0.28717  0.34882  1.0000
  H   H32       1.0  0.43469  0.27307  0.33357  1.0000
  C   C77       1.0  0.24156  0.96347  0.35912  1.0000
  C   C78       1.0  0.23930  0.95305  0.27498  1.0000
  C   C79       1.0  0.23418  0.93235  0.27508  1.0000
  H   H33       1.0  0.23372  0.92493  0.21374  1.0000
  N   N17       1.0  0.24332  0.96329  0.19203  1.0000
  O   O33       1.0  0.22824  0.96333  0.14052  1.0000
  O   O34       1.0  0.25776  0.95552  0.14965  1.0000
  C   C80       1.0  0.25134  0.98203  0.36355  1.0000
  H   H34       1.0  0.26604  0.98148  0.37474  1.0000
  C   C81       1.0  0.78489  0.06294  0.36019  1.0000
  C   C82       1.0  0.78735  0.07328  0.27596  1.0000
  C   C83       1.0  0.79244  0.09399  0.27593  1.0000
  H   H35       1.0  0.79307  0.10136  0.21450  1.0000
  N   N18       1.0  0.78356  0.06295  0.19304  1.0000
  O   O35       1.0  0.79876  0.06288  0.14232  1.0000
  O   O36       1.0  0.76922  0.07065  0.14975  1.0000
  C   C84       1.0  0.77512  0.04437  0.36472  1.0000
  H   H36       1.0  0.76045  0.04491  0.37667  1.0000
  C   C85       1.0  0.06292  0.24150  0.35951  1.0000
  C   C86       1.0  0.07331  0.23900  0.27546  1.0000
  C   C87       1.0  0.09402  0.23390  0.27567  1.0000
  H   H37       1.0  0.10141  0.23323  0.21430  1.0000
  N   N19       1.0  0.06302  0.24276  0.19239  1.0000
  O   O37       1.0  0.06298  0.22753  0.14180  1.0000
  O   O38       1.0  0.07075  0.25708  0.14903  1.0000
  C   C88       1.0  0.04437  0.25130  0.36378  1.0000
  H   H38       1.0  0.04492  0.26600  0.37512  1.0000
  C   C89       1.0  0.96349  0.78488  0.35987  1.0000
  C   C90       1.0  0.95311  0.78725  0.27571  1.0000
  C   C91       1.0  0.93240  0.79238  0.27579  1.0000
  H   H39       1.0  0.92499  0.79291  0.21444  1.0000
  N   N20       1.0  0.96337  0.78333  0.19274  1.0000
  O   O39       1.0  0.96343  0.79848  0.14163  1.0000
  O   O40       1.0  0.95561  0.76895  0.14992  1.0000
  C   C92       1.0  0.98204  0.77509  0.36424  1.0000
  H   H40       1.0  0.98150  0.76040  0.37549  1.0000
  C   C93       1.0  0.29501  0.42134  0.36216  1.0000
  C   C94       1.0  0.29299  0.43181  0.27804  1.0000
  C   C95       1.0  0.28808  0.45257  0.27812  1.0000
  H   H41       1.0  0.28560  0.45950  0.21661  1.0000
  N   N21       1.0  0.29480  0.42105  0.19487  1.0000
  O   O41       1.0  0.30862  0.42806  0.14594  1.0000
  O   O42       1.0  0.27876  0.42142  0.14976  1.0000
  C   C96       1.0  0.29500  0.40036  0.36593  1.0000
  H   H42       1.0  0.28176  0.39385  0.37568  1.0000
  C   C97       1.0  0.73150  0.60510  0.36246  1.0000
  C   C98       1.0  0.73375  0.59463  0.27843  1.0000
  C   C99       1.0  0.73865  0.57387  0.27881  1.0000
  H   H43       1.0  0.74130  0.56693  0.21746  1.0000
  N   N22       1.0  0.73216  0.60539  0.19515  1.0000
  O   O43       1.0  0.71848  0.59838  0.14549  1.0000
  O   O44       1.0  0.74832  0.60501  0.15093  1.0000
  C   C100      1.0  0.73150  0.62608  0.36596  1.0000
  H   H44       1.0  0.74478  0.63260  0.37473  1.0000
  C   C101      1.0  0.42135  0.73144  0.36175  1.0000
  C   C102      1.0  0.43177  0.73372  0.27761  1.0000
  C   C103      1.0  0.45253  0.73860  0.27770  1.0000
  H   H45       1.0  0.45941  0.74129  0.21623  1.0000
  N   N23       1.0  0.42096  0.73216  0.19447  1.0000
  O   O45       1.0  0.42793  0.71849  0.14460  1.0000
  O   O46       1.0  0.42130  0.74833  0.15036  1.0000
  C   C104      1.0  0.40037  0.73145  0.36555  1.0000
  H   H46       1.0  0.39387  0.74472  0.37481  1.0000
  C   C105      1.0  0.60509  0.29501  0.36245  1.0000
  C   C106      1.0  0.59456  0.29281  0.27855  1.0000
  C   C107      1.0  0.57380  0.28791  0.27908  1.0000
  H   H47       1.0  0.56684  0.28528  0.21777  1.0000
  N   N24       1.0  0.60527  0.29446  0.19516  1.0000
  O   O47       1.0  0.59822  0.30818  0.14577  1.0000
  O   O48       1.0  0.60487  0.27833  0.15070  1.0000
  C   C108      1.0  0.62607  0.29497  0.36566  1.0000
  H   H48       1.0  0.63258  0.28167  0.37361  1.0000
  C   C109      1.0  0.26229  0.29462  0.35871  1.0000
  C   C110      1.0  0.25426  0.28697  0.27579  1.0000
  C   C111      1.0  0.23911  0.27200  0.27844  1.0000
  H   H49       1.0  0.23435  0.26588  0.21794  1.0000
  N   N25       1.0  0.26232  0.29367  0.19145  1.0000
  O   O49       1.0  0.24906  0.30158  0.14226  1.0000
  O   O50       1.0  0.27025  0.27954  0.14751  1.0000
  C   C112      1.0  0.28031  0.30525  0.36006  1.0000
  H   H50       1.0  0.29276  0.29708  0.36312  1.0000
  C   C113      1.0  0.76414  0.73185  0.35811  1.0000
  C   C114      1.0  0.77209  0.73967  0.27535  1.0000
  C   C115      1.0  0.78725  0.75463  0.27842  1.0000
  H   H51       1.0  0.79195  0.76090  0.21813  1.0000
  N   N26       1.0  0.76396  0.73316  0.19084  1.0000
  O   O51       1.0  0.77720  0.72534  0.14111  1.0000
  O   O52       1.0  0.75600  0.74737  0.14765  1.0000
  C   C116      1.0  0.74613  0.72119  0.35897  1.0000
  H   H52       1.0  0.73366  0.72937  0.36000  1.0000
  C   C117      1.0  0.73181  0.26231  0.35846  1.0000
  C   C118      1.0  0.73962  0.25444  0.27551  1.0000
  C   C119      1.0  0.75457  0.23926  0.27809  1.0000
  H   H53       1.0  0.76082  0.23465  0.21762  1.0000
  N   N27       1.0  0.73309  0.26266  0.19122  1.0000
  O   O53       1.0  0.72526  0.24949  0.14119  1.0000
  O   O54       1.0  0.74730  0.27067  0.14815  1.0000
  C   C120      1.0  0.72117  0.28032  0.35986  1.0000
  H   H54       1.0  0.72936  0.29278  0.36225  1.0000
  C   C121      1.0  0.29462  0.76415  0.35795  1.0000
  C   C122      1.0  0.28684  0.77218  0.27527  1.0000
  C   C123      1.0  0.27188  0.78735  0.27838  1.0000
  H   H55       1.0  0.26564  0.79207  0.21808  1.0000
  N   N28       1.0  0.29340  0.76412  0.19070  1.0000
  O   O55       1.0  0.30125  0.77739  0.14128  1.0000
  O   O56       1.0  0.27921  0.75620  0.14721  1.0000
  C   C124      1.0  0.30526  0.74613  0.35868  1.0000
  H   H56       1.0  0.29707  0.73367  0.35974  1.0000
  C   C125      1.0  0.52536  0.99562  0.34662  1.0000
  C   C126      1.0  0.51412  0.00273  0.27079  1.0000
  C   C127      1.0  0.50226  0.02026  0.28030  1.0000
  H   H57       1.0  0.49453  0.02543  0.22455  1.0000
  N   N29       1.0  0.51524  0.99242  0.18615  1.0000
  O   O57       1.0  0.52211  0.00346  0.12388  1.0000
  O   O58       1.0  0.49835  0.98601  0.16177  1.0000
  C   C128      1.0  0.53609  0.97779  0.34191  1.0000
  H   H58       1.0  0.52877  0.96545  0.32332  1.0000
  C   C129      1.0  0.03081  0.52533  0.34661  1.0000
  C   C130      1.0  0.02372  0.51405  0.27088  1.0000
  C   C131      1.0  0.00619  0.50220  0.28042  1.0000
  H   H59       1.0  0.00104  0.49443  0.22474  1.0000
  N   N30       1.0  0.03407  0.51511  0.18630  1.0000
  O   O59       1.0  0.02305  0.52194  0.12386  1.0000
  O   O60       1.0  0.04048  0.49821  0.16220  1.0000
  C   C132      1.0  0.04864  0.53607  0.34187  1.0000
  H   H60       1.0  0.06098  0.52876  0.32315  1.0000
  N   N31       1.0  0.23925  0.03448  0.35628  1.0000
  C   C133      1.0  0.24700  0.05346  0.35851  1.0000
  N   N32       1.0  0.26733  0.05533  0.35969  1.0000
  C   C134      1.0  0.27982  0.03919  0.35945  1.0000
  N   N33       1.0  0.27143  0.02062  0.35727  1.0000
  N   N34       1.0  0.24287  0.99935  0.35403  1.0000
  N   N35       1.0  0.29974  0.04092  0.35834  1.0000
  N   N36       1.0  0.23494  0.06964  0.35739  1.0000
  N   N37       1.0  0.78718  0.99192  0.35682  1.0000
  C   C135      1.0  0.77943  0.97294  0.35923  1.0000
  N   N38       1.0  0.75909  0.97109  0.36070  1.0000
  C   C136      1.0  0.74662  0.98722  0.36060  1.0000
  N   N39       1.0  0.75501  0.00579  0.35824  1.0000
  N   N40       1.0  0.78357  0.02706  0.35457  1.0000
  N   N41       1.0  0.72669  0.98549  0.35975  1.0000
  N   N42       1.0  0.79148  0.95676  0.35801  1.0000
  N   N43       1.0  0.99191  0.23924  0.35630  1.0000
  C   C137      1.0  0.97293  0.24699  0.35851  1.0000
  N   N44       1.0  0.97108  0.26733  0.35965  1.0000
  C   C138      1.0  0.98722  0.27981  0.35936  1.0000
  N   N45       1.0  0.00578  0.27141  0.35722  1.0000
  N   N46       1.0  0.02705  0.24285  0.35409  1.0000
  N   N47       1.0  0.98549  0.29974  0.35827  1.0000
  N   N48       1.0  0.95676  0.23493  0.35745  1.0000
  N   N49       1.0  0.03450  0.78717  0.35691  1.0000
  C   C139      1.0  0.05348  0.77941  0.35926  1.0000
  N   N50       1.0  0.05534  0.75908  0.36067  1.0000
  C   C140      1.0  0.03920  0.74660  0.36053  1.0000
  N   N51       1.0  0.02063  0.75500  0.35824  1.0000
  N   N52       1.0  0.99937  0.78356  0.35471  1.0000
  N   N53       1.0  0.04093  0.72667  0.35969  1.0000
  N   N54       1.0  0.06966  0.79147  0.35805  1.0000
  C   C141      1.0  0.27539  0.51772  0.36252  1.0000
  N   N55       1.0  0.28732  0.53441  0.36252  1.0000
  C   C142      1.0  0.27960  0.55340  0.36042  1.0000
  N   N56       1.0  0.25927  0.55526  0.35942  1.0000
  C   C143      1.0  0.24674  0.53915  0.35964  1.0000
  N   N57       1.0  0.25512  0.52057  0.36169  1.0000
  N   N58       1.0  0.28365  0.49929  0.36474  1.0000
  N   N59       1.0  0.22681  0.54096  0.36107  1.0000
  N   N60       1.0  0.29166  0.56957  0.36159  1.0000
  C   C144      1.0  0.75106  0.50873  0.36407  1.0000
  N   N61       1.0  0.73912  0.49205  0.36400  1.0000
  C   C145      1.0  0.74683  0.47305  0.36214  1.0000
  N   N62       1.0  0.76716  0.47118  0.36144  1.0000
  C   C146      1.0  0.77970  0.48729  0.36174  1.0000
  N   N63       1.0  0.77133  0.50587  0.36350  1.0000
  N   N64       1.0  0.74281  0.52716  0.36602  1.0000
  N   N65       1.0  0.79963  0.48547  0.36333  1.0000
  N   N66       1.0  0.73477  0.45688  0.36318  1.0000
  C   C147      1.0  0.51773  0.75104  0.36279  1.0000
  N   N67       1.0  0.53442  0.73911  0.36279  1.0000
  C   C148      1.0  0.55341  0.74683  0.36073  1.0000
  N   N68       1.0  0.55528  0.76716  0.35971  1.0000
  C   C149      1.0  0.53917  0.77968  0.35993  1.0000
  N   N69       1.0  0.52059  0.77132  0.36198  1.0000
  N   N70       1.0  0.49930  0.74279  0.36498  1.0000
  N   N71       1.0  0.54099  0.79962  0.36138  1.0000
  N   N72       1.0  0.56958  0.73476  0.36183  1.0000
  C   C150      1.0  0.50873  0.27537  0.36383  1.0000
  N   N73       1.0  0.49204  0.28731  0.36367  1.0000
  C   C151      1.0  0.47305  0.27959  0.36185  1.0000
  N   N74       1.0  0.47118  0.25926  0.36125  1.0000
  C   C152      1.0  0.48729  0.24673  0.36162  1.0000
  N   N75       1.0  0.50587  0.25510  0.36335  1.0000
  N   N76       1.0  0.52716  0.28363  0.36567  1.0000
  N   N77       1.0  0.48549  0.22679  0.36327  1.0000
  N   N78       1.0  0.45687  0.29165  0.36283  1.0000
  C   C153      1.0  0.15734  0.21400  0.36118  1.0000
  N   N79       1.0  0.16582  0.19535  0.36214  1.0000
  C   C154      1.0  0.18615  0.19265  0.36285  1.0000
  N   N80       1.0  0.19794  0.20928  0.36326  1.0000
  C   C155      1.0  0.19027  0.22823  0.36211  1.0000
  N   N81       1.0  0.16993  0.23019  0.36135  1.0000
  N   N82       1.0  0.13722  0.21568  0.36221  1.0000
  N   N83       1.0  0.20184  0.24471  0.36252  1.0000
  N   N84       1.0  0.19545  0.17486  0.36483  1.0000
  C   C156      1.0  0.86910  0.81242  0.36152  1.0000
  N   N85       1.0  0.86062  0.83107  0.36261  1.0000
  C   C157      1.0  0.84029  0.83377  0.36332  1.0000
  N   N86       1.0  0.82850  0.81715  0.36367  1.0000
  C   C158      1.0  0.83616  0.79819  0.36242  1.0000
  N   N87       1.0  0.85650  0.79624  0.36160  1.0000
  N   N88       1.0  0.88921  0.81073  0.36258  1.0000
  N   N89       1.0  0.82459  0.78171  0.36263  1.0000
  N   N90       1.0  0.83100  0.85157  0.36547  1.0000
  C   C159      1.0  0.81241  0.15733  0.36157  1.0000
  N   N91       1.0  0.83106  0.16581  0.36253  1.0000
  C   C160      1.0  0.83376  0.18613  0.36314  1.0000
  N   N92       1.0  0.81713  0.19793  0.36355  1.0000
  C   C161      1.0  0.79817  0.19026  0.36245  1.0000
  N   N93       1.0  0.79622  0.16992  0.36176  1.0000
  N   N94       1.0  0.81071  0.13721  0.36274  1.0000
  N   N95       1.0  0.78170  0.20183  0.36288  1.0000
  N   N96       1.0  0.85155  0.19543  0.36515  1.0000
  C   C162      1.0  0.21401  0.86908  0.36128  1.0000
  N   N97       1.0  0.19536  0.86060  0.36247  1.0000
  C   C163      1.0  0.19266  0.84028  0.36317  1.0000
  N   N98       1.0  0.20928  0.82848  0.36341  1.0000
  C   C164      1.0  0.22824  0.83615  0.36207  1.0000
  N   N99       1.0  0.23019  0.85649  0.36126  1.0000
  N   N100      1.0  0.21570  0.88920  0.36238  1.0000
  N   N101      1.0  0.24472  0.82458  0.36219  1.0000
  N   N102      1.0  0.17486  0.83098  0.36535  1.0000
  N   N103      1.0  0.36060  0.69539  0.35719  1.0000
  C   C165      1.0  0.34028  0.69268  0.35653  1.0000
  N   N104      1.0  0.32847  0.70930  0.35634  1.0000
  C   C166      1.0  0.33613  0.72826  0.35761  1.0000
  N   N105      1.0  0.35647  0.73023  0.35834  1.0000
  N   N106      1.0  0.38918  0.71574  0.35719  1.0000
  N   N107      1.0  0.32456  0.74474  0.35752  1.0000
  N   N108      1.0  0.33099  0.67488  0.35451  1.0000
  N   N109      1.0  0.66584  0.33106  0.35832  1.0000
  C   C167      1.0  0.68616  0.33378  0.35752  1.0000
  N   N110      1.0  0.69796  0.31715  0.35702  1.0000
  C   C168      1.0  0.69030  0.29819  0.35814  1.0000
  N   N111      1.0  0.66997  0.29623  0.35897  1.0000
  N   N112      1.0  0.63725  0.31072  0.35839  1.0000
  N   N113      1.0  0.70187  0.28172  0.35769  1.0000
  N   N114      1.0  0.69544  0.35158  0.35555  1.0000
  N   N115      1.0  0.69541  0.66583  0.35777  1.0000
  C   C169      1.0  0.69270  0.68615  0.35702  1.0000
  N   N116      1.0  0.70932  0.69796  0.35677  1.0000
  C   C170      1.0  0.72828  0.69031  0.35807  1.0000
  N   N117      1.0  0.73025  0.66997  0.35889  1.0000
  N   N118      1.0  0.71578  0.63726  0.35795  1.0000
  N   N119      1.0  0.74475  0.70189  0.35791  1.0000
  N   N120      1.0  0.67489  0.69543  0.35493  1.0000
  N   N121      1.0  0.33106  0.36059  0.35743  1.0000
  C   C171      1.0  0.33377  0.34027  0.35690  1.0000
  N   N122      1.0  0.31714  0.32846  0.35654  1.0000
  C   C172      1.0  0.29818  0.33612  0.35758  1.0000
  N   N123      1.0  0.29622  0.35646  0.35819  1.0000
  N   N124      1.0  0.31070  0.38917  0.35715  1.0000
  N   N125      1.0  0.28171  0.32455  0.35719  1.0000
  N   N126      1.0  0.35157  0.33098  0.35498  1.0000
  N   N127      1.0  0.43896  0.06141  0.35717  1.0000
  C   C173      1.0  0.42536  0.07664  0.36036  1.0000
  N   N128      1.0  0.43231  0.09578  0.36206  1.0000
  C   C174      1.0  0.45231  0.10001  0.36016  1.0000
  N   N129      1.0  0.46543  0.08444  0.35672  1.0000
  N   N130      1.0  0.47145  0.04943  0.35301  1.0000
  N   N131      1.0  0.45950  0.11865  0.35891  1.0000
  N   N132      1.0  0.40561  0.07384  0.36289  1.0000
  N   N133      1.0  0.58750  0.96499  0.36137  1.0000
  C   C175      1.0  0.60110  0.94975  0.36244  1.0000
  N   N134      1.0  0.59415  0.93061  0.36102  1.0000
  C   C176      1.0  0.57417  0.92639  0.35771  1.0000
  N   N135      1.0  0.56104  0.94198  0.35583  1.0000
  N   N136      1.0  0.55502  0.97700  0.35878  1.0000
  N   N137      1.0  0.56697  0.90776  0.35514  1.0000
  N   N138      1.0  0.62085  0.95254  0.36540  1.0000
  N   N139      1.0  0.96500  0.43896  0.35722  1.0000
  C   C177      1.0  0.94977  0.42536  0.36038  1.0000
  N   N140      1.0  0.93063  0.43231  0.36207  1.0000
  C   C178      1.0  0.92640  0.45231  0.36017  1.0000
  N   N141      1.0  0.94197  0.46543  0.35678  1.0000
  N   N142      1.0  0.97698  0.47145  0.35309  1.0000
  N   N143      1.0  0.90776  0.45951  0.35894  1.0000
  N   N144      1.0  0.95257  0.40561  0.36289  1.0000
  N   N145      1.0  0.06143  0.58748  0.36131  1.0000
  C   C179      1.0  0.07668  0.60108  0.36237  1.0000
  N   N146      1.0  0.09582  0.59414  0.36090  1.0000
  C   C180      1.0  0.10003  0.57415  0.35757  1.0000
  N   N147      1.0  0.08445  0.56102  0.35571  1.0000
  N   N148      1.0  0.04943  0.55500  0.35876  1.0000
  N   N149      1.0  0.11867  0.56695  0.35500  1.0000
  N   N150      1.0  0.07388  0.62083  0.36534  1.0000
  C   C181      1.0  0.33160  0.05591  0.36985  1.0000
  C   C182      1.0  0.34362  0.06215  0.44485  1.0000
  C   C183      1.0  0.36476  0.06300  0.43505  1.0000
  H   H61       1.0  0.37323  0.06720  0.49027  1.0000
  N   N151      1.0  0.33431  0.06714  0.52902  1.0000
  O   O61       1.0  0.34012  0.05587  0.59264  1.0000
  O   O62       1.0  0.33777  0.08501  0.55115  1.0000
  C   C184      1.0  0.31076  0.05641  0.37445  1.0000
  H   H62       1.0  0.30435  0.06931  0.39213  1.0000
  C   C185      1.0  0.69484  0.97052  0.37186  1.0000
  C   C186      1.0  0.68287  0.96441  0.44725  1.0000
  C   C187      1.0  0.66173  0.96355  0.43778  1.0000
  H   H63       1.0  0.65328  0.95945  0.49324  1.0000
  N   N152      1.0  0.69223  0.95955  0.53146  1.0000
  O   O63       1.0  0.68646  0.97093  0.59477  1.0000
  O   O64       1.0  0.68878  0.94172  0.55423  1.0000
  C   C188      1.0  0.71568  0.97002  0.37621  1.0000
  H   H64       1.0  0.72210  0.95713  0.39405  1.0000
  C   C189      1.0  0.97051  0.33160  0.36981  1.0000
  C   C190      1.0  0.96430  0.34361  0.44486  1.0000
  C   C191      1.0  0.96343  0.36475  0.43508  1.0000
  H   H65       1.0  0.95926  0.37322  0.49034  1.0000
  N   N153      1.0  0.95935  0.33430  0.52908  1.0000
  O   O65       1.0  0.97064  0.34012  0.59260  1.0000
  O   O66       1.0  0.94149  0.33776  0.55137  1.0000
  C   C192      1.0  0.97001  0.31076  0.37441  1.0000
  H   H66       1.0  0.95710  0.30435  0.39213  1.0000
  C   C193      1.0  0.05589  0.69482  0.37179  1.0000
  C   C194      1.0  0.06198  0.68285  0.44721  1.0000
  C   C195      1.0  0.06284  0.66171  0.43776  1.0000
  H   H67       1.0  0.06693  0.65327  0.49325  1.0000
  N   N154      1.0  0.06681  0.69222  0.53145  1.0000
  O   O67       1.0  0.05542  0.68645  0.59469  1.0000
  O   O68       1.0  0.08464  0.68876  0.55432  1.0000
  C   C196      1.0  0.05640  0.71566  0.37611  1.0000
  H   H68       1.0  0.06929  0.72207  0.39387  1.0000
  C   C197      1.0  0.15384  0.56694  0.36721  1.0000
  C   C198      1.0  0.16571  0.56389  0.44657  1.0000
  C   C199      1.0  0.18624  0.55873  0.43702  1.0000
  H   H69       1.0  0.19487  0.55763  0.49480  1.0000
  N   N155      1.0  0.15701  0.56686  0.53404  1.0000
  O   O69       1.0  0.15783  0.55119  0.58161  1.0000
  O   O70       1.0  0.16548  0.58082  0.57691  1.0000
  C   C200      1.0  0.13520  0.57609  0.37318  1.0000
  H   H70       1.0  0.13494  0.59034  0.39332  1.0000
  C   C201      1.0  0.87259  0.45944  0.37025  1.0000
  C   C202      1.0  0.86078  0.46238  0.44988  1.0000
  C   C203      1.0  0.84025  0.46752  0.44075  1.0000
  H   H71       1.0  0.83165  0.46856  0.49865  1.0000
  N   N156      1.0  0.86955  0.45929  0.53711  1.0000
  O   O71       1.0  0.86875  0.47489  0.58515  1.0000
  O   O72       1.0  0.86112  0.44527  0.57968  1.0000
  C   C204      1.0  0.89122  0.45026  0.37549  1.0000
  H   H72       1.0  0.89143  0.43583  0.39291  1.0000
  C   C205      1.0  0.56695  0.87259  0.36721  1.0000
  C   C206      1.0  0.56380  0.86074  0.44654  1.0000
  C   C207      1.0  0.55866  0.84021  0.43693  1.0000
  H   H73       1.0  0.55745  0.83160  0.49471  1.0000
  N   N157      1.0  0.56666  0.86946  0.53403  1.0000
  O   O73       1.0  0.55093  0.86866  0.58120  1.0000
  O   O74       1.0  0.58056  0.86100  0.57731  1.0000
  C   C208      1.0  0.57610  0.89123  0.37318  1.0000
  H   H74       1.0  0.59036  0.89147  0.39322  1.0000
  C   C209      1.0  0.45944  0.15382  0.37037  1.0000
  C   C210      1.0  0.46232  0.16564  0.45002  1.0000
  C   C211      1.0  0.46750  0.18617  0.44090  1.0000
  H   H75       1.0  0.46845  0.19478  0.49879  1.0000
  N   N158      1.0  0.45915  0.15690  0.53723  1.0000
  O   O75       1.0  0.47471  0.15768  0.58554  1.0000
  O   O76       1.0  0.44510  0.16536  0.57952  1.0000
  C   C212      1.0  0.45026  0.13519  0.37562  1.0000
  H   H76       1.0  0.43585  0.13497  0.39324  1.0000
  C   C213      1.0  0.22573  0.10415  0.36871  1.0000
  C   C214      1.0  0.22267  0.11679  0.44581  1.0000
  C   C215      1.0  0.21073  0.13435  0.43750  1.0000
  H   H77       1.0  0.20844  0.14303  0.49436  1.0000
  N   N159      1.0  0.23151  0.11148  0.53062  1.0000
  O   O77       1.0  0.21847  0.10867  0.59137  1.0000
  O   O78       1.0  0.24351  0.12471  0.55791  1.0000
  C   C216      1.0  0.23940  0.08825  0.37168  1.0000
  H   H78       1.0  0.25348  0.09181  0.38728  1.0000
  C   C217      1.0  0.80066  0.92223  0.36957  1.0000
  C   C218      1.0  0.80356  0.90944  0.44626  1.0000
  C   C219      1.0  0.81552  0.89189  0.43769  1.0000
  H   H79       1.0  0.81769  0.88310  0.49427  1.0000
  N   N160      1.0  0.79456  0.91457  0.53092  1.0000
  O   O79       1.0  0.80747  0.91726  0.59233  1.0000
  O   O80       1.0  0.78251  0.90128  0.55714  1.0000
  C   C220      1.0  0.78702  0.93816  0.37269  1.0000
  H   H80       1.0  0.77296  0.93464  0.38875  1.0000
  C   C221      1.0  0.92224  0.22573  0.36877  1.0000
  C   C222      1.0  0.90965  0.22263  0.44597  1.0000
  C   C223      1.0  0.89209  0.21068  0.43772  1.0000
  H   H81       1.0  0.88345  0.20836  0.49465  1.0000
  N   N161      1.0  0.91500  0.23143  0.53080  1.0000
  O   O81       1.0  0.91785  0.21836  0.59139  1.0000
  O   O82       1.0  0.90178  0.24341  0.55836  1.0000
  C   C224      1.0  0.93814  0.23941  0.37163  1.0000
  H   H82       1.0  0.93458  0.25349  0.38708  1.0000
  C   C225      1.0  0.10419  0.80065  0.36957  1.0000
  C   C226      1.0  0.11696  0.80358  0.44632  1.0000
  C   C227      1.0  0.13451  0.81553  0.43777  1.0000
  H   H83       1.0  0.14329  0.81772  0.49439  1.0000
  N   N162      1.0  0.11180  0.79460  0.53102  1.0000
  O   O83       1.0  0.10910  0.80754  0.59230  1.0000
  O   O84       1.0  0.12508  0.78256  0.55741  1.0000
  C   C228      1.0  0.08827  0.78700  0.37272  1.0000
  H   H84       1.0  0.09179  0.77294  0.38875  1.0000
  C   C229      1.0  0.32459  0.64011  0.36576  1.0000
  C   C230      1.0  0.32130  0.62763  0.44317  1.0000
  C   C231      1.0  0.30947  0.60998  0.43473  1.0000
  H   H85       1.0  0.30680  0.60155  0.49201  1.0000
  N   N163      1.0  0.32945  0.63337  0.52878  1.0000
  O   O85       1.0  0.31593  0.63635  0.58714  1.0000
  O   O86       1.0  0.34127  0.62031  0.55913  1.0000
  C   C232      1.0  0.33720  0.65689  0.36998  1.0000
  H   H86       1.0  0.35135  0.65475  0.38903  1.0000
  C   C233      1.0  0.70184  0.38634  0.36702  1.0000
  C   C234      1.0  0.70517  0.39877  0.44458  1.0000
  C   C235      1.0  0.71699  0.41642  0.43628  1.0000
  H   H87       1.0  0.71969  0.42482  0.49365  1.0000
  N   N164      1.0  0.69704  0.39298  0.53017  1.0000
  O   O87       1.0  0.71059  0.38995  0.58839  1.0000
  O   O88       1.0  0.68524  0.40602  0.56080  1.0000
  C   C236      1.0  0.68922  0.36957  0.37113  1.0000
  H   H88       1.0  0.67508  0.37170  0.39034  1.0000
  C   C237      1.0  0.64013  0.70184  0.36598  1.0000
  C   C238      1.0  0.62781  0.70533  0.44375  1.0000
  C   C239      1.0  0.61015  0.71714  0.43546  1.0000
  H   H89       1.0  0.60185  0.71996  0.49298  1.0000
  N   N165      1.0  0.63373  0.69737  0.52951  1.0000
  O   O89       1.0  0.63683  0.71103  0.58709  1.0000
  O   O90       1.0  0.62072  0.68563  0.56098  1.0000
  C   C240      1.0  0.65689  0.68921  0.37009  1.0000
  H   H90       1.0  0.65474  0.67505  0.38901  1.0000
  C   C241      1.0  0.38633  0.32458  0.36644  1.0000
  C   C242      1.0  0.39876  0.32128  0.44402  1.0000
  C   C243      1.0  0.41642  0.30945  0.43581  1.0000
  H   H91       1.0  0.42480  0.30677  0.49321  1.0000
  N   N166      1.0  0.39296  0.32943  0.52955  1.0000
  O   O91       1.0  0.38995  0.31590  0.58787  1.0000
  O   O92       1.0  0.40600  0.34125  0.56009  1.0000
  C   C244      1.0  0.36956  0.33720  0.37044  1.0000
  H   H92       1.0  0.37170  0.35135  0.38949  1.0000
  C   C245      1.0  0.23138  0.92139  0.35707  1.0000
  C   C246      1.0  0.23341  0.93187  0.44118  1.0000
  C   C247      1.0  0.23834  0.95262  0.44107  1.0000
  H   H93       1.0  0.24083  0.95956  0.50257  1.0000
  N   N167      1.0  0.23157  0.92111  0.52434  1.0000
  O   O93       1.0  0.21775  0.92814  0.57321  1.0000
  O   O94       1.0  0.24760  0.92147  0.56952  1.0000
  C   C248      1.0  0.23138  0.90040  0.35332  1.0000
  H   H94       1.0  0.24462  0.89390  0.34332  1.0000
  C   C249      1.0  0.79501  0.10503  0.35785  1.0000
  C   C250      1.0  0.79280  0.09463  0.44207  1.0000
  C   C251      1.0  0.78788  0.07387  0.44210  1.0000
  H   H95       1.0  0.78526  0.06699  0.50361  1.0000
  N   N168      1.0  0.79444  0.10545  0.52515  1.0000
  O   O95       1.0  0.80815  0.09848  0.57479  1.0000
  O   O96       1.0  0.77830  0.10512  0.56957  1.0000
  C   C252      1.0  0.79502  0.12601  0.35397  1.0000
  H   H96       1.0  0.78177  0.13252  0.34424  1.0000
  C   C253      1.0  0.10503  0.23137  0.35769  1.0000
  C   C254      1.0  0.09459  0.23368  0.44176  1.0000
  C   C255      1.0  0.07383  0.23858  0.44155  1.0000
  H   H97       1.0  0.06694  0.24128  0.50297  1.0000
  N   N169      1.0  0.10538  0.23212  0.52495  1.0000
  O   O97       1.0  0.09839  0.21846  0.57484  1.0000
  O   O98       1.0  0.10504  0.24830  0.56901  1.0000
  C   C256      1.0  0.12602  0.23139  0.35402  1.0000
  H   H98       1.0  0.13251  0.24466  0.34501  1.0000
  C   C257      1.0  0.92140  0.79505  0.35776  1.0000
  C   C258      1.0  0.93185  0.79291  0.44189  1.0000
  C   C259      1.0  0.95261  0.78800  0.44183  1.0000
  H   H99       1.0  0.95951  0.78541  0.50332  1.0000
  N   N170      1.0  0.92107  0.79462  0.52504  1.0000
  O   O99       1.0  0.92806  0.80837  0.57437  1.0000
  O   O100      1.0  0.92142  0.77853  0.56974  1.0000
  C   C260      1.0  0.90041  0.79504  0.35407  1.0000
  H   H100      1.0  0.89392  0.78177  0.34470  1.0000
  C   C261      1.0  0.28489  0.46344  0.36003  1.0000
  C   C262      1.0  0.28711  0.45301  0.44417  1.0000
  C   C263      1.0  0.29222  0.43230  0.44413  1.0000
  H   H101      1.0  0.29267  0.42489  0.50548  1.0000
  N   N171      1.0  0.28309  0.46326  0.52709  1.0000
  O   O101      1.0  0.29816  0.46329  0.57868  1.0000
  O   O102      1.0  0.26863  0.45552  0.56943  1.0000
  C   C264      1.0  0.27513  0.48198  0.35557  1.0000
  H   H102      1.0  0.26041  0.48145  0.34477  1.0000
  C   C265      1.0  0.74159  0.56302  0.36097  1.0000
  C   C266      1.0  0.73910  0.57342  0.44499  1.0000
  C   C267      1.0  0.73402  0.59414  0.44463  1.0000
  H   H103      1.0  0.73336  0.60156  0.50592  1.0000
  N   N172      1.0  0.74286  0.56315  0.52811  1.0000
  O   O103      1.0  0.72762  0.56312  0.57869  1.0000
  O   O104      1.0  0.75718  0.57088  0.57144  1.0000
  C   C268      1.0  0.75135  0.54446  0.35692  1.0000
  H   H104      1.0  0.76607  0.54497  0.34639  1.0000
  C   C269      1.0  0.46345  0.74154  0.35968  1.0000
  C   C270      1.0  0.45309  0.73906  0.44381  1.0000
  C   C271      1.0  0.43238  0.73398  0.44372  1.0000
  H   H105      1.0  0.42500  0.73333  0.50513  1.0000
  N   N173      1.0  0.46340  0.74283  0.52680  1.0000
  O   O105      1.0  0.46346  0.72761  0.57744  1.0000
  O   O106      1.0  0.45570  0.75717  0.57015  1.0000
  C   C272      1.0  0.48201  0.75130  0.35528  1.0000
  H   H106      1.0  0.48149  0.76600  0.34395  1.0000
  C   C273      1.0  0.56301  0.28485  0.36131  1.0000
  C   C274      1.0  0.57347  0.28726  0.44524  1.0000
  C   C275      1.0  0.59418  0.29240  0.44469  1.0000
  H   H107      1.0  0.60164  0.29296  0.50588  1.0000
  N   N174      1.0  0.56328  0.28340  0.52845  1.0000
  O   O107      1.0  0.56325  0.29858  0.57937  1.0000
  O   O108      1.0  0.57107  0.26904  0.57132  1.0000
  C   C276      1.0  0.54446  0.27507  0.35752  1.0000
  H   H108      1.0  0.54500  0.26031  0.34801  1.0000
  C   C277      1.0  0.23179  0.26411  0.36187  1.0000
  C   C278      1.0  0.23962  0.27197  0.44480  1.0000
  C   C279      1.0  0.25459  0.28713  0.44218  1.0000
  H   H109      1.0  0.26083  0.29174  0.50264  1.0000
  N   N175      1.0  0.23309  0.26375  0.52912  1.0000
  O   O109      1.0  0.22529  0.27693  0.57918  1.0000
  O   O110      1.0  0.24730  0.25573  0.57213  1.0000
  C   C280      1.0  0.22114  0.24611  0.36051  1.0000
  H   H110      1.0  0.22932  0.23365  0.35834  1.0000
  C   C281      1.0  0.79463  0.76231  0.36213  1.0000
  C   C282      1.0  0.78692  0.75426  0.44486  1.0000
  C   C283      1.0  0.77193  0.73912  0.44179  1.0000
  H   H111      1.0  0.76576  0.73433  0.50212  1.0000
  N   N176      1.0  0.79354  0.76228  0.52940  1.0000
  O   O111      1.0  0.80141  0.74899  0.57859  1.0000
  O   O112      1.0  0.77938  0.77019  0.57317  1.0000
  C   C284      1.0  0.80528  0.78033  0.36127  1.0000
  H   H112      1.0  0.79710  0.79279  0.35988  1.0000
  C   C285      1.0  0.76229  0.23178  0.36153  1.0000
  C   C286      1.0  0.75428  0.23943  0.44448  1.0000
  C   C287      1.0  0.73915  0.25442  0.44187  1.0000
  H   H113      1.0  0.73439  0.26054  0.50239  1.0000
  N   N177      1.0  0.76235  0.23273  0.52881  1.0000
  O   O113      1.0  0.74908  0.22483  0.57803  1.0000
  O   O114      1.0  0.77029  0.24685  0.57272  1.0000
  C   C288      1.0  0.78030  0.22113  0.36014  1.0000
  H   H114      1.0  0.79276  0.22930  0.35717  1.0000
  C   C289      1.0  0.26411  0.79462  0.36209  1.0000
  C   C290      1.0  0.27210  0.78682  0.44480  1.0000
  C   C291      1.0  0.28728  0.77187  0.44166  1.0000
  H   H115      1.0  0.29199  0.76561  0.50193  1.0000
  N   N178      1.0  0.26401  0.79334  0.52937  1.0000
  O   O115      1.0  0.27725  0.80117  0.57896  1.0000
  O   O116      1.0  0.25608  0.77912  0.57267  1.0000
  C   C292      1.0  0.24610  0.80527  0.36134  1.0000
  H   H116      1.0  0.23363  0.79708  0.36057  1.0000
  C   C293      1.0  0.50117  0.03085  0.36396  1.0000
  C   C294      1.0  0.51240  0.02372  0.43983  1.0000
  C   C295      1.0  0.52425  0.00620  0.43029  1.0000
  H   H117      1.0  0.53197  0.00103  0.48607  1.0000
  N   N179      1.0  0.51126  0.03401  0.52454  1.0000
  O   O117      1.0  0.50437  0.02296  0.58672  1.0000
  O   O118      1.0  0.52814  0.04042  0.54906  1.0000
  C   C296      1.0  0.49043  0.04867  0.36881  1.0000
  H   H118      1.0  0.49773  0.06098  0.38799  1.0000
  C   C297      1.0  0.99557  0.50117  0.36400  1.0000
  C   C298      1.0  0.00266  0.51245  0.43975  1.0000
  C   C299      1.0  0.02019  0.52429  0.43020  1.0000
  H   H119      1.0  0.02534  0.53206  0.48591  1.0000
  N   N180      1.0  0.99233  0.51138  0.52439  1.0000
  O   O119      1.0  0.00335  0.50453  0.58678  1.0000
  O   O120      1.0  0.98592  0.52827  0.54859  1.0000
  C   C300      1.0  0.97774  0.49043  0.36885  1.0000
  H   H120      1.0  0.96543  0.49773  0.38799  1.0000
