data_image0
_chemical_formula_structural       C2HC3H2C2H2C4HNO2C4HNO2C6H3C6H3CHC8H2N2O3C2H2C2H2C3HNO2C5HN2O4CHC2H2CH2OC3NO2C2HOCH2CHC2HC8H2N2O4C3HNO2C8H2N2O4C2HC2H2C2H2C2H2C2H2C2H2C2H2C2H2C2H2C8H2N2O4C8H2N2O4C8H2N2O3C8H2N2O4C6H3C5H2C6H3C6H3C6H3C6H3C6H3C6H2C2H2C2H2CHC2H2C2H2C2H2C8H2N2O4C8H2N2O4C8H2N2O4C8H2N2O4C2H2C2H2C2H2C2H2C2H2C2H2C2H2C2H2C5HNO2C6HN2O4C2H2C2H2C4HNO2C4HNO2C6H3C6H3CHC2H2C2H2C8H2N2O4C2H2C2H2
_chemical_formula_sum              "C288 H144 N36 O72"
_cell_length_a       60.1703
_cell_length_b       60.1703
_cell_length_c       14.8463
_cell_angle_alpha    90
_cell_angle_beta     90
_cell_angle_gamma    120

_space_group_name_H-M_alt    "P 1"
_space_group_IT_number       1

loop_
  _space_group_symop_operation_xyz
  'x, y, z'

loop_
  _atom_site_type_symbol
  _atom_site_label
  _atom_site_symmetry_multiplicity
  _atom_site_fract_x
  _atom_site_fract_y
  _atom_site_fract_z
  _atom_site_occupancy
  C   C1        1.0  0.17991  0.44583  0.27410  1.0000
  C   C2        1.0  0.17541  0.45858  0.34566  1.0000
  H   H1        1.0  0.16688  0.43831  0.22266  1.0000
  C   C3        1.0  0.17473  0.72996  0.33165  1.0000
  C   C4        1.0  0.13271  0.59562  0.27491  1.0000
  C   C5        1.0  0.13078  0.61795  0.27292  1.0000
  H   H2        1.0  0.12378  0.58213  0.22559  1.0000
  H   H3        1.0  0.12077  0.62018  0.22139  1.0000
  C   C6        1.0  0.15466  0.53600  0.28291  1.0000
  C   C7        1.0  0.15614  0.56009  0.28210  1.0000
  H   H4        1.0  0.16206  0.53100  0.22970  1.0000
  H   H5        1.0  0.16500  0.57214  0.22889  1.0000
  C   C8        1.0  0.02593  0.39497  0.33383  1.0000
  C   C9        1.0  0.03862  0.41075  0.25795  1.0000
  C   C10       1.0  0.06576  0.42621  0.25767  1.0000
  C   C11       1.0  0.08093  0.42659  0.33107  1.0000
  H   H6        1.0  0.07445  0.43842  0.20465  1.0000
  N   N1        1.0  0.02404  0.41242  0.18597  1.0000
  O   O1        1.0  0.02943  0.40583  0.11252  1.0000
  O   O2        1.0  0.02745  0.43470  0.17772  1.0000
  C   C12       1.0  0.08017  0.66736  0.34832  1.0000
  C   C13       1.0  0.06851  0.67315  0.27573  1.0000
  C   C14       1.0  0.04141  0.66238  0.27398  1.0000
  C   C15       1.0  0.02531  0.64543  0.34182  1.0000
  H   H7        1.0  0.03329  0.66624  0.22010  1.0000
  N   N2        1.0  0.08393  0.68829  0.20322  1.0000
  O   O3        1.0  0.07780  0.67592  0.13055  1.0000
  O   O4        1.0  0.08223  0.70813  0.19321  1.0000
  C   C16       1.0  0.13759  0.49298  0.34915  1.0000
  C   C17       1.0  0.11228  0.47210  0.34355  1.0000
  C   C18       1.0  0.10712  0.44651  0.33750  1.0000
  C   C19       1.0  0.12810  0.44199  0.33886  1.0000
  C   C20       1.0  0.15383  0.46256  0.34506  1.0000
  C   C21       1.0  0.15813  0.48796  0.34905  1.0000
  H   H8        1.0  0.12458  0.42352  0.33531  1.0000
  H   H9        1.0  0.17653  0.50311  0.35227  1.0000
  H   H10       1.0  0.09730  0.47567  0.34298  1.0000
  C   C22       1.0  0.13729  0.65778  0.34130  1.0000
  C   C23       1.0  0.11193  0.65331  0.34484  1.0000
  C   C24       1.0  0.10653  0.67365  0.34597  1.0000
  C   C25       1.0  0.12750  0.69917  0.34169  1.0000
  C   C26       1.0  0.15325  0.70437  0.33681  1.0000
  C   C27       1.0  0.15771  0.68339  0.33792  1.0000
  H   H11       1.0  0.12396  0.71413  0.34151  1.0000
  H   H12       1.0  0.17616  0.68676  0.33548  1.0000
  H   H13       1.0  0.09705  0.63473  0.34691  1.0000
  C   C28       1.0  0.18013  0.74706  0.40459  1.0000
  H   H14       1.0  0.16811  0.74159  0.45904  1.0000
  C   C29       1.0  0.14176  0.63664  0.34175  1.0000
  C   C30       1.0  0.15527  0.63275  0.41281  1.0000
  C   C31       1.0  0.15701  0.61010  0.41401  1.0000
  C   C32       1.0  0.14554  0.59121  0.34624  1.0000
  C   C33       1.0  0.14525  0.56744  0.35234  1.0000
  C   C34       1.0  0.13273  0.55009  0.42456  1.0000
  C   C35       1.0  0.13108  0.52577  0.42378  1.0000
  C   C36       1.0  0.14182  0.51840  0.35327  1.0000
  H   H15       1.0  0.12144  0.51311  0.47479  1.0000
  H   H16       1.0  0.16629  0.60715  0.46643  1.0000
  N   N3        1.0  0.12101  0.55674  0.49419  1.0000
  N   N4        1.0  0.16571  0.65086  0.48370  1.0000
  O   O5        1.0  0.13051  0.55688  0.56973  1.0000
  O   O6        1.0  0.09720  0.54159  0.49736  1.0000
  O   O7        1.0  0.15563  0.64105  0.55813  1.0000
  C   C37       1.0  0.06824  0.41056  0.40530  1.0000
  C   C38       1.0  0.04127  0.39509  0.40655  1.0000
  H   H17       1.0  0.07841  0.41119  0.46143  1.0000
  H   H18       1.0  0.03278  0.38442  0.46298  1.0000
  C   C39       1.0  0.03730  0.64061  0.41509  1.0000
  C   C40       1.0  0.06412  0.65133  0.41823  1.0000
  H   H19       1.0  0.02647  0.62803  0.46471  1.0000
  H   H20       1.0  0.07179  0.64629  0.47052  1.0000
  C   C41       1.0  0.24566  0.45586  0.33465  1.0000
  C   C42       1.0  0.22159  0.45545  0.33809  1.0000
  C   C43       1.0  0.20277  0.44440  0.26890  1.0000
  H   H21       1.0  0.25747  0.47490  0.20931  1.0000
  N   N5        1.0  0.20701  0.43189  0.19570  1.0000
  O   O8        1.0  0.20751  0.44240  0.12196  1.0000
  O   O9        1.0  0.19000  0.40862  0.19169  1.0000
  C   C44       1.0  0.19248  0.73803  0.25887  1.0000
  C   C45       1.0  0.21494  0.76260  0.26119  1.0000
  C   C46       1.0  0.22056  0.77957  0.33464  1.0000
  C   C47       1.0  0.24421  0.80364  0.33808  1.0000
  C   C48       1.0  0.25199  0.82247  0.26890  1.0000
  H   H22       1.0  0.22778  0.76777  0.20927  1.0000
  N   N6        1.0  0.23522  0.81823  0.19573  1.0000
  N   N7        1.0  0.18740  0.72144  0.18438  1.0000
  O   O10       1.0  0.24523  0.81774  0.12197  1.0000
  O   O11       1.0  0.20476  0.71583  0.17415  1.0000
  O   O12       1.0  0.22896  0.83524  0.19176  1.0000
  O   O13       1.0  0.18522  0.73127  0.11266  1.0000
  C   C49       1.0  0.25394  0.44628  0.40634  1.0000
  H   H23       1.0  0.24237  0.43811  0.46117  1.0000
  C   C50       1.0  0.19423  0.46936  0.41407  1.0000
  C   C51       1.0  0.21668  0.46759  0.41087  1.0000
  H   H24       1.0  0.19185  0.47893  0.46680  1.0000
  H   H25       1.0  0.22998  0.47620  0.46097  1.0000
  C   C52       1.0  0.20270  0.77129  0.40635  1.0000
  H   H26       1.0  0.20610  0.78285  0.46119  1.0000
  H   H27       1.0  0.25659  0.79525  0.46092  1.0000
  O   O14       1.0  0.18957  0.66012  0.48978  1.0000
  C   C53       1.0  0.29528  0.45966  0.33168  1.0000
  C   C54       1.0  0.28720  0.46933  0.25890  1.0000
  C   C55       1.0  0.26263  0.46722  0.26122  1.0000
  N   N8        1.0  0.30381  0.48086  0.18443  1.0000
  O   O15       1.0  0.30941  0.50383  0.17421  1.0000
  O   O16       1.0  0.29398  0.46885  0.11270  1.0000
  C   C56       1.0  0.27627  0.84533  0.27408  1.0000
  C   C57       1.0  0.29353  0.84982  0.34562  1.0000
  H   H28       1.0  0.28178  0.85836  0.22266  1.0000
  O   O17       1.0  0.31711  0.38898  0.19319  1.0000
  C   C58       1.0  0.31909  0.87141  0.34502  1.0000
  H   H29       1.0  0.30928  0.90065  0.33528  1.0000
  H   H30       1.0  0.31110  0.42471  0.34153  1.0000
  C   C59       1.0  0.27817  0.44794  0.40459  1.0000
  H   H31       1.0  0.28364  0.44138  0.45902  1.0000
  C   C60       1.0  0.28550  0.83100  0.41403  1.0000
  C   C61       1.0  0.26127  0.80855  0.41083  1.0000
  H   H32       1.0  0.29745  0.83338  0.46674  1.0000
  C   C62       1.0  0.56557  0.85050  0.33167  1.0000
  C   C63       1.0  0.55591  0.83275  0.25888  1.0000
  C   C64       1.0  0.55801  0.81029  0.26121  1.0000
  C   C65       1.0  0.56938  0.80468  0.33464  1.0000
  C   C66       1.0  0.56978  0.78102  0.33809  1.0000
  C   C67       1.0  0.58083  0.77324  0.26890  1.0000
  C   C68       1.0  0.57941  0.74896  0.27410  1.0000
  C   C69       1.0  0.56665  0.73170  0.34566  1.0000
  H   H33       1.0  0.58692  0.74345  0.22268  1.0000
  H   H34       1.0  0.55034  0.79746  0.20929  1.0000
  N   N9        1.0  0.59335  0.79000  0.19572  1.0000
  N   N10       1.0  0.54438  0.83783  0.18441  1.0000
  O   O18       1.0  0.58284  0.77999  0.12197  1.0000
  O   O19       1.0  0.52142  0.82047  0.17417  1.0000
  O   O20       1.0  0.61662  0.79626  0.19173  1.0000
  O   O21       1.0  0.55640  0.84001  0.11268  1.0000
  C   C70       1.0  0.72844  0.56708  0.33167  1.0000
  C   C71       1.0  0.73652  0.55740  0.25889  1.0000
  C   C72       1.0  0.76109  0.55951  0.26122  1.0000
  H   H35       1.0  0.76625  0.55184  0.20931  1.0000
  N   N11       1.0  0.71992  0.54588  0.18442  1.0000
  O   O22       1.0  0.71431  0.52291  0.17419  1.0000
  O   O23       1.0  0.72975  0.55789  0.11269  1.0000
  C   C73       1.0  0.45816  0.17625  0.33169  1.0000
  C   C74       1.0  0.46784  0.19400  0.25892  1.0000
  C   C75       1.0  0.46573  0.21647  0.26125  1.0000
  C   C76       1.0  0.45436  0.22207  0.33466  1.0000
  C   C77       1.0  0.45395  0.24573  0.33811  1.0000
  C   C78       1.0  0.44291  0.25351  0.26890  1.0000
  C   C79       1.0  0.44432  0.27779  0.27410  1.0000
  C   C80       1.0  0.45706  0.29504  0.34570  1.0000
  H   H36       1.0  0.43682  0.28330  0.22266  1.0000
  H   H37       1.0  0.47341  0.22930  0.20935  1.0000
  N   N12       1.0  0.43041  0.23676  0.19567  1.0000
  N   N13       1.0  0.47937  0.18893  0.18446  1.0000
  O   O24       1.0  0.44092  0.24678  0.12196  1.0000
  O   O25       1.0  0.50234  0.20629  0.17426  1.0000
  O   O26       1.0  0.40714  0.23049  0.19162  1.0000
  O   O27       1.0  0.46736  0.18675  0.11272  1.0000
  C   C81       1.0  0.74745  0.18142  0.27410  1.0000
  C   C82       1.0  0.73019  0.17693  0.34564  1.0000
  H   H38       1.0  0.74194  0.16839  0.22268  1.0000
  C   C83       1.0  0.42962  0.55196  0.27493  1.0000
  C   C84       1.0  0.40729  0.52770  0.27294  1.0000
  H   H39       1.0  0.44311  0.55652  0.22561  1.0000
  H   H40       1.0  0.40506  0.51545  0.22142  1.0000
  C   C85       1.0  0.48923  0.63353  0.28290  1.0000
  C   C86       1.0  0.46514  0.61092  0.28210  1.0000
  H   H41       1.0  0.49423  0.64594  0.22969  1.0000
  H   H42       1.0  0.45309  0.60773  0.22890  1.0000
  C   C87       1.0  0.47327  0.89253  0.27491  1.0000
  C   C88       1.0  0.49752  0.89445  0.27292  1.0000
  H   H43       1.0  0.46871  0.90146  0.22559  1.0000
  H   H44       1.0  0.50977  0.90446  0.22138  1.0000
  C   C89       1.0  0.39170  0.87058  0.28293  1.0000
  C   C90       1.0  0.41430  0.86910  0.28212  1.0000
  H   H45       1.0  0.37929  0.86317  0.22973  1.0000
  H   H46       1.0  0.41750  0.86024  0.22893  1.0000
  C   C91       1.0  0.59410  0.47478  0.27492  1.0000
  C   C92       1.0  0.61643  0.49904  0.27294  1.0000
  H   H47       1.0  0.58061  0.47022  0.22561  1.0000
  H   H48       1.0  0.61866  0.51128  0.22141  1.0000
  C   C93       1.0  0.53449  0.39321  0.28289  1.0000
  C   C94       1.0  0.55857  0.41582  0.28209  1.0000
  H   H49       1.0  0.52948  0.38080  0.22968  1.0000
  H   H50       1.0  0.57062  0.41901  0.22888  1.0000
  C   C95       1.0  0.55044  0.13420  0.27494  1.0000
  C   C96       1.0  0.52619  0.13227  0.27295  1.0000
  H   H51       1.0  0.55500  0.12526  0.22561  1.0000
  H   H52       1.0  0.51394  0.12225  0.22142  1.0000
  C   C97       1.0  0.63202  0.15616  0.28290  1.0000
  C   C98       1.0  0.60941  0.15763  0.28210  1.0000
  H   H53       1.0  0.64443  0.16356  0.22969  1.0000
  H   H54       1.0  0.60621  0.16649  0.22891  1.0000
  C   C99       1.0  0.66586  0.59906  0.34835  1.0000
  C   C100      1.0  0.67163  0.61651  0.27572  1.0000
  C   C101      1.0  0.66085  0.63282  0.27395  1.0000
  C   C102      1.0  0.64391  0.63199  0.34180  1.0000
  C   C103      1.0  0.63026  0.64583  0.33382  1.0000
  C   C104      1.0  0.61448  0.64275  0.25794  1.0000
  C   C105      1.0  0.59902  0.65443  0.25766  1.0000
  C   C106      1.0  0.59864  0.66922  0.33105  1.0000
  H   H55       1.0  0.58681  0.65091  0.20464  1.0000
  H   H56       1.0  0.66471  0.64480  0.22006  1.0000
  N   N14       1.0  0.61281  0.62650  0.18597  1.0000
  N   N15       1.0  0.68677  0.61622  0.20320  1.0000
  O   O28       1.0  0.61939  0.63847  0.11251  1.0000
  O   O29       1.0  0.67439  0.60996  0.13055  1.0000
  O   O30       1.0  0.59052  0.60762  0.17772  1.0000
  O   O31       1.0  0.70659  0.63776  0.19314  1.0000
  C   C107      1.0  0.42617  0.08169  0.34836  1.0000
  C   C108      1.0  0.40872  0.07001  0.27573  1.0000
  C   C109      1.0  0.39241  0.04292  0.27397  1.0000
  C   C110      1.0  0.39324  0.02681  0.34182  1.0000
  C   C111      1.0  0.37939  0.99931  0.33384  1.0000
  C   C112      1.0  0.38248  0.98662  0.25795  1.0000
  C   C113      1.0  0.37079  0.95947  0.25767  1.0000
  C   C114      1.0  0.35601  0.94431  0.33107  1.0000
  H   H57       1.0  0.37432  0.95078  0.20466  1.0000
  H   H58       1.0  0.38043  0.03480  0.22007  1.0000
  N   N16       1.0  0.39872  0.00119  0.18598  1.0000
  N   N17       1.0  0.40901  0.08543  0.20322  1.0000
  O   O32       1.0  0.38675  0.99581  0.11253  1.0000
  O   O33       1.0  0.41527  0.07931  0.13057  1.0000
  O   O34       1.0  0.41761  0.99779  0.17772  1.0000
  O   O35       1.0  0.38748  0.08372  0.19315  1.0000
  C   C115      1.0  0.35786  0.42768  0.34834  1.0000
  C   C116      1.0  0.35207  0.41023  0.27573  1.0000
  C   C117      1.0  0.36285  0.39391  0.27397  1.0000
  C   C118      1.0  0.37979  0.39474  0.34180  1.0000
  C   C119      1.0  0.39345  0.38089  0.33380  1.0000
  C   C120      1.0  0.40923  0.38399  0.25792  1.0000
  C   C121      1.0  0.42470  0.37232  0.25763  1.0000
  C   C122      1.0  0.42508  0.35754  0.33104  1.0000
  H   H59       1.0  0.43692  0.37585  0.20463  1.0000
  H   H60       1.0  0.35899  0.38192  0.22007  1.0000
  N   N18       1.0  0.41090  0.40024  0.18597  1.0000
  N   N19       1.0  0.33694  0.41051  0.20322  1.0000
  O   O36       1.0  0.40432  0.38828  0.11250  1.0000
  O   O37       1.0  0.34931  0.41676  0.13055  1.0000
  O   O38       1.0  0.43318  0.41913  0.17773  1.0000
  C   C123      1.0  0.59754  0.94506  0.34834  1.0000
  C   C124      1.0  0.61500  0.95673  0.27575  1.0000
  C   C125      1.0  0.63132  0.98382  0.27400  1.0000
  C   C126      1.0  0.63048  0.99993  0.34182  1.0000
  C   C127      1.0  0.64433  0.02744  0.33383  1.0000
  C   C128      1.0  0.64126  0.04012  0.25792  1.0000
  C   C129      1.0  0.65295  0.06727  0.25762  1.0000
  C   C130      1.0  0.66773  0.08245  0.33101  1.0000
  H   H61       1.0  0.64943  0.07596  0.20458  1.0000
  H   H62       1.0  0.64331  0.99194  0.22012  1.0000
  N   N20       1.0  0.62503  0.02555  0.18592  1.0000
  N   N21       1.0  0.61473  0.94131  0.20326  1.0000
  O   O39       1.0  0.63701  0.03093  0.11249  1.0000
  O   O40       1.0  0.60849  0.94744  0.13057  1.0000
  O   O41       1.0  0.60615  0.02895  0.17760  1.0000
  O   O42       1.0  0.63626  0.94301  0.19327  1.0000
  C   C131      1.0  0.53226  0.65948  0.34913  1.0000
  C   C132      1.0  0.55313  0.65505  0.34354  1.0000
  C   C133      1.0  0.57872  0.67548  0.33749  1.0000
  C   C134      1.0  0.58325  0.70099  0.33885  1.0000
  C   C135      1.0  0.56267  0.70614  0.34505  1.0000
  C   C136      1.0  0.53727  0.68505  0.34904  1.0000
  H   H63       1.0  0.60171  0.71595  0.33530  1.0000
  H   H64       1.0  0.52212  0.68829  0.35226  1.0000
  H   H65       1.0  0.54956  0.63651  0.34297  1.0000
  C   C137      1.0  0.36575  0.88766  0.34915  1.0000
  C   C138      1.0  0.37018  0.91296  0.34359  1.0000
  C   C139      1.0  0.34975  0.91812  0.33751  1.0000
  C   C140      1.0  0.32424  0.89713  0.33885  1.0000
  C   C141      1.0  0.34019  0.86711  0.34903  1.0000
  H   H66       1.0  0.33695  0.84871  0.35224  1.0000
  H   H67       1.0  0.38872  0.92794  0.34300  1.0000
  C   C142      1.0  0.49146  0.36726  0.34915  1.0000
  C   C143      1.0  0.47060  0.37169  0.34356  1.0000
  C   C144      1.0  0.44500  0.35127  0.33750  1.0000
  C   C145      1.0  0.44047  0.32576  0.33887  1.0000
  C   C146      1.0  0.46105  0.32060  0.34508  1.0000
  C   C147      1.0  0.48644  0.34169  0.34907  1.0000
  H   H68       1.0  0.42200  0.31080  0.33532  1.0000
  H   H69       1.0  0.50160  0.33845  0.35228  1.0000
  H   H70       1.0  0.47417  0.39024  0.34295  1.0000
  C   C148      1.0  0.65797  0.13908  0.34914  1.0000
  C   C149      1.0  0.65355  0.11379  0.34355  1.0000
  C   C150      1.0  0.67398  0.10863  0.33748  1.0000
  C   C151      1.0  0.69949  0.12962  0.33884  1.0000
  C   C152      1.0  0.70463  0.15534  0.34504  1.0000
  C   C153      1.0  0.68354  0.15964  0.34905  1.0000
  H   H71       1.0  0.71445  0.12610  0.33528  1.0000
  H   H72       1.0  0.68678  0.17803  0.35226  1.0000
  H   H73       1.0  0.63501  0.09880  0.34295  1.0000
  C   C154      1.0  0.49287  0.13879  0.34133  1.0000
  C   C155      1.0  0.47199  0.11344  0.34487  1.0000
  C   C156      1.0  0.44625  0.10804  0.34599  1.0000
  C   C157      1.0  0.44170  0.12902  0.34171  1.0000
  C   C158      1.0  0.46225  0.15476  0.33683  1.0000
  C   C159      1.0  0.48769  0.15921  0.33794  1.0000
  H   H74       1.0  0.42320  0.12548  0.34155  1.0000
  H   H75       1.0  0.50278  0.17766  0.33551  1.0000
  H   H76       1.0  0.47567  0.09855  0.34694  1.0000
  C   C160      1.0  0.65627  0.53236  0.34130  1.0000
  C   C161      1.0  0.65180  0.55324  0.34484  1.0000
  C   C162      1.0  0.67214  0.57898  0.34597  1.0000
  C   C163      1.0  0.69766  0.58353  0.34169  1.0000
  C   C164      1.0  0.70286  0.56298  0.33681  1.0000
  C   C165      1.0  0.68187  0.53754  0.33790  1.0000
  H   H77       1.0  0.71262  0.60203  0.34154  1.0000
  H   H78       1.0  0.68524  0.52246  0.33548  1.0000
  H   H79       1.0  0.63323  0.54956  0.34692  1.0000
  C   C166      1.0  0.53085  0.88794  0.34130  1.0000
  C   C167      1.0  0.55173  0.91330  0.34483  1.0000
  C   C168      1.0  0.57747  0.91870  0.34596  1.0000
  C   C169      1.0  0.58202  0.89773  0.34171  1.0000
  C   C170      1.0  0.56148  0.87199  0.33682  1.0000
  C   C171      1.0  0.53603  0.86752  0.33793  1.0000
  H   H80       1.0  0.60052  0.90127  0.34153  1.0000
  H   H81       1.0  0.52095  0.84908  0.33548  1.0000
  H   H82       1.0  0.54804  0.92819  0.34690  1.0000
  C   C172      1.0  0.36745  0.49438  0.34133  1.0000
  C   C173      1.0  0.37193  0.47350  0.34485  1.0000
  C   C174      1.0  0.35158  0.44776  0.34596  1.0000
  C   C175      1.0  0.32606  0.44321  0.34171  1.0000
  C   C176      1.0  0.32086  0.46375  0.33683  1.0000
  C   C177      1.0  0.34185  0.48920  0.33795  1.0000
  H   H83       1.0  0.33848  0.50428  0.33551  1.0000
  H   H84       1.0  0.39050  0.47718  0.34692  1.0000
  C   C178      1.0  0.57895  0.82254  0.40635  1.0000
  C   C179      1.0  0.57729  0.84511  0.40459  1.0000
  H   H85       1.0  0.58712  0.81914  0.46118  1.0000
  H   H86       1.0  0.58384  0.85713  0.45903  1.0000
  C   C180      1.0  0.55586  0.73974  0.41406  1.0000
  C   C181      1.0  0.55763  0.76397  0.41086  1.0000
  H   H87       1.0  0.54629  0.72779  0.46678  1.0000
  H   H88       1.0  0.54902  0.76865  0.46095  1.0000
  C   C182      1.0  0.74555  0.57879  0.40458  1.0000
  H   H89       1.0  0.74008  0.58535  0.45902  1.0000
  C   C183      1.0  0.44477  0.20421  0.40636  1.0000
  C   C184      1.0  0.44644  0.18164  0.40459  1.0000
  H   H90       1.0  0.43660  0.20760  0.46117  1.0000
  H   H91       1.0  0.43988  0.16961  0.45902  1.0000
  C   C185      1.0  0.46784  0.28700  0.41410  1.0000
  C   C186      1.0  0.46608  0.26278  0.41090  1.0000
  H   H92       1.0  0.47741  0.29894  0.46684  1.0000
  H   H93       1.0  0.47469  0.25809  0.46100  1.0000
  C   C187      1.0  0.73823  0.19575  0.41404  1.0000
  C   C188      1.0  0.76245  0.21821  0.41083  1.0000
  H   H94       1.0  0.72628  0.19338  0.46676  1.0000
  H   H95       1.0  0.76714  0.23151  0.46092  1.0000
  C   C189      1.0  0.38860  0.51999  0.34177  1.0000
  C   C190      1.0  0.39249  0.53740  0.41283  1.0000
  C   C191      1.0  0.41514  0.56179  0.41402  1.0000
  C   C192      1.0  0.43403  0.56920  0.34626  1.0000
  C   C193      1.0  0.45780  0.59268  0.35235  1.0000
  C   C194      1.0  0.47515  0.59752  0.42456  1.0000
  C   C195      1.0  0.49947  0.62019  0.42378  1.0000
  C   C196      1.0  0.50683  0.63829  0.35325  1.0000
  H   H96       1.0  0.51213  0.62322  0.47479  1.0000
  H   H97       1.0  0.41808  0.57401  0.46644  1.0000
  N   N22       1.0  0.46850  0.57915  0.49421  1.0000
  N   N23       1.0  0.37438  0.52972  0.48372  1.0000
  O   O43       1.0  0.46835  0.58851  0.56974  1.0000
  O   O44       1.0  0.36511  0.54431  0.48980  1.0000
  O   O45       1.0  0.48365  0.57050  0.49738  1.0000
  O   O46       1.0  0.38419  0.52945  0.55815  1.0000
  C   C197      1.0  0.50523  0.88347  0.34174  1.0000
  C   C198      1.0  0.48783  0.86997  0.41282  1.0000
  C   C199      1.0  0.46345  0.86823  0.41403  1.0000
  C   C200      1.0  0.45603  0.87971  0.34625  1.0000
  C   C201      1.0  0.43255  0.88000  0.35234  1.0000
  C   C202      1.0  0.42773  0.89253  0.42454  1.0000
  C   C203      1.0  0.40505  0.89418  0.42376  1.0000
  C   C204      1.0  0.38695  0.88343  0.35325  1.0000
  H   H98       1.0  0.40203  0.90382  0.47477  1.0000
  H   H99       1.0  0.45123  0.85897  0.46646  1.0000
  N   N24       1.0  0.44610  0.90425  0.49417  1.0000
  N   N25       1.0  0.49551  0.85954  0.48372  1.0000
  O   O47       1.0  0.43675  0.89476  0.56972  1.0000
  O   O48       1.0  0.48091  0.83568  0.48983  1.0000
  O   O49       1.0  0.45475  0.92806  0.49731  1.0000
  O   O50       1.0  0.49579  0.86963  0.55813  1.0000
  C   C205      1.0  0.63513  0.50674  0.34174  1.0000
  C   C206      1.0  0.63123  0.48934  0.41280  1.0000
  C   C207      1.0  0.60859  0.46495  0.41400  1.0000
  C   C208      1.0  0.58969  0.45754  0.34624  1.0000
  C   C209      1.0  0.56593  0.43406  0.35234  1.0000
  C   C210      1.0  0.54858  0.42922  0.42457  1.0000
  C   C211      1.0  0.52425  0.40655  0.42379  1.0000
  C   C212      1.0  0.51689  0.38845  0.35325  1.0000
  H   H100      1.0  0.51160  0.40352  0.47481  1.0000
  H   H101      1.0  0.60564  0.45273  0.46642  1.0000
  N   N26       1.0  0.55523  0.44759  0.49422  1.0000
  N   N27       1.0  0.64935  0.49701  0.48369  1.0000
  O   O51       1.0  0.55538  0.43823  0.56975  1.0000
  O   O52       1.0  0.65861  0.48242  0.48977  1.0000
  O   O53       1.0  0.54007  0.45624  0.49741  1.0000
  O   O54       1.0  0.63954  0.49729  0.55812  1.0000
  C   C213      1.0  0.51848  0.14325  0.34178  1.0000
  C   C214      1.0  0.53589  0.15677  0.41284  1.0000
  C   C215      1.0  0.56028  0.15850  0.41403  1.0000
  C   C216      1.0  0.56769  0.14702  0.34626  1.0000
  C   C217      1.0  0.59117  0.14674  0.35234  1.0000
  C   C218      1.0  0.59600  0.13421  0.42456  1.0000
  C   C219      1.0  0.61868  0.13257  0.42377  1.0000
  C   C220      1.0  0.63677  0.14331  0.35325  1.0000
  H   H102      1.0  0.62170  0.12294  0.47478  1.0000
  H   H103      1.0  0.57250  0.16778  0.46645  1.0000
  N   N28       1.0  0.57764  0.12249  0.49420  1.0000
  N   N29       1.0  0.52822  0.16721  0.48373  1.0000
  O   O55       1.0  0.58699  0.13200  0.56973  1.0000
  O   O56       1.0  0.54281  0.19106  0.48980  1.0000
  O   O57       1.0  0.56898  0.09869  0.49737  1.0000
  O   O58       1.0  0.52795  0.15712  0.55815  1.0000
  C   C221      1.0  0.63910  0.61517  0.41508  1.0000
  C   C222      1.0  0.64983  0.59908  0.41822  1.0000
  H   H104      1.0  0.62652  0.61342  0.46470  1.0000
  H   H105      1.0  0.64479  0.58638  0.47053  1.0000
  C   C223      1.0  0.61468  0.67256  0.40528  1.0000
  C   C224      1.0  0.63015  0.66106  0.40654  1.0000
  H   H106      1.0  0.61405  0.68210  0.46141  1.0000
  H   H107      1.0  0.64082  0.66325  0.46296  1.0000
  C   C225      1.0  0.41005  0.03881  0.41510  1.0000
  C   C226      1.0  0.42614  0.06563  0.41824  1.0000
  H   H108      1.0  0.41180  0.02798  0.46472  1.0000
  H   H109      1.0  0.43885  0.07329  0.47055  1.0000
  C   C227      1.0  0.35266  0.95699  0.40530  1.0000
  C   C228      1.0  0.36416  0.98397  0.40655  1.0000
  H   H110      1.0  0.34313  0.94683  0.46143  1.0000
  H   H111      1.0  0.36198  0.99245  0.46298  1.0000
  C   C229      1.0  0.38461  0.41155  0.41509  1.0000
  C   C230      1.0  0.37389  0.42765  0.41823  1.0000
  H   H112      1.0  0.39719  0.41330  0.46471  1.0000
  H   H113      1.0  0.37893  0.44035  0.47054  1.0000
  C   C231      1.0  0.40904  0.35416  0.40525  1.0000
  C   C232      1.0  0.39356  0.36566  0.40651  1.0000
  H   H114      1.0  0.40967  0.34462  0.46137  1.0000
  H   H115      1.0  0.38288  0.36347  0.46292  1.0000
  C   C233      1.0  0.61365  0.98794  0.41508  1.0000
  C   C234      1.0  0.59756  0.96112  0.41822  1.0000
  H   H116      1.0  0.61190  0.99877  0.46469  1.0000
  H   H117      1.0  0.58485  0.95345  0.47051  1.0000
  C   C235      1.0  0.67104  0.06975  0.40529  1.0000
  C   C236      1.0  0.65954  0.04278  0.40657  1.0000
  H   H118      1.0  0.68057  0.07992  0.46144  1.0000
  H   H119      1.0  0.66171  0.03429  0.46302  1.0000
  C   C237      1.0  0.77806  0.57088  0.33464  1.0000
  C   C238      1.0  0.80213  0.57129  0.33809  1.0000
  C   C239      1.0  0.82096  0.58234  0.26889  1.0000
  C   C240      1.0  0.84382  0.58091  0.27410  1.0000
  C   C241      1.0  0.84833  0.56817  0.34568  1.0000
  H   H120      1.0  0.85684  0.58843  0.22266  1.0000
  N   N30       1.0  0.81671  0.59485  0.19569  1.0000
  O   O59       1.0  0.81621  0.58433  0.12195  1.0000
  O   O60       1.0  0.83371  0.61811  0.19166  1.0000
  C   C242      1.0  0.84899  0.29680  0.33166  1.0000
  C   C243      1.0  0.83125  0.28872  0.25887  1.0000
  C   C244      1.0  0.80878  0.26415  0.26119  1.0000
  C   C245      1.0  0.80317  0.24718  0.33463  1.0000
  C   C246      1.0  0.77951  0.22311  0.33808  1.0000
  C   C247      1.0  0.77173  0.20428  0.26890  1.0000
  H   H121      1.0  0.79595  0.25898  0.20927  1.0000
  N   N31       1.0  0.78850  0.20852  0.19572  1.0000
  N   N32       1.0  0.83633  0.30532  0.18438  1.0000
  O   O61       1.0  0.77849  0.20901  0.12196  1.0000
  O   O62       1.0  0.81897  0.31093  0.17414  1.0000
  O   O63       1.0  0.79476  0.19151  0.19175  1.0000
  O   O64       1.0  0.83851  0.29548  0.11267  1.0000
  C   C248      1.0  0.89102  0.43113  0.27491  1.0000
  C   C249      1.0  0.89295  0.40880  0.27292  1.0000
  H   H122      1.0  0.89995  0.44462  0.22559  1.0000
  H   H123      1.0  0.90296  0.40657  0.22138  1.0000
  C   C250      1.0  0.86907  0.49075  0.28291  1.0000
  C   C251      1.0  0.86759  0.46666  0.28210  1.0000
  H   H124      1.0  0.86167  0.49575  0.22971  1.0000
  H   H125      1.0  0.85873  0.45461  0.22891  1.0000
  C   C252      1.0  0.94356  0.35939  0.34832  1.0000
  C   C253      1.0  0.95522  0.35360  0.27573  1.0000
  C   C254      1.0  0.98232  0.36438  0.27398  1.0000
  C   C255      1.0  0.99843  0.38132  0.34181  1.0000
  H   H126      1.0  0.99044  0.36051  0.22009  1.0000
  N   N33       1.0  0.93981  0.33846  0.20322  1.0000
  O   O65       1.0  0.94593  0.35084  0.13055  1.0000
  O   O66       1.0  0.94151  0.31863  0.19320  1.0000
  C   C256      1.0  0.99780  0.63178  0.33384  1.0000
  C   C257      1.0  0.98512  0.61601  0.25795  1.0000
  C   C258      1.0  0.95797  0.60055  0.25767  1.0000
  C   C259      1.0  0.94280  0.60016  0.33107  1.0000
  H   H127      1.0  0.94928  0.58833  0.20466  1.0000
  N   N34       1.0  0.99969  0.61433  0.18598  1.0000
  O   O67       1.0  0.99430  0.62092  0.11253  1.0000
  O   O68       1.0  0.99629  0.59205  0.17772  1.0000
  C   C260      1.0  0.88615  0.53378  0.34915  1.0000
  C   C261      1.0  0.91145  0.55465  0.34357  1.0000
  C   C262      1.0  0.91662  0.58024  0.33751  1.0000
  C   C263      1.0  0.89563  0.58477  0.33887  1.0000
  C   C264      1.0  0.86990  0.56419  0.34506  1.0000
  C   C265      1.0  0.86560  0.53879  0.34906  1.0000
  H   H128      1.0  0.89915  0.60323  0.33532  1.0000
  H   H129      1.0  0.84720  0.52364  0.35226  1.0000
  H   H130      1.0  0.92643  0.55108  0.34298  1.0000
  C   C266      1.0  0.88644  0.36897  0.34129  1.0000
  C   C267      1.0  0.91179  0.37344  0.34483  1.0000
  C   C268      1.0  0.91719  0.35310  0.34595  1.0000
  C   C269      1.0  0.89623  0.32758  0.34168  1.0000
  C   C270      1.0  0.87048  0.32238  0.33680  1.0000
  C   C271      1.0  0.86602  0.34336  0.33792  1.0000
  H   H131      1.0  0.89977  0.31262  0.34152  1.0000
  H   H132      1.0  0.84757  0.34000  0.33547  1.0000
  H   H133      1.0  0.92668  0.39202  0.34690  1.0000
  C   C272      1.0  0.76978  0.58046  0.40634  1.0000
  H   H134      1.0  0.78135  0.58863  0.46117  1.0000
  C   C273      1.0  0.82950  0.55738  0.41407  1.0000
  C   C274      1.0  0.80704  0.55915  0.41086  1.0000
  H   H135      1.0  0.83188  0.54782  0.46680  1.0000
  H   H136      1.0  0.79375  0.55053  0.46096  1.0000
  C   C275      1.0  0.82103  0.25546  0.40635  1.0000
  C   C276      1.0  0.84359  0.27969  0.40459  1.0000
  H   H137      1.0  0.81763  0.24390  0.46119  1.0000
  H   H138      1.0  0.85562  0.28516  0.45903  1.0000
  C   C277      1.0  0.88196  0.39011  0.34173  1.0000
  C   C278      1.0  0.86846  0.39401  0.41280  1.0000
  C   C279      1.0  0.86672  0.41665  0.41401  1.0000
  C   C280      1.0  0.87820  0.43555  0.34624  1.0000
  C   C281      1.0  0.87848  0.45931  0.35234  1.0000
  C   C282      1.0  0.89101  0.47667  0.42455  1.0000
  C   C283      1.0  0.89266  0.50099  0.42377  1.0000
  C   C284      1.0  0.88192  0.50835  0.35325  1.0000
  H   H139      1.0  0.90230  0.51365  0.47478  1.0000
  H   H140      1.0  0.85745  0.41960  0.46644  1.0000
  N   N35       1.0  0.90273  0.47002  0.49418  1.0000
  N   N36       1.0  0.85802  0.37590  0.48370  1.0000
  O   O69       1.0  0.89323  0.46987  0.56973  1.0000
  O   O70       1.0  0.83417  0.36663  0.48980  1.0000
  O   O71       1.0  0.92654  0.48517  0.49734  1.0000
  O   O72       1.0  0.86811  0.38571  0.55812  1.0000
  C   C285      1.0  0.98643  0.38614  0.41509  1.0000
  C   C286      1.0  0.95961  0.37542  0.41822  1.0000
  H   H141      1.0  0.99726  0.39872  0.46471  1.0000
  H   H142      1.0  0.95194  0.38046  0.47052  1.0000
  C   C287      1.0  0.95549  0.61620  0.40531  1.0000
  C   C288      1.0  0.98246  0.63167  0.40656  1.0000
  H   H143      1.0  0.94532  0.61557  0.46144  1.0000
  H   H144      1.0  0.99095  0.64234  0.46298  1.0000
