data_image0
_chemical_formula_structural       CNC2NC4NC18H14C2NC16H12C3NC2NC5NC4NC18H14CNC16H12C11H11CNCNC4NC16H13C2NC3NHCH3C2NC2NHCH3C2NC2NHCH3C2NC2NHCH3C2NCNHCH3C2NCNHCH3C2NC2NHCH3C2NC2NHCH3C2NC3NHCH3C2NC3NHCH3C2NC3NHCH3C2NC2NHCH3C7NC12H12C2NC3NC3NC18H14C12H12C3NC3NC3NC18H14C3NC3NC2NC5NC20H15C8NC14H13C2HC5H3C2HC6H3C2HC6H3C2HC6H3C3HC6H3C3HC6H3C2HC6H3C2HC6H3C2HC5H3C2HC5H3C2HC5H3C2HC6H3
_chemical_formula_sum              "C420 N48 H252"
_cell_length_a       68.571
_cell_length_b       68.5709
_cell_length_c       15.0146
_cell_angle_alpha    90.0014
_cell_angle_beta     89.9712
_cell_angle_gamma    120

_space_group_name_H-M_alt    "P 1"
_space_group_IT_number       1

loop_
  _space_group_symop_operation_xyz
  'x, y, z'

loop_
  _atom_site_type_symbol
  _atom_site_label
  _atom_site_symmetry_multiplicity
  _atom_site_fract_x
  _atom_site_fract_y
  _atom_site_fract_z
  _atom_site_occupancy
  C   C1        1.0  0.27247  0.51105  0.31922  1.0000
  N   N1        1.0  0.26522  0.47625  0.33054  1.0000
  C   C2        1.0  0.28803  0.48897  0.32787  1.0000
  C   C3        1.0  0.30470  0.48235  0.33037  1.0000
  N   N2        1.0  0.27937  0.44069  0.33364  1.0000
  C   C4        1.0  0.28105  0.42187  0.33527  1.0000
  C   C5        1.0  0.30409  0.42927  0.33689  1.0000
  C   C6        1.0  0.31561  0.45245  0.33382  1.0000
  C   C7        1.0  0.26336  0.39905  0.33613  1.0000
  N   N3        1.0  0.22974  0.40466  0.33439  1.0000
  C   C8        1.0  0.20695  0.39192  0.33714  1.0000
  C   C9        1.0  0.22251  0.36978  0.34171  1.0000
  C   C10       1.0  0.21392  0.45915  0.33011  1.0000
  C   C11       1.0  0.23158  0.48199  0.32853  1.0000
  C   C12       1.0  0.22557  0.49926  0.32933  1.0000
  C   C13       1.0  0.21335  0.50168  0.25860  1.0000
  C   C14       1.0  0.20789  0.51891  0.25962  1.0000
  C   C15       1.0  0.21609  0.53558  0.32706  1.0000
  C   C16       1.0  0.15764  0.36557  0.26514  1.0000
  C   C17       1.0  0.13474  0.34891  0.26597  1.0000
  C   C18       1.0  0.26960  0.38202  0.33507  1.0000
  C   C19       1.0  0.28422  0.34926  0.33463  1.0000
  C   C20       1.0  0.28808  0.36381  0.26099  1.0000
  C   C21       1.0  0.28041  0.37935  0.25996  1.0000
  C   C22       1.0  0.32791  0.49961  0.32886  1.0000
  C   C23       1.0  0.33733  0.51334  0.25307  1.0000
  C   C24       1.0  0.35963  0.53135  0.25425  1.0000
  C   C25       1.0  0.37409  0.53574  0.32867  1.0000
  H   H1        1.0  0.36476  0.54162  0.19979  1.0000
  H   H2        1.0  0.32762  0.51103  0.19793  1.0000
  H   H3        1.0  0.27129  0.52526  0.31304  1.0000
  H   H4        1.0  0.25723  0.46017  0.33709  1.0000
  H   H5        1.0  0.23772  0.42075  0.32821  1.0000
  H   H6        1.0  0.33276  0.46216  0.33276  1.0000
  H   H7        1.0  0.31167  0.41970  0.33937  1.0000
  H   H8        1.0  0.28371  0.38948  0.20533  1.0000
  H   H9        1.0  0.29719  0.36392  0.20704  1.0000
  H   H10       1.0  0.22371  0.35553  0.34413  1.0000
  H   H11       1.0  0.16751  0.36597  0.21317  1.0000
  H   H12       1.0  0.12894  0.33723  0.21612  1.0000
  H   H13       1.0  0.19795  0.51919  0.20969  1.0000
  H   H14       1.0  0.20796  0.49061  0.20633  1.0000
  C   C26       1.0  0.54374  0.76117  0.31853  1.0000
  C   C27       1.0  0.56578  0.79880  0.32805  1.0000
  N   N4        1.0  0.61404  0.83843  0.33421  1.0000
  C   C28       1.0  0.63286  0.85893  0.33605  1.0000
  C   C29       1.0  0.62545  0.87456  0.33818  1.0000
  C   C30       1.0  0.60227  0.86289  0.33523  1.0000
  C   C31       1.0  0.65568  0.86407  0.33653  1.0000
  C   C32       1.0  0.66285  0.81481  0.33710  1.0000
  C   C33       1.0  0.68498  0.85252  0.34105  1.0000
  C   C34       1.0  0.59562  0.75454  0.33071  1.0000
  C   C35       1.0  0.55315  0.71141  0.25916  1.0000
  C   C36       1.0  0.53590  0.68872  0.26019  1.0000
  C   C37       1.0  0.68918  0.79180  0.26544  1.0000
  C   C38       1.0  0.70585  0.78556  0.26631  1.0000
  C   C39       1.0  0.67270  0.88735  0.33544  1.0000
  C   C40       1.0  0.69086  0.92405  0.26140  1.0000
  C   C41       1.0  0.67532  0.90083  0.26042  1.0000
  C   C42       1.0  0.54148  0.82382  0.25362  1.0000
  C   C43       1.0  0.52349  0.82814  0.25468  1.0000
  H   H15       1.0  0.51330  0.82309  0.20002  1.0000
  H   H16       1.0  0.54388  0.81652  0.19833  1.0000
  H   H17       1.0  0.52954  0.74578  0.31215  1.0000
  H   H18       1.0  0.59256  0.87033  0.33443  1.0000
  H   H19       1.0  0.63501  0.89171  0.34085  1.0000
  H   H20       1.0  0.66514  0.89401  0.20594  1.0000
  H   H21       1.0  0.69069  0.93305  0.20762  1.0000
  H   H22       1.0  0.69921  0.86797  0.34361  1.0000
  H   H23       1.0  0.68876  0.80121  0.21335  1.0000
  H   H24       1.0  0.71751  0.79140  0.21636  1.0000
  H   H25       1.0  0.53564  0.67847  0.21038  1.0000
  H   H26       1.0  0.56426  0.71707  0.20700  1.0000
  C   C44       1.0  0.27362  0.76218  0.32146  1.0000
  C   C45       1.0  0.29359  0.78233  0.31806  1.0000
  C   C46       1.0  0.28885  0.79985  0.32587  1.0000
  N   N5        1.0  0.26604  0.78956  0.33007  1.0000
  C   C47       1.0  0.25596  0.76675  0.32724  1.0000
  C   C48       1.0  0.23267  0.75008  0.33013  1.0000
  N   N6        1.0  0.21633  0.77539  0.33323  1.0000
  C   C49       1.0  0.19583  0.77371  0.33503  1.0000
  C   C50       1.0  0.18020  0.75067  0.33715  1.0000
  C   C51       1.0  0.19186  0.73916  0.33417  1.0000
  C   C52       1.0  0.19069  0.79140  0.33557  1.0000
  C   C53       1.0  0.20711  0.81475  0.33635  1.0000
  N   N7        1.0  0.22992  0.82503  0.33358  1.0000
  C   C54       1.0  0.23996  0.84782  0.33614  1.0000
  C   C55       1.0  0.22228  0.85237  0.34236  1.0000
  C   C56       1.0  0.20225  0.83225  0.33995  1.0000
  C   C57       1.0  0.26325  0.86447  0.33382  1.0000
  N   N8        1.0  0.27970  0.83915  0.33061  1.0000
  C   C58       1.0  0.30023  0.84085  0.32993  1.0000
  C   C59       1.0  0.30541  0.82320  0.32819  1.0000
  C   C60       1.0  0.32869  0.82920  0.32910  1.0000
  C   C61       1.0  0.34339  0.84152  0.25857  1.0000
  C   C62       1.0  0.36608  0.84697  0.25971  1.0000
  C   C63       1.0  0.37449  0.83870  0.32707  1.0000
  C   C64       1.0  0.26918  0.88770  0.33518  1.0000
  C   C65       1.0  0.26303  0.89718  0.26458  1.0000
  C   C66       1.0  0.26926  0.92008  0.26552  1.0000
  C   C67       1.0  0.28344  0.93477  0.33286  1.0000
  C   C68       1.0  0.16742  0.78514  0.33450  1.0000
  C   C69       1.0  0.12005  0.77051  0.33413  1.0000
  C   C70       1.0  0.13072  0.76660  0.26058  1.0000
  C   C71       1.0  0.15394  0.77427  0.25955  1.0000
  C   C72       1.0  0.22673  0.72687  0.32865  1.0000
  C   C73       1.0  0.23096  0.71743  0.25275  1.0000
  C   C74       1.0  0.22669  0.69514  0.25397  1.0000
  C   C75       1.0  0.21666  0.68068  0.32845  1.0000
  H   H27       1.0  0.23178  0.69001  0.19937  1.0000
  H   H28       1.0  0.23834  0.72714  0.19756  1.0000
  H   H29       1.0  0.30899  0.78351  0.31184  1.0000
  H   H30       1.0  0.25795  0.79753  0.33740  1.0000
  H   H31       1.0  0.23805  0.81705  0.32857  1.0000
  H   H32       1.0  0.18442  0.72201  0.33338  1.0000
  H   H33       1.0  0.16305  0.74309  0.33982  1.0000
  H   H34       1.0  0.16076  0.77090  0.20503  1.0000
  H   H35       1.0  0.12172  0.75742  0.20683  1.0000
  H   H36       1.0  0.18680  0.83104  0.34229  1.0000
  H   H37       1.0  0.25365  0.88736  0.21241  1.0000
  H   H38       1.0  0.26346  0.92591  0.21552  1.0000
  H   H39       1.0  0.37635  0.85697  0.20994  1.0000
  H   H40       1.0  0.33775  0.84696  0.20637  1.0000
  C   C76       1.0  0.78515  0.54738  0.32849  1.0000
  N   N9        1.0  0.79380  0.59566  0.33440  1.0000
  C   C77       1.0  0.79213  0.61448  0.33615  1.0000
  C   C78       1.0  0.76909  0.60708  0.33808  1.0000
  C   C79       1.0  0.75757  0.58390  0.33502  1.0000
  C   C80       1.0  0.80982  0.63730  0.33677  1.0000
  C   C81       1.0  0.86623  0.64444  0.33725  1.0000
  C   C82       1.0  0.85067  0.66658  0.34141  1.0000
  C   C83       1.0  0.85925  0.57720  0.33060  1.0000
  C   C84       1.0  0.85987  0.53471  0.25909  1.0000
  C   C85       1.0  0.86534  0.51748  0.26012  1.0000
  C   C86       1.0  0.91555  0.67074  0.26526  1.0000
  C   C87       1.0  0.93845  0.68742  0.26605  1.0000
  C   C88       1.0  0.80357  0.65433  0.33566  1.0000
  C   C89       1.0  0.78504  0.67249  0.26163  1.0000
  C   C90       1.0  0.79275  0.65697  0.26058  1.0000
  C   C91       1.0  0.73586  0.52305  0.25385  1.0000
  C   C92       1.0  0.71355  0.50505  0.25500  1.0000
  H   H41       1.0  0.70844  0.49481  0.20048  1.0000
  H   H42       1.0  0.74558  0.52538  0.19868  1.0000
  H   H43       1.0  0.80189  0.51110  0.31335  1.0000
  H   H44       1.0  0.74042  0.57419  0.33404  1.0000
  H   H45       1.0  0.76151  0.61665  0.34060  1.0000
  H   H46       1.0  0.78937  0.64677  0.20613  1.0000
  H   H47       1.0  0.77589  0.67232  0.20780  1.0000
  H   H48       1.0  0.84946  0.68083  0.34389  1.0000
  H   H49       1.0  0.90570  0.67032  0.21325  1.0000
  H   H50       1.0  0.94425  0.69907  0.21608  1.0000
  H   H51       1.0  0.87533  0.51722  0.21025  1.0000
  H   H52       1.0  0.86529  0.54580  0.20688  1.0000
  C   C93       1.0  0.44029  0.17742  0.33631  1.0000
  C   C94       1.0  0.44769  0.16178  0.33798  1.0000
  C   C95       1.0  0.47087  0.17344  0.33498  1.0000
  C   C96       1.0  0.52010  0.32493  0.25957  1.0000
  C   C97       1.0  0.53733  0.34763  0.26057  1.0000
  C   C98       1.0  0.38403  0.24455  0.26573  1.0000
  C   C99       1.0  0.36736  0.25078  0.26646  1.0000
  C   C100      1.0  0.38227  0.11237  0.26155  1.0000
  C   C101      1.0  0.39782  0.13558  0.26067  1.0000
  C   C102      1.0  0.53175  0.21261  0.25415  1.0000
  C   C103      1.0  0.54976  0.20832  0.25526  1.0000
  H   H53       1.0  0.56002  0.21346  0.20076  1.0000
  H   H54       1.0  0.52944  0.22001  0.19903  1.0000
  H   H55       1.0  0.54369  0.29057  0.31412  1.0000
  H   H56       1.0  0.48058  0.16600  0.33397  1.0000
  H   H57       1.0  0.40798  0.14244  0.20612  1.0000
  H   H58       1.0  0.38242  0.10341  0.20758  1.0000
  H   H59       1.0  0.37395  0.16843  0.34481  1.0000
  H   H60       1.0  0.38445  0.23510  0.21378  1.0000
  H   H61       1.0  0.35570  0.24491  0.21656  1.0000
  H   H62       1.0  0.53762  0.35785  0.21062  1.0000
  H   H63       1.0  0.50904  0.31925  0.20731  1.0000
  C   C104      1.0  0.77957  0.25401  0.31855  1.0000
  N   N10       1.0  0.80712  0.24679  0.33080  1.0000
  C   C105      1.0  0.81720  0.26960  0.32795  1.0000
  N   N11       1.0  0.85683  0.26097  0.33400  1.0000
  C   C106      1.0  0.87734  0.26265  0.33580  1.0000
  C   C107      1.0  0.89297  0.28569  0.33790  1.0000
  C   C108      1.0  0.88130  0.29720  0.33497  1.0000
  C   C109      1.0  0.88248  0.24496  0.33629  1.0000
  N   N12       1.0  0.84326  0.21133  0.33432  1.0000
  C   C110      1.0  0.83322  0.18854  0.33693  1.0000
  C   C111      1.0  0.87092  0.20412  0.34083  1.0000
  C   C112      1.0  0.77294  0.19549  0.33072  1.0000
  C   C113      1.0  0.76776  0.21315  0.32897  1.0000
  C   C114      1.0  0.72980  0.19484  0.25935  1.0000
  C   C115      1.0  0.70711  0.18941  0.26047  1.0000
  C   C116      1.0  0.69869  0.19769  0.32779  1.0000
  C   C117      1.0  0.81021  0.13921  0.26520  1.0000
  C   C118      1.0  0.80399  0.11632  0.26603  1.0000
  C   C119      1.0  0.90575  0.25123  0.33518  1.0000
  C   C120      1.0  0.95312  0.26585  0.33463  1.0000
  C   C121      1.0  0.94245  0.26977  0.26113  1.0000
  C   C122      1.0  0.91924  0.26209  0.26015  1.0000
  C   C123      1.0  0.84643  0.30949  0.32943  1.0000
  C   C124      1.0  0.84222  0.31893  0.25353  1.0000
  C   C125      1.0  0.84654  0.34125  0.25463  1.0000
  H   H64       1.0  0.84148  0.34639  0.20000  1.0000
  H   H65       1.0  0.83492  0.30925  0.19824  1.0000
  H   H66       1.0  0.76418  0.25282  0.31222  1.0000
  H   H67       1.0  0.81521  0.23883  0.33860  1.0000
  H   H68       1.0  0.88874  0.31435  0.33417  1.0000
  H   H69       1.0  0.91012  0.29327  0.34054  1.0000
  H   H70       1.0  0.91242  0.26546  0.20567  1.0000
  H   H71       1.0  0.95146  0.27895  0.20733  1.0000
  H   H72       1.0  0.88637  0.20533  0.34337  1.0000
  H   H73       1.0  0.81962  0.14906  0.21310  1.0000
  H   H74       1.0  0.80983  0.11051  0.21605  1.0000
  H   H75       1.0  0.69686  0.17942  0.21070  1.0000
  H   H76       1.0  0.73545  0.18940  0.20716  1.0000
  C   C126      1.0  0.21266  0.55461  0.32437  1.0000
  C   C127      1.0  0.21619  0.56802  0.24665  1.0000
  N   N13       1.0  0.21439  0.58682  0.25307  1.0000
  C   C128      1.0  0.20976  0.59438  0.32899  1.0000
  C   C129      1.0  0.20968  0.61491  0.33007  1.0000
  C   C130      1.0  0.21249  0.64634  0.25100  1.0000
  N   N14       1.0  0.21144  0.62611  0.25346  1.0000
  H   H77       1.0  0.21318  0.65287  0.18937  1.0000
  C   C131      1.0  0.22411  0.56472  0.15899  1.0000
  H   H78       1.0  0.23802  0.56145  0.16768  1.0000
  H   H79       1.0  0.23015  0.57964  0.11681  1.0000
  H   H80       1.0  0.21039  0.55074  0.12359  1.0000
  C   C132      1.0  0.50014  0.65783  0.32476  1.0000
  C   C133      1.0  0.48677  0.64795  0.24701  1.0000
  N   N15       1.0  0.46796  0.62734  0.25339  1.0000
  C   C134      1.0  0.46037  0.61516  0.32933  1.0000
  C   C135      1.0  0.40844  0.56592  0.25126  1.0000
  N   N16       1.0  0.42867  0.58511  0.25375  1.0000
  H   H81       1.0  0.40192  0.56007  0.18962  1.0000
  C   C136      1.0  0.49012  0.65916  0.15934  1.0000
  H   H82       1.0  0.49337  0.67634  0.16799  1.0000
  H   H83       1.0  0.47524  0.65028  0.11705  1.0000
  H   H84       1.0  0.50413  0.65944  0.12406  1.0000
  C   C137      1.0  0.39697  0.84216  0.32450  1.0000
  C   C138      1.0  0.40690  0.83867  0.24683  1.0000
  N   N17       1.0  0.42751  0.84048  0.25334  1.0000
  C   C139      1.0  0.43964  0.84507  0.32935  1.0000
  C   C140      1.0  0.48893  0.84238  0.25162  1.0000
  N   N18       1.0  0.46975  0.84344  0.25397  1.0000
  H   H85       1.0  0.49480  0.84172  0.19001  1.0000
  C   C141      1.0  0.39574  0.83080  0.15910  1.0000
  H   H86       1.0  0.37856  0.81687  0.16766  1.0000
  H   H87       1.0  0.40466  0.82483  0.11688  1.0000
  H   H88       1.0  0.39546  0.84454  0.12380  1.0000
  C   C142      1.0  0.86059  0.48179  0.32483  1.0000
  C   C143      1.0  0.85707  0.46838  0.24715  1.0000
  N   N19       1.0  0.85888  0.44958  0.25357  1.0000
  C   C144      1.0  0.86349  0.44201  0.32953  1.0000
  C   C145      1.0  0.86077  0.39005  0.25165  1.0000
  N   N20       1.0  0.86184  0.41029  0.25406  1.0000
  H   H89       1.0  0.86010  0.38352  0.19003  1.0000
  C   C146      1.0  0.84918  0.47168  0.15948  1.0000
  H   H90       1.0  0.83525  0.47492  0.16816  1.0000
  H   H91       1.0  0.84319  0.45678  0.11726  1.0000
  H   H92       1.0  0.86291  0.48569  0.12412  1.0000
  C   C147      1.0  0.57301  0.37857  0.32529  1.0000
  C   C148      1.0  0.58644  0.38845  0.24761  1.0000
  N   N21       1.0  0.60524  0.40906  0.25401  1.0000
  C   C149      1.0  0.66475  0.47049  0.25196  1.0000
  N   N22       1.0  0.64451  0.45131  0.25441  1.0000
  H   H93       1.0  0.67129  0.47634  0.19034  1.0000
  C   C150      1.0  0.58316  0.37724  0.15997  1.0000
  H   H94       1.0  0.57990  0.36007  0.16869  1.0000
  H   H95       1.0  0.59807  0.38613  0.11779  1.0000
  H   H96       1.0  0.56917  0.37697  0.12455  1.0000
  C   C151      1.0  0.67623  0.19426  0.32518  1.0000
  C   C152      1.0  0.66633  0.19775  0.24747  1.0000
  N   N23       1.0  0.64572  0.19595  0.25395  1.0000
  C   C153      1.0  0.58430  0.19404  0.25210  1.0000
  N   N24       1.0  0.60348  0.19299  0.25450  1.0000
  H   H97       1.0  0.57844  0.19471  0.19049  1.0000
  C   C154      1.0  0.67753  0.20563  0.15976  1.0000
  H   H98       1.0  0.69470  0.21955  0.16834  1.0000
  H   H99       1.0  0.66863  0.21162  0.11751  1.0000
  H   H100      1.0  0.67780  0.19189  0.12447  1.0000
  C   C155      1.0  0.09614  0.33316  0.32985  1.0000
  C   C156      1.0  0.08273  0.32959  0.25215  1.0000
  N   N25       1.0  0.05999  0.31659  0.25848  1.0000
  C   C157      1.0  0.04860  0.30679  0.33433  1.0000
  C   C158      1.0  0.99022  0.28047  0.25670  1.0000
  N   N26       1.0  0.01296  0.29073  0.25899  1.0000
  H   H101      1.0  0.98303  0.27764  0.19518  1.0000
  C   C159      1.0  0.09115  0.34071  0.16464  1.0000
  H   H102      1.0  0.10273  0.35870  0.17354  1.0000
  H   H103      1.0  0.07741  0.33885  0.12203  1.0000
  H   H104      1.0  0.09965  0.33316  0.12958  1.0000
  C   C160      1.0  0.72160  0.76273  0.33038  1.0000
  C   C161      1.0  0.72519  0.75290  0.25268  1.0000
  N   N27       1.0  0.73819  0.74316  0.25900  1.0000
  C   C162      1.0  0.74800  0.74160  0.33483  1.0000
  C   C163      1.0  0.77434  0.70954  0.25720  1.0000
  N   N28       1.0  0.76407  0.72202  0.25949  1.0000
  H   H105      1.0  0.77718  0.70519  0.19568  1.0000
  C   C164      1.0  0.71406  0.75016  0.16520  1.0000
  H   H106      1.0  0.69608  0.74378  0.17415  1.0000
  H   H107      1.0  0.71590  0.73823  0.12269  1.0000
  H   H108      1.0  0.72163  0.76619  0.12999  1.0000
  C   C165      1.0  0.29206  0.95864  0.32975  1.0000
  C   C166      1.0  0.30189  0.97208  0.25207  1.0000
  N   N29       1.0  0.31163  0.99482  0.25850  1.0000
  C   C167      1.0  0.31317  0.00618  0.33438  1.0000
  C   C168      1.0  0.32507  0.02991  0.33565  1.0000
  C   C169      1.0  0.34525  0.06459  0.25698  1.0000
  N   N30       1.0  0.33277  0.04185  0.25917  1.0000
  H   H109      1.0  0.34961  0.07180  0.19548  1.0000
  C   C170      1.0  0.30472  0.96373  0.16462  1.0000
  H   H110      1.0  0.31112  0.95215  0.17364  1.0000
  H   H111      1.0  0.31667  0.97751  0.12222  1.0000
  H   H112      1.0  0.28872  0.95526  0.12925  1.0000
  C   C171      1.0  0.97704  0.70319  0.32993  1.0000
  C   C172      1.0  0.99045  0.70679  0.25216  1.0000
  N   N31       1.0  0.01319  0.71977  0.25841  1.0000
  C   C173      1.0  0.02458  0.72959  0.33421  1.0000
  C   C174      1.0  0.04832  0.74141  0.33529  1.0000
  C   C175      1.0  0.08296  0.75589  0.25634  1.0000
  N   N32       1.0  0.06022  0.74564  0.25871  1.0000
  H   H113      1.0  0.09014  0.75872  0.19478  1.0000
  C   C176      1.0  0.98206  0.69560  0.16477  1.0000
  H   H114      1.0  0.97048  0.67762  0.17389  1.0000
  H   H115      1.0  0.99581  0.69743  0.12223  1.0000
  H   H116      1.0  0.97355  0.70311  0.12953  1.0000
  C   C177      1.0  0.35158  0.27361  0.33028  1.0000
  C   C178      1.0  0.34796  0.28339  0.25249  1.0000
  N   N33       1.0  0.33496  0.29313  0.25874  1.0000
  C   C179      1.0  0.32513  0.29470  0.33455  1.0000
  C   C180      1.0  0.31330  0.30661  0.33567  1.0000
  C   C181      1.0  0.29882  0.32676  0.25678  1.0000
  N   N34       1.0  0.30907  0.31428  0.25911  1.0000
  H   H117      1.0  0.29599  0.33111  0.19523  1.0000
  C   C182      1.0  0.35916  0.28618  0.16508  1.0000
  H   H118      1.0  0.37715  0.29262  0.17416  1.0000
  H   H119      1.0  0.35730  0.29807  0.12249  1.0000
  H   H120      1.0  0.35167  0.27015  0.12990  1.0000
  C   C183      1.0  0.78120  0.07773  0.33007  1.0000
  C   C184      1.0  0.77138  0.06431  0.25237  1.0000
  N   N35       1.0  0.76161  0.04157  0.25872  1.0000
  C   C185      1.0  0.76004  0.03018  0.33454  1.0000
  C   C186      1.0  0.72794  0.97180  0.25696  1.0000
  N   N36       1.0  0.74044  0.99454  0.25923  1.0000
  H   H121      1.0  0.72359  0.96461  0.19544  1.0000
  C   C187      1.0  0.76858  0.07270  0.16497  1.0000
  H   H122      1.0  0.76217  0.08427  0.17406  1.0000
  H   H123      1.0  0.75665  0.05894  0.12249  1.0000
  H   H124      1.0  0.78459  0.08120  0.12965  1.0000
  C   C188      1.0  0.29261  0.51122  0.32253  1.0000
  C   C189      1.0  0.25493  0.48878  0.32653  1.0000
  C   C190      1.0  0.29980  0.45962  0.33304  1.0000
  C   C191      1.0  0.24001  0.39212  0.33738  1.0000
  C   C192      1.0  0.20239  0.36970  0.34406  1.0000
  C   C193      1.0  0.19030  0.39855  0.33430  1.0000
  C   C194      1.0  0.19523  0.42132  0.33118  1.0000
  N   N37       1.0  0.21562  0.44032  0.33108  1.0000
  C   C195      1.0  0.19088  0.45170  0.33089  1.0000
  C   C196      1.0  0.17944  0.42853  0.32817  1.0000
  C   C197      1.0  0.22830  0.53298  0.39784  1.0000
  C   C198      1.0  0.23230  0.51479  0.40052  1.0000
  C   C199      1.0  0.16707  0.38126  0.33559  1.0000
  C   C200      1.0  0.12000  0.34844  0.33308  1.0000
  C   C201      1.0  0.12967  0.36410  0.40388  1.0000
  C   C202      1.0  0.15287  0.37965  0.40682  1.0000
  C   C203      1.0  0.26580  0.36797  0.40940  1.0000
  C   C204      1.0  0.27235  0.35154  0.40788  1.0000
  C   C205      1.0  0.34190  0.50361  0.40355  1.0000
  C   C206      1.0  0.36459  0.52086  0.40230  1.0000
  H   H125      1.0  0.37396  0.52232  0.45727  1.0000
  H   H126      1.0  0.33569  0.49381  0.45935  1.0000
  H   H127      1.0  0.30797  0.52558  0.32018  1.0000
  H   H128      1.0  0.25791  0.36940  0.46486  1.0000
  H   H129      1.0  0.26829  0.34132  0.46231  1.0000
  H   H130      1.0  0.18705  0.35539  0.34891  1.0000
  H   H131      1.0  0.18321  0.46118  0.33117  1.0000
  H   H132      1.0  0.16230  0.41888  0.32652  1.0000
  H   H133      1.0  0.15911  0.39070  0.45906  1.0000
  H   H134      1.0  0.11982  0.36471  0.45377  1.0000
  H   H135      1.0  0.24125  0.51363  0.45285  1.0000
  H   H136      1.0  0.23489  0.54462  0.44792  1.0000
  C   C207      1.0  0.54355  0.78113  0.32209  1.0000
  C   C208      1.0  0.56600  0.76592  0.32658  1.0000
  N   N38       1.0  0.57851  0.78872  0.33089  1.0000
  C   C209      1.0  0.57239  0.82208  0.33106  1.0000
  C   C210      1.0  0.59510  0.83992  0.33403  1.0000
  C   C211      1.0  0.66263  0.84766  0.33734  1.0000
  N   N39       1.0  0.65010  0.82485  0.33451  1.0000
  C   C212      1.0  0.68507  0.83249  0.34351  1.0000
  C   C213      1.0  0.65622  0.79153  0.33467  1.0000
  C   C214      1.0  0.63345  0.77368  0.33182  1.0000
  N   N40       1.0  0.61445  0.77507  0.33145  1.0000
  C   C215      1.0  0.60307  0.73895  0.33179  1.0000
  C   C216      1.0  0.62625  0.75068  0.32934  1.0000
  C   C217      1.0  0.57278  0.74935  0.32892  1.0000
  C   C218      1.0  0.55551  0.72607  0.32975  1.0000
  C   C219      1.0  0.51918  0.68029  0.32746  1.0000
  C   C220      1.0  0.52171  0.69513  0.39806  1.0000
  C   C221      1.0  0.53993  0.71731  0.40082  1.0000
  C   C222      1.0  0.67352  0.78560  0.33600  1.0000
  C   C223      1.0  0.70634  0.77135  0.33356  1.0000
  C   C224      1.0  0.69071  0.76542  0.40452  1.0000
  C   C225      1.0  0.67515  0.77306  0.40738  1.0000
  C   C226      1.0  0.68680  0.89759  0.40961  1.0000
  C   C227      1.0  0.70321  0.92058  0.40808  1.0000
  C   C228      1.0  0.70543  0.93472  0.33492  1.0000
  C   C229      1.0  0.55512  0.82802  0.32956  1.0000
  C   C230      1.0  0.55104  0.83793  0.40437  1.0000
  C   C231      1.0  0.51902  0.83813  0.32922  1.0000
  C   C232      1.0  0.53381  0.84340  0.40305  1.0000
  H   H137      1.0  0.53230  0.85126  0.45813  1.0000
  H   H138      1.0  0.56078  0.84145  0.46029  1.0000
  H   H139      1.0  0.52919  0.78212  0.31936  1.0000
  H   H140      1.0  0.59456  0.79680  0.33871  1.0000
  H   H141      1.0  0.63399  0.81672  0.32917  1.0000
  H   H142      1.0  0.68540  0.88826  0.46501  1.0000
  H   H143      1.0  0.71347  0.92674  0.46238  1.0000
  H   H144      1.0  0.69939  0.83147  0.34837  1.0000
  H   H145      1.0  0.59359  0.72179  0.33245  1.0000
  H   H146      1.0  0.63590  0.74319  0.32772  1.0000
  H   H147      1.0  0.66413  0.76831  0.45974  1.0000
  H   H148      1.0  0.69010  0.75499  0.45450  1.0000
  H   H149      1.0  0.54101  0.72744  0.45292  1.0000
  H   H150      1.0  0.51003  0.69009  0.44802  1.0000
  C   C233      1.0  0.21484  0.75497  0.33302  1.0000
  C   C234      1.0  0.28110  0.85955  0.33102  1.0000
  C   C235      1.0  0.31582  0.86389  0.33106  1.0000
  C   C236      1.0  0.30409  0.87534  0.32865  1.0000
  C   C237      1.0  0.35962  0.82639  0.39761  1.0000
  C   C238      1.0  0.33743  0.82239  0.40022  1.0000
  C   C239      1.0  0.28934  0.92505  0.40379  1.0000
  C   C240      1.0  0.28166  0.90184  0.40670  1.0000
  C   C241      1.0  0.15718  0.78903  0.40869  1.0000
  C   C242      1.0  0.13419  0.78245  0.40722  1.0000
  C   C243      1.0  0.21678  0.71288  0.40345  1.0000
  C   C244      1.0  0.21132  0.69019  0.40218  1.0000
  H   H151      1.0  0.20342  0.68082  0.45722  1.0000
  H   H152      1.0  0.21322  0.71910  0.45931  1.0000
  H   H153      1.0  0.27264  0.74683  0.31898  1.0000
  H   H154      1.0  0.16650  0.79696  0.46405  1.0000
  H   H155      1.0  0.12803  0.78655  0.46154  1.0000
  H   H156      1.0  0.22330  0.86771  0.34712  1.0000
  H   H157      1.0  0.33298  0.87156  0.33190  1.0000
  H   H158      1.0  0.31159  0.89248  0.32714  1.0000
  H   H159      1.0  0.28642  0.89557  0.45898  1.0000
  H   H160      1.0  0.29974  0.93486  0.45384  1.0000
  H   H161      1.0  0.32729  0.81337  0.45236  1.0000
  H   H162      1.0  0.36465  0.81977  0.44766  1.0000
  C   C245      1.0  0.78057  0.52514  0.32303  1.0000
  C   C246      1.0  0.80071  0.52531  0.31956  1.0000
  C   C247      1.0  0.81824  0.54758  0.32700  1.0000
  N   N41       1.0  0.80796  0.56010  0.33116  1.0000
  C   C248      1.0  0.76848  0.55400  0.33117  1.0000
  C   C249      1.0  0.77338  0.57673  0.33400  1.0000
  C   C250      1.0  0.83317  0.64424  0.33764  1.0000
  N   N42       1.0  0.84344  0.63170  0.33471  1.0000
  C   C251      1.0  0.87078  0.66667  0.34373  1.0000
  C   C252      1.0  0.88288  0.63781  0.33468  1.0000
  C   C253      1.0  0.87795  0.61503  0.33169  1.0000
  N   N43       1.0  0.85755  0.59604  0.33145  1.0000
  C   C254      1.0  0.88229  0.58465  0.33148  1.0000
  C   C255      1.0  0.89374  0.60782  0.32896  1.0000
  C   C256      1.0  0.84159  0.55436  0.32901  1.0000
  C   C257      1.0  0.84760  0.53709  0.32979  1.0000
  C   C258      1.0  0.85711  0.50079  0.32751  1.0000
  C   C259      1.0  0.84485  0.50335  0.39822  1.0000
  C   C260      1.0  0.84084  0.52154  0.40094  1.0000
  C   C261      1.0  0.90611  0.65510  0.33587  1.0000
  C   C262      1.0  0.95318  0.68792  0.33322  1.0000
  C   C263      1.0  0.94349  0.67229  0.40417  1.0000
  C   C264      1.0  0.92029  0.65674  0.40718  1.0000
  C   C265      1.0  0.80742  0.66843  0.40985  1.0000
  C   C266      1.0  0.80085  0.68485  0.40829  1.0000
  C   C267      1.0  0.78895  0.68707  0.33513  1.0000
  C   C268      1.0  0.74527  0.53674  0.32969  1.0000
  C   C269      1.0  0.73127  0.53271  0.40443  1.0000
  C   C270      1.0  0.69908  0.50064  0.32944  1.0000
  C   C271      1.0  0.70857  0.51548  0.40314  1.0000
  H   H163      1.0  0.69919  0.51401  0.45813  1.0000
  H   H164      1.0  0.73747  0.54249  0.46026  1.0000
  H   H165      1.0  0.76521  0.51078  0.32062  1.0000
  H   H166      1.0  0.81594  0.57618  0.33788  1.0000
  H   H167      1.0  0.83545  0.61559  0.32946  1.0000
  H   H168      1.0  0.81533  0.66703  0.46526  1.0000
  H   H169      1.0  0.80493  0.69510  0.46261  1.0000
  H   H170      1.0  0.88613  0.68098  0.34851  1.0000
  H   H171      1.0  0.88996  0.57516  0.33225  1.0000
  H   H172      1.0  0.91088  0.61747  0.32755  1.0000
  H   H173      1.0  0.91404  0.64572  0.45953  1.0000
  H   H174      1.0  0.95333  0.67170  0.45412  1.0000
  H   H175      1.0  0.83186  0.52267  0.45321  1.0000
  H   H176      1.0  0.83825  0.49170  0.44830  1.0000
  C   C272      1.0  0.52965  0.25521  0.32366  1.0000
  C   C273      1.0  0.52948  0.27518  0.32033  1.0000
  C   C274      1.0  0.50720  0.27045  0.32762  1.0000
  N   N44       1.0  0.49468  0.24764  0.33168  1.0000
  C   C275      1.0  0.50740  0.23754  0.32901  1.0000
  C   C276      1.0  0.50077  0.21425  0.33153  1.0000
  C   C277      1.0  0.47805  0.19643  0.33419  1.0000
  N   N45       1.0  0.45912  0.19792  0.33472  1.0000
  C   C278      1.0  0.41747  0.17229  0.33705  1.0000
  C   C279      1.0  0.41054  0.18872  0.33824  1.0000
  N   N46       1.0  0.42308  0.21152  0.33530  1.0000
  C   C280      1.0  0.41034  0.22157  0.33794  1.0000
  C   C281      1.0  0.38812  0.20391  0.34476  1.0000
  C   C282      1.0  0.38820  0.18388  0.34245  1.0000
  C   C283      1.0  0.41698  0.24486  0.33510  1.0000
  C   C284      1.0  0.43975  0.26270  0.33206  1.0000
  N   N47       1.0  0.45875  0.26130  0.33203  1.0000
  C   C285      1.0  0.47758  0.28183  0.33110  1.0000
  C   C286      1.0  0.47013  0.29742  0.33186  1.0000
  C   C287      1.0  0.44696  0.28569  0.32907  1.0000
  C   C288      1.0  0.50042  0.28701  0.32957  1.0000
  C   C289      1.0  0.51769  0.31029  0.33034  1.0000
  C   C290      1.0  0.55399  0.35610  0.32802  1.0000
  C   C291      1.0  0.55140  0.34128  0.39881  1.0000
  C   C292      1.0  0.53321  0.31908  0.40152  1.0000
  C   C293      1.0  0.39968  0.25080  0.33626  1.0000
  C   C294      1.0  0.36686  0.26503  0.33355  1.0000
  C   C295      1.0  0.38250  0.27102  0.40443  1.0000
  C   C296      1.0  0.39805  0.26338  0.40748  1.0000
  C   C297      1.0  0.40045  0.14902  0.33584  1.0000
  C   C298      1.0  0.38635  0.13874  0.41005  1.0000
  C   C299      1.0  0.36992  0.11575  0.40838  1.0000
  C   C300      1.0  0.36770  0.10165  0.33508  1.0000
  C   C301      1.0  0.51804  0.20830  0.32999  1.0000
  C   C302      1.0  0.52204  0.19830  0.40465  1.0000
  C   C303      1.0  0.55415  0.19824  0.32965  1.0000
  C   C304      1.0  0.53928  0.19285  0.40333  1.0000
  H   H177      1.0  0.54074  0.18493  0.45829  1.0000
  H   H178      1.0  0.51224  0.19471  0.46048  1.0000
  H   H179      1.0  0.54401  0.25421  0.32132  1.0000
  H   H180      1.0  0.47860  0.23954  0.33824  1.0000
  H   H181      1.0  0.43918  0.21964  0.32921  1.0000
  H   H182      1.0  0.43812  0.14463  0.34045  1.0000
  H   H183      1.0  0.38775  0.14803  0.46555  1.0000
  H   H184      1.0  0.35968  0.10957  0.46273  1.0000
  H   H185      1.0  0.37381  0.20494  0.34952  1.0000
  H   H186      1.0  0.47961  0.31458  0.33216  1.0000
  H   H187      1.0  0.43731  0.29319  0.32737  1.0000
  H   H188      1.0  0.40908  0.26817  0.45977  1.0000
  H   H189      1.0  0.38308  0.28146  0.45432  1.0000
  H   H190      1.0  0.53206  0.30899  0.45387  1.0000
  H   H191      1.0  0.56304  0.34634  0.44890  1.0000
  C   C305      1.0  0.79954  0.27417  0.32205  1.0000
  C   C306      1.0  0.78432  0.23650  0.32657  1.0000
  C   C307      1.0  0.84049  0.28628  0.33090  1.0000
  C   C308      1.0  0.85832  0.28139  0.33382  1.0000
  C   C309      1.0  0.86606  0.22161  0.33712  1.0000
  C   C310      1.0  0.85089  0.18400  0.34331  1.0000
  C   C311      1.0  0.80993  0.17188  0.33452  1.0000
  C   C312      1.0  0.79208  0.17680  0.33174  1.0000
  N   N48       1.0  0.79347  0.19720  0.33140  1.0000
  C   C313      1.0  0.75735  0.17246  0.33184  1.0000
  C   C314      1.0  0.76908  0.16101  0.32932  1.0000
  C   C315      1.0  0.74448  0.20715  0.32988  1.0000
  C   C316      1.0  0.71354  0.20999  0.39833  1.0000
  C   C317      1.0  0.73572  0.21395  0.40100  1.0000
  C   C318      1.0  0.80400  0.14865  0.33580  1.0000
  C   C319      1.0  0.78978  0.10159  0.33331  1.0000
  C   C320      1.0  0.78384  0.11127  0.40428  1.0000
  C   C321      1.0  0.79147  0.13447  0.40717  1.0000
  C   C322      1.0  0.91599  0.24736  0.40936  1.0000
  C   C323      1.0  0.93898  0.25393  0.40780  1.0000
  C   C324      1.0  0.85634  0.32346  0.40424  1.0000
  C   C325      1.0  0.85653  0.35568  0.32917  1.0000
  C   C326      1.0  0.86181  0.34616  0.40296  1.0000
  H   H192      1.0  0.86967  0.35551  0.45803  1.0000
  H   H193      1.0  0.85987  0.31723  0.46013  1.0000
  H   H194      1.0  0.80052  0.28951  0.31933  1.0000
  H   H195      1.0  0.83512  0.21931  0.32899  1.0000
  H   H196      1.0  0.90666  0.23942  0.46475  1.0000
  H   H197      1.0  0.94514  0.24984  0.46211  1.0000
  H   H198      1.0  0.84987  0.16866  0.34817  1.0000
  H   H199      1.0  0.74019  0.16478  0.33255  1.0000
  H   H200      1.0  0.76159  0.14387  0.32771  1.0000
  H   H201      1.0  0.78671  0.14072  0.45956  1.0000
  H   H202      1.0  0.77342  0.10144  0.45427  1.0000
  H   H203      1.0  0.74586  0.22300  0.45306  1.0000
  H   H204      1.0  0.70851  0.21663  0.44831  1.0000
  C   C327      1.0  0.20678  0.58226  0.40892  1.0000
  C   C328      1.0  0.20747  0.56207  0.40461  1.0000
  H   H205      1.0  0.20495  0.55310  0.46220  1.0000
  C   C329      1.0  0.21298  0.65794  0.33014  1.0000
  C   C330      1.0  0.21052  0.64600  0.41081  1.0000
  C   C331      1.0  0.20829  0.62437  0.41206  1.0000
  C   C332      1.0  0.20546  0.61229  0.49181  1.0000
  C   C333      1.0  0.20415  0.59114  0.49000  1.0000
  H   H206      1.0  0.20433  0.61879  0.55172  1.0000
  H   H207      1.0  0.20235  0.58282  0.54872  1.0000
  H   H208      1.0  0.21115  0.65328  0.47082  1.0000
  C   C334      1.0  0.47245  0.62431  0.40928  1.0000
  C   C335      1.0  0.49265  0.64519  0.40501  1.0000
  H   H209      1.0  0.50158  0.65165  0.46263  1.0000
  C   C336      1.0  0.43984  0.59456  0.33037  1.0000
  C   C337      1.0  0.39681  0.55482  0.33039  1.0000
  C   C338      1.0  0.40872  0.56430  0.41109  1.0000
  C   C339      1.0  0.43035  0.58371  0.41236  1.0000
  C   C340      1.0  0.44240  0.59296  0.49213  1.0000
  C   C341      1.0  0.46354  0.61280  0.49036  1.0000
  H   H210      1.0  0.43588  0.58534  0.55204  1.0000
  H   H211      1.0  0.47184  0.61932  0.54910  1.0000
  H   H212      1.0  0.40142  0.55764  0.47108  1.0000
  C   C342      1.0  0.43044  0.84798  0.40924  1.0000
  C   C343      1.0  0.40956  0.84729  0.40483  1.0000
  H   H213      1.0  0.40306  0.84974  0.46242  1.0000
  C   C344      1.0  0.46025  0.84514  0.33054  1.0000
  C   C345      1.0  0.49997  0.84182  0.33081  1.0000
  C   C346      1.0  0.49044  0.84424  0.41145  1.0000
  C   C347      1.0  0.47103  0.84646  0.41260  1.0000
  C   C348      1.0  0.46173  0.84923  0.49231  1.0000
  C   C349      1.0  0.44190  0.85055  0.49040  1.0000
  H   H214      1.0  0.46929  0.85030  0.55228  1.0000
  H   H215      1.0  0.43532  0.85228  0.54911  1.0000
  H   H216      1.0  0.49702  0.84353  0.47149  1.0000
  C   C350      1.0  0.86643  0.45412  0.40944  1.0000
  C   C351      1.0  0.86574  0.47431  0.40510  1.0000
  H   H217      1.0  0.86821  0.48326  0.46270  1.0000
  C   C352      1.0  0.86356  0.42148  0.33065  1.0000
  C   C353      1.0  0.86022  0.37843  0.33081  1.0000
  C   C354      1.0  0.86265  0.39036  0.41147  1.0000
  C   C355      1.0  0.86488  0.41200  0.41267  1.0000
  C   C356      1.0  0.86768  0.42407  0.49241  1.0000
  C   C357      1.0  0.86903  0.44523  0.49055  1.0000
  H   H218      1.0  0.86874  0.41755  0.55235  1.0000
  H   H219      1.0  0.87074  0.45351  0.54929  1.0000
  H   H220      1.0  0.86195  0.38306  0.47149  1.0000
  C   C358      1.0  0.61278  0.42125  0.32993  1.0000
  C   C359      1.0  0.60065  0.41209  0.40985  1.0000
  C   C360      1.0  0.58047  0.39120  0.40555  1.0000
  H   H221      1.0  0.57149  0.38475  0.46313  1.0000
  C   C361      1.0  0.63330  0.44185  0.33101  1.0000
  C   C362      1.0  0.67634  0.48157  0.33112  1.0000
  C   C363      1.0  0.66440  0.47209  0.41179  1.0000
  C   C364      1.0  0.64276  0.45268  0.41302  1.0000
  C   C365      1.0  0.63068  0.44342  0.49276  1.0000
  C   C366      1.0  0.60951  0.42360  0.49093  1.0000
  H   H222      1.0  0.63717  0.45102  0.55268  1.0000
  H   H223      1.0  0.60122  0.41704  0.54967  1.0000
  H   H224      1.0  0.67168  0.47871  0.47180  1.0000
  C   C367      1.0  0.63355  0.19135  0.32994  1.0000
  C   C368      1.0  0.64272  0.18842  0.40985  1.0000
  C   C369      1.0  0.66361  0.18913  0.40549  1.0000
  H   H225      1.0  0.67008  0.18663  0.46308  1.0000
  C   C370      1.0  0.61295  0.19127  0.33108  1.0000
  C   C371      1.0  0.57322  0.19458  0.33128  1.0000
  C   C372      1.0  0.58272  0.19216  0.41194  1.0000
  C   C373      1.0  0.60212  0.18993  0.41312  1.0000
  C   C374      1.0  0.61140  0.18713  0.49286  1.0000
  C   C375      1.0  0.63122  0.18580  0.49098  1.0000
  H   H226      1.0  0.60381  0.18606  0.55280  1.0000
  H   H227      1.0  0.63779  0.18409  0.54972  1.0000
  H   H228      1.0  0.57609  0.19282  0.47196  1.0000
  C   C376      1.0  0.06085  0.31022  0.41418  1.0000
  C   C377      1.0  0.08456  0.32270  0.40991  1.0000
  H   H229      1.0  0.09346  0.32496  0.46747  1.0000
  C   C378      1.0  0.02486  0.29496  0.33552  1.0000
  C   C379      1.0  0.97717  0.27443  0.33601  1.0000
  C   C380      1.0  0.98949  0.27823  0.41657  1.0000
  C   C381      1.0  0.01315  0.28791  0.41758  1.0000
  C   C382      1.0  0.02544  0.29144  0.49722  1.0000
  C   C383      1.0  0.04909  0.30201  0.49526  1.0000
  H   H230      1.0  0.01730  0.28640  0.55714  1.0000
  H   H231      1.0  0.05766  0.30467  0.55393  1.0000
  H   H232      1.0  0.98146  0.27481  0.47662  1.0000
  C   C384      1.0  0.74456  0.75044  0.41467  1.0000
  C   C385      1.0  0.73208  0.76166  0.41040  1.0000
  H   H233      1.0  0.72982  0.76832  0.46794  1.0000
  C   C386      1.0  0.75983  0.72970  0.33602  1.0000
  C   C387      1.0  0.78037  0.70255  0.33651  1.0000
  C   C388      1.0  0.77656  0.71108  0.41706  1.0000
  C   C389      1.0  0.76689  0.72506  0.41807  1.0000
  C   C390      1.0  0.76336  0.73384  0.49770  1.0000
  C   C391      1.0  0.75278  0.74691  0.49574  1.0000
  H   H234      1.0  0.76839  0.73074  0.55762  1.0000
  H   H235      1.0  0.75012  0.75283  0.55440  1.0000
  H   H236      1.0  0.78000  0.70649  0.47711  1.0000
  C   C392      1.0  0.30430  0.99388  0.41416  1.0000
  C   C393      1.0  0.29309  0.97018  0.40980  1.0000
  H   H237      1.0  0.28642  0.96125  0.46732  1.0000
  C   C394      1.0  0.35221  0.07760  0.33633  1.0000
  C   C395      1.0  0.34366  0.06524  0.41683  1.0000
  C   C396      1.0  0.32968  0.04158  0.41775  1.0000
  C   C397      1.0  0.32087  0.02925  0.49733  1.0000
  C   C398      1.0  0.30780  0.00560  0.49528  1.0000
  H   H238      1.0  0.32395  0.03737  0.55728  1.0000
  H   H239      1.0  0.30186  0.99701  0.55390  1.0000
  H   H240      1.0  0.34822  0.07324  0.47692  1.0000
  C   C399      1.0  0.01232  0.72617  0.41408  1.0000
  C   C400      1.0  0.98861  0.71369  0.40991  1.0000
  H   H241      1.0  0.97971  0.71143  0.46750  1.0000
  C   C401      1.0  0.09600  0.76194  0.33559  1.0000
  C   C402      1.0  0.08368  0.75814  0.41620  1.0000
  C   C403      1.0  0.06002  0.74848  0.41729  1.0000
  C   C404      1.0  0.04773  0.74496  0.49698  1.0000
  C   C405      1.0  0.02408  0.73439  0.49511  1.0000
  H   H242      1.0  0.05587  0.75000  0.55687  1.0000
  H   H243      1.0  0.01551  0.73174  0.55380  1.0000
  H   H244      1.0  0.09171  0.76159  0.47621  1.0000
  C   C406      1.0  0.32856  0.28588  0.41444  1.0000
  C   C407      1.0  0.34106  0.27467  0.41026  1.0000
  H   H245      1.0  0.34334  0.26807  0.46788  1.0000
  C   C408      1.0  0.29277  0.33377  0.33605  1.0000
  C   C409      1.0  0.29657  0.32525  0.41663  1.0000
  C   C410      1.0  0.30625  0.31127  0.41771  1.0000
  C   C411      1.0  0.30977  0.30251  0.49738  1.0000
  C   C412      1.0  0.32034  0.28943  0.49550  1.0000
  H   H246      1.0  0.30474  0.30563  0.55730  1.0000
  H   H247      1.0  0.32302  0.28354  0.55419  1.0000
  H   H248      1.0  0.29316  0.32987  0.47668  1.0000
  C   C413      1.0  0.76888  0.04245  0.41437  1.0000
  C   C414      1.0  0.78012  0.06616  0.41009  1.0000
  H   H249      1.0  0.78674  0.07505  0.46767  1.0000
  C   C415      1.0  0.74812  0.00645  0.33575  1.0000
  C   C416      1.0  0.72093  0.95877  0.33627  1.0000
  C   C417      1.0  0.72944  0.97110  0.41683  1.0000
  C   C418      1.0  0.74344  0.99475  0.41781  1.0000
  C   C419      1.0  0.75222  0.00705  0.49744  1.0000
  C   C420      1.0  0.76535  0.03070  0.49545  1.0000
  H   H250      1.0  0.74909  0.99891  0.55738  1.0000
  H   H251      1.0  0.77121  0.03927  0.55413  1.0000
  H   H252      1.0  0.72484  0.96307  0.47688  1.0000
