data_image0
_chemical_formula_structural       C16H20C16H20C16H20CNC2HNCHNHCNC2HNCHNHCNC2HNCHNHCNC2HNCHNHCNC2HNCHNHCNC2HNCHNHC3NC3NC5NC5NC36H26C4H4C3NC3NC5NC5NC36H26C4H4C3NC3NC5NC5NC36H26C4H4C4HC2N2HNHC4HC2N2HNHC4HC2N2HNHC4HC2N2HNHC4HC2N2HNHC4HC2N2HNH
_chemical_formula_sum              "C276 H186 N48"
_cell_length_a       74.5339
_cell_length_b       74.534
_cell_length_c       15.0118
_cell_angle_alpha    89.9626
_cell_angle_beta     90.0374
_cell_angle_gamma    120

_space_group_name_H-M_alt    "P 1"
_space_group_IT_number       1

loop_
  _space_group_symop_operation_xyz
  'x, y, z'

loop_
  _atom_site_type_symbol
  _atom_site_label
  _atom_site_symmetry_multiplicity
  _atom_site_fract_x
  _atom_site_fract_y
  _atom_site_fract_z
  _atom_site_occupancy
  C   C1        1.0  0.08923  0.53323  0.24951  1.0000
  C   C2        1.0  0.10552  0.52885  0.24697  1.0000
  C   C3        1.0  0.16598  0.53230  0.25491  1.0000
  C   C4        1.0  0.14865  0.53504  0.25696  1.0000
  C   C5        1.0  0.08751  0.63956  0.26605  1.0000
  C   C6        1.0  0.10156  0.66097  0.27139  1.0000
  C   C7        1.0  0.12008  0.70731  0.29637  1.0000
  C   C8        1.0  0.13433  0.72868  0.30169  1.0000
  C   C9        1.0  0.94705  0.57840  0.24747  1.0000
  C   C10       1.0  0.96322  0.57384  0.24981  1.0000
  C   C11       1.0  0.90418  0.57285  0.25856  1.0000
  C   C12       1.0  0.88707  0.57595  0.25660  1.0000
  C   C13       1.0  0.96488  0.46767  0.26547  1.0000
  C   C14       1.0  0.95067  0.44629  0.27071  1.0000
  C   C15       1.0  0.91698  0.37855  0.30039  1.0000
  C   C16       1.0  0.93151  0.39986  0.29521  1.0000
  H   H1        1.0  0.91730  0.36886  0.25299  1.0000
  H   H2        1.0  0.94221  0.40493  0.24491  1.0000
  H   H3        1.0  0.94332  0.43864  0.21362  1.0000
  H   H4        1.0  0.96776  0.47494  0.20495  1.0000
  H   H5        1.0  0.97014  0.57352  0.19142  1.0000
  H   H6        1.0  0.94282  0.58148  0.18705  1.0000
  H   H7        1.0  0.08461  0.63234  0.20543  1.0000
  H   H8        1.0  0.10879  0.66871  0.21426  1.0000
  H   H9        1.0  0.13376  0.73830  0.25454  1.0000
  H   H10       1.0  0.10934  0.70211  0.24622  1.0000
  H   H11       1.0  0.14788  0.54484  0.21134  1.0000
  H   H12       1.0  0.17707  0.53996  0.20739  1.0000
  H   H13       1.0  0.10971  0.52575  0.18653  1.0000
  H   H14       1.0  0.08219  0.53341  0.19123  1.0000
  H   H15       1.0  0.90468  0.56286  0.21320  1.0000
  H   H16       1.0  0.87585  0.56834  0.20949  1.0000
  H   H17       1.0  0.16123  0.76794  0.32730  1.0000
  H   H18       1.0  0.19769  0.52674  0.26572  1.0000
  H   H19       1.0  0.85583  0.58226  0.26746  1.0000
  H   H20       1.0  0.88955  0.33944  0.32570  1.0000
  C   C17       1.0  0.54842  0.64037  0.25006  1.0000
  C   C18       1.0  0.55280  0.66103  0.24750  1.0000
  C   C19       1.0  0.54935  0.71804  0.25531  1.0000
  C   C20       1.0  0.54660  0.69797  0.25744  1.0000
  C   C21       1.0  0.44205  0.53227  0.26668  1.0000
  C   C22       1.0  0.42064  0.52492  0.27203  1.0000
  C   C23       1.0  0.37431  0.49710  0.29714  1.0000
  C   C24       1.0  0.35293  0.48997  0.30247  1.0000
  C   C25       1.0  0.50320  0.45301  0.24798  1.0000
  C   C26       1.0  0.50776  0.47373  0.25035  1.0000
  C   C27       1.0  0.50873  0.41566  0.25898  1.0000
  C   C28       1.0  0.50563  0.39545  0.25706  1.0000
  C   C29       1.0  0.61397  0.58161  0.26605  1.0000
  C   C30       1.0  0.63535  0.58878  0.27130  1.0000
  C   C31       1.0  0.70308  0.62282  0.30116  1.0000
  C   C32       1.0  0.68177  0.61604  0.29597  1.0000
  H   H21       1.0  0.71277  0.63288  0.25385  1.0000
  H   H22       1.0  0.67670  0.62170  0.24575  1.0000
  H   H23       1.0  0.64301  0.58913  0.21419  1.0000
  H   H24       1.0  0.60671  0.57728  0.20550  1.0000
  H   H25       1.0  0.50807  0.48099  0.19197  1.0000
  H   H26       1.0  0.50010  0.44570  0.18757  1.0000
  H   H27       1.0  0.44926  0.53658  0.20604  1.0000
  H   H28       1.0  0.41290  0.52440  0.21490  1.0000
  H   H29       1.0  0.34331  0.47977  0.25538  1.0000
  H   H30       1.0  0.37950  0.49155  0.24704  1.0000
  H   H31       1.0  0.53682  0.68741  0.21173  1.0000
  H   H32       1.0  0.54170  0.72149  0.20777  1.0000
  H   H33       1.0  0.55593  0.66834  0.18707  1.0000
  H   H34       1.0  0.54825  0.63315  0.19180  1.0000
  H   H35       1.0  0.51873  0.42617  0.21365  1.0000
  H   H36       1.0  0.51324  0.39186  0.20994  1.0000
  H   H37       1.0  0.31368  0.47762  0.32810  1.0000
  H   H38       1.0  0.55490  0.75531  0.26614  1.0000
  H   H39       1.0  0.49932  0.35790  0.26794  1.0000
  H   H40       1.0  0.74219  0.63451  0.32647  1.0000
  C   C33       1.0  0.44129  0.99241  0.25048  1.0000
  C   C34       1.0  0.42063  0.97613  0.24785  1.0000
  C   C35       1.0  0.36362  0.91566  0.25559  1.0000
  C   C36       1.0  0.38369  0.93299  0.25774  1.0000
  C   C37       1.0  0.54933  0.99412  0.26738  1.0000
  C   C38       1.0  0.55669  0.98007  0.27270  1.0000
  C   C39       1.0  0.58450  0.96154  0.29770  1.0000
  C   C40       1.0  0.59163  0.94729  0.30301  1.0000
  C   C41       1.0  0.62859  0.13456  0.24836  1.0000
  C   C42       1.0  0.60788  0.11840  0.25081  1.0000
  C   C43       1.0  0.66594  0.17743  0.25930  1.0000
  C   C44       1.0  0.68615  0.19453  0.25727  1.0000
  C   C45       1.0  0.50004  0.11674  0.26656  1.0000
  C   C46       1.0  0.49287  0.13095  0.27183  1.0000
  C   C47       1.0  0.45883  0.16463  0.30168  1.0000
  C   C48       1.0  0.46561  0.15010  0.29649  1.0000
  H   H41       1.0  0.44879  0.16429  0.25435  1.0000
  H   H42       1.0  0.45996  0.13940  0.24623  1.0000
  H   H43       1.0  0.49254  0.13829  0.21474  1.0000
  H   H44       1.0  0.50439  0.11385  0.20602  1.0000
  H   H45       1.0  0.60059  0.11148  0.19245  1.0000
  H   H46       1.0  0.63588  0.13880  0.18790  1.0000
  H   H47       1.0  0.54500  0.99703  0.20675  1.0000
  H   H48       1.0  0.55718  0.97284  0.21558  1.0000
  H   H49       1.0  0.60181  0.94786  0.25588  1.0000
  H   H50       1.0  0.59004  0.97229  0.24759  1.0000
  H   H51       1.0  0.39426  0.93377  0.21217  1.0000
  H   H52       1.0  0.36019  0.90457  0.20810  1.0000
  H   H53       1.0  0.41333  0.97195  0.18738  1.0000
  H   H54       1.0  0.44853  0.99946  0.19222  1.0000
  H   H55       1.0  0.65542  0.17695  0.21409  1.0000
  H   H56       1.0  0.68972  0.20577  0.21022  1.0000
  H   H57       1.0  0.60396  0.92037  0.32859  1.0000
  H   H58       1.0  0.32634  0.88395  0.26625  1.0000
  H   H59       1.0  0.72370  0.22577  0.26797  1.0000
  H   H60       1.0  0.44715  0.19206  0.32702  1.0000
  C   C49       1.0  0.29088  0.50584  0.26770  1.0000
  N   N1        1.0  0.27147  0.50297  0.26050  1.0000
  C   C50       1.0  0.23822  0.49469  0.32229  1.0000
  C   C51       1.0  0.20014  0.49369  0.31345  1.0000
  H   H61       1.0  0.30050  0.51110  0.21368  1.0000
  N   N2        1.0  0.23177  0.49942  0.24566  1.0000
  C   C52       1.0  0.21340  0.49895  0.23882  1.0000
  H   H62       1.0  0.20972  0.50328  0.18014  1.0000
  N   N3        1.0  0.18222  0.49567  0.31281  1.0000
  H   H63       1.0  0.17374  0.48882  0.25634  1.0000
  C   C53       1.0  0.57572  0.86937  0.26823  1.0000
  N   N4        1.0  0.57860  0.85283  0.26103  1.0000
  C   C54       1.0  0.58689  0.82785  0.32281  1.0000
  C   C55       1.0  0.58793  0.79079  0.31395  1.0000
  H   H64       1.0  0.57048  0.87374  0.21419  1.0000
  N   N5        1.0  0.58218  0.81670  0.24617  1.0000
  C   C56       1.0  0.58267  0.79881  0.23932  1.0000
  H   H65       1.0  0.57834  0.79081  0.18063  1.0000
  N   N6        1.0  0.58596  0.77090  0.31331  1.0000
  H   H66       1.0  0.59282  0.76929  0.25686  1.0000
  C   C57       1.0  0.21227  0.79076  0.26728  1.0000
  N   N7        1.0  0.22882  0.81017  0.26023  1.0000
  C   C58       1.0  0.25378  0.84340  0.32225  1.0000
  C   C59       1.0  0.29085  0.88150  0.31371  1.0000
  H   H67       1.0  0.20792  0.78116  0.21322  1.0000
  N   N8        1.0  0.26495  0.84987  0.24571  1.0000
  C   C60       1.0  0.28285  0.86826  0.23898  1.0000
  H   H68       1.0  0.29088  0.87195  0.18038  1.0000
  N   N9        1.0  0.31074  0.89942  0.31318  1.0000
  H   H69       1.0  0.31238  0.90791  0.25672  1.0000
  C   C61       1.0  0.76417  0.60546  0.26706  1.0000
  N   N10       1.0  0.78341  0.60790  0.26005  1.0000
  C   C62       1.0  0.81649  0.61559  0.32206  1.0000
  C   C63       1.0  0.85418  0.61579  0.31367  1.0000
  H   H70       1.0  0.75452  0.60028  0.21308  1.0000
  N   N11       1.0  0.82274  0.61060  0.24565  1.0000
  C   C64       1.0  0.84092  0.61066  0.23904  1.0000
  H   H71       1.0  0.84447  0.60618  0.18050  1.0000
  N   N12       1.0  0.87187  0.61342  0.31327  1.0000
  H   H72       1.0  0.88036  0.62006  0.25660  1.0000
  C   C65       1.0  0.47620  0.24309  0.26767  1.0000
  N   N13       1.0  0.47372  0.25987  0.26063  1.0000
  C   C66       1.0  0.46600  0.28523  0.32261  1.0000
  C   C67       1.0  0.46579  0.32271  0.31421  1.0000
  H   H73       1.0  0.48135  0.23863  0.21366  1.0000
  N   N14       1.0  0.47098  0.29648  0.24619  1.0000
  C   C68       1.0  0.47090  0.31459  0.23956  1.0000
  H   H74       1.0  0.47541  0.32265  0.18104  1.0000
  N   N15       1.0  0.46817  0.34277  0.31381  1.0000
  H   H75       1.0  0.46152  0.34464  0.25717  1.0000
  C   C69       1.0  0.83849  0.31746  0.26672  1.0000
  N   N16       1.0  0.82171  0.29820  0.25979  1.0000
  C   C70       1.0  0.79638  0.26512  0.32195  1.0000
  C   C71       1.0  0.75891  0.22742  0.31380  1.0000
  H   H76       1.0  0.84294  0.32708  0.21267  1.0000
  N   N17       1.0  0.78510  0.25885  0.24561  1.0000
  C   C72       1.0  0.76700  0.24066  0.23910  1.0000
  H   H77       1.0  0.75891  0.23710  0.18064  1.0000
  N   N18       1.0  0.73885  0.20973  0.31355  1.0000
  H   H78       1.0  0.73696  0.20123  0.25689  1.0000
  C   C73       1.0  0.01873  0.49303  0.33234  1.0000
  C   C74       1.0  0.04008  0.50461  0.33092  1.0000
  C   C75       1.0  0.04586  0.52556  0.33281  1.0000
  N   N19       1.0  0.02785  0.52590  0.33504  1.0000
  C   C76       1.0  0.01097  0.50665  0.33532  1.0000
  C   C77       1.0  0.98959  0.50055  0.33812  1.0000
  C   C78       1.0  0.98169  0.51436  0.33800  1.0000
  N   N20       1.0  0.99255  0.53528  0.33543  1.0000
  C   C79       1.0  0.98002  0.54353  0.33589  1.0000
  C   C80       1.0  0.95977  0.52679  0.33841  1.0000
  C   C81       1.0  0.96080  0.50882  0.34034  1.0000
  C   C82       1.0  0.98591  0.56481  0.33377  1.0000
  C   C83       1.0  0.00668  0.58157  0.33308  1.0000
  N   N21       1.0  0.02468  0.58123  0.33533  1.0000
  C   C84       1.0  0.04156  0.60049  0.33566  1.0000
  C   C85       1.0  0.03380  0.61410  0.33268  1.0000
  C   C86       1.0  0.01245  0.60253  0.33117  1.0000
  C   C87       1.0  0.06294  0.60659  0.33849  1.0000
  C   C88       1.0  0.07085  0.59277  0.33822  1.0000
  N   N22       1.0  0.05998  0.57186  0.33556  1.0000
  C   C89       1.0  0.07252  0.56361  0.33584  1.0000
  C   C90       1.0  0.09276  0.58035  0.33826  1.0000
  C   C91       1.0  0.09173  0.59832  0.34041  1.0000
  C   C92       1.0  0.06663  0.54232  0.33358  1.0000
  C   C93       1.0  0.08281  0.53746  0.33137  1.0000
  C   C94       1.0  0.11587  0.52866  0.32586  1.0000
  C   C95       1.0  0.10911  0.53270  0.40773  1.0000
  C   C96       1.0  0.09279  0.53703  0.41060  1.0000
  C   C97       1.0  0.13307  0.52522  0.32258  1.0000
  C   C98       1.0  0.13544  0.51245  0.38588  1.0000
  C   C99       1.0  0.15284  0.50977  0.38412  1.0000
  C   C100      1.0  0.16835  0.51967  0.31862  1.0000
  C   C101      1.0  0.07753  0.62817  0.34343  1.0000
  C   C102      1.0  0.10599  0.67157  0.35392  1.0000
  C   C103      1.0  0.09585  0.65995  0.43105  1.0000
  C   C104      1.0  0.08182  0.63855  0.42602  1.0000
  C   C105      1.0  0.12031  0.69330  0.35949  1.0000
  C   C106      1.0  0.14933  0.73675  0.37023  1.0000
  C   C107      1.0  0.14945  0.72285  0.43395  1.0000
  C   C108      1.0  0.13523  0.70149  0.42854  1.0000
  C   C109      1.0  0.96974  0.56969  0.33166  1.0000
  C   C110      1.0  0.95996  0.57035  0.41107  1.0000
  C   C111      1.0  0.94376  0.57487  0.40840  1.0000
  C   C112      1.0  0.93693  0.57886  0.32657  1.0000
  C   C113      1.0  0.91993  0.58261  0.32356  1.0000
  C   C114      1.0  0.88510  0.58888  0.31987  1.0000
  C   C115      1.0  0.90077  0.59872  0.38482  1.0000
  C   C116      1.0  0.91794  0.59567  0.38645  1.0000
  C   C117      1.0  0.97499  0.47897  0.34285  1.0000
  C   C118      1.0  0.97069  0.46852  0.42532  1.0000
  C   C119      1.0  0.94620  0.43563  0.35314  1.0000
  C   C120      1.0  0.95650  0.44715  0.43025  1.0000
  C   C121      1.0  0.93163  0.41397  0.35867  1.0000
  C   C122      1.0  0.91675  0.40594  0.42789  1.0000
  C   C123      1.0  0.90225  0.38466  0.43318  1.0000
  C   C124      1.0  0.90203  0.37066  0.36911  1.0000
  H   H79       1.0  0.89169  0.37946  0.48400  1.0000
  H   H80       1.0  0.91602  0.41559  0.47440  1.0000
  H   H81       1.0  0.95402  0.44001  0.49090  1.0000
  H   H82       1.0  0.97795  0.47637  0.48224  1.0000
  H   H83       1.0  0.01046  0.47720  0.33159  1.0000
  H   H84       1.0  0.04962  0.49844  0.32957  1.0000
  H   H85       1.0  0.02714  0.53839  0.33831  1.0000
  H   H86       1.0  0.02539  0.56874  0.33866  1.0000
  H   H87       1.0  0.94823  0.49421  0.34254  1.0000
  H   H88       1.0  0.94633  0.52732  0.33925  1.0000
  H   H89       1.0  0.96439  0.56729  0.47113  1.0000
  H   H90       1.0  0.93660  0.57461  0.46692  1.0000
  H   H91       1.0  0.00291  0.60870  0.32976  1.0000
  H   H92       1.0  0.04207  0.62993  0.33190  1.0000
  H   H93       1.0  0.10621  0.57983  0.33894  1.0000
  H   H94       1.0  0.10430  0.61294  0.34254  1.0000
  H   H95       1.0  0.07463  0.63063  0.48291  1.0000
  H   H96       1.0  0.09830  0.66704  0.49177  1.0000
  H   H97       1.0  0.13621  0.69192  0.47481  1.0000
  H   H98       1.0  0.16005  0.72817  0.48466  1.0000
  H   H99       1.0  0.08846  0.54017  0.47064  1.0000
  H   H100      1.0  0.11644  0.53317  0.46607  1.0000
  H   H101      1.0  0.15420  0.50064  0.43151  1.0000
  H   H102      1.0  0.12446  0.50490  0.43398  1.0000
  H   H103      1.0  0.92906  0.60319  0.43407  1.0000
  H   H104      1.0  0.89969  0.60807  0.43186  1.0000
  C   C125      1.0  0.16491  0.75922  0.37548  1.0000
  C   C126      1.0  0.18717  0.51760  0.31959  1.0000
  C   C127      1.0  0.88614  0.34829  0.37420  1.0000
  C   C128      1.0  0.86653  0.59139  0.32091  1.0000
  H   H105      1.0  0.16426  0.76492  0.44186  1.0000
  H   H106      1.0  0.19526  0.52412  0.38244  1.0000
  H   H107      1.0  0.85849  0.58509  0.38407  1.0000
  H   H108      1.0  0.88672  0.34245  0.44041  1.0000
  C   C129      1.0  0.58859  0.61004  0.33364  1.0000
  C   C130      1.0  0.57702  0.61982  0.33214  1.0000
  C   C131      1.0  0.55606  0.60463  0.33366  1.0000
  N   N23       1.0  0.55572  0.58628  0.33570  1.0000
  C   C132      1.0  0.57498  0.58866  0.33615  1.0000
  C   C133      1.0  0.58108  0.57338  0.33870  1.0000
  C   C134      1.0  0.56726  0.55166  0.33844  1.0000
  N   N24       1.0  0.54634  0.54161  0.33600  1.0000
  C   C135      1.0  0.53810  0.52083  0.33635  1.0000
  C   C136      1.0  0.55483  0.51731  0.33867  1.0000
  C   C137      1.0  0.57280  0.53632  0.34059  1.0000
  C   C138      1.0  0.51681  0.50543  0.33432  1.0000
  C   C139      1.0  0.50005  0.50944  0.33371  1.0000
  N   N25       1.0  0.50039  0.52778  0.33591  1.0000
  C   C140      1.0  0.48113  0.52541  0.33637  1.0000
  C   C141      1.0  0.46752  0.50403  0.33358  1.0000
  C   C142      1.0  0.47909  0.49425  0.33199  1.0000
  C   C143      1.0  0.47503  0.54069  0.33912  1.0000
  C   C144      1.0  0.48885  0.56241  0.33872  1.0000
  N   N26       1.0  0.50976  0.57246  0.33616  1.0000
  C   C145      1.0  0.51801  0.59324  0.33627  1.0000
  C   C146      1.0  0.50127  0.59675  0.33852  1.0000
  C   C147      1.0  0.48330  0.57774  0.34066  1.0000
  C   C148      1.0  0.53930  0.60864  0.33414  1.0000
  C   C149      1.0  0.54416  0.62968  0.33191  1.0000
  C   C150      1.0  0.55297  0.67155  0.32636  1.0000
  C   C151      1.0  0.54889  0.66072  0.40822  1.0000
  C   C152      1.0  0.54457  0.64007  0.41112  1.0000
  C   C153      1.0  0.55642  0.69219  0.32306  1.0000
  C   C154      1.0  0.56917  0.70731  0.38640  1.0000
  C   C155      1.0  0.57185  0.72739  0.38462  1.0000
  C   C156      1.0  0.56196  0.73302  0.31907  1.0000
  C   C157      1.0  0.45346  0.53370  0.34407  1.0000
  C   C158      1.0  0.41005  0.51875  0.35459  1.0000
  C   C159      1.0  0.42168  0.52024  0.43174  1.0000
  C   C160      1.0  0.44308  0.52762  0.42670  1.0000
  C   C161      1.0  0.38833  0.51135  0.36018  1.0000
  C   C162      1.0  0.34487  0.49691  0.37095  1.0000
  C   C163      1.0  0.35878  0.51094  0.43460  1.0000
  C   C164      1.0  0.38014  0.51809  0.42913  1.0000
  C   C165      1.0  0.51193  0.48438  0.33219  1.0000
  C   C166      1.0  0.51128  0.47392  0.41159  1.0000
  C   C167      1.0  0.50678  0.45321  0.40890  1.0000
  C   C168      1.0  0.50275  0.44240  0.32706  1.0000
  C   C169      1.0  0.49899  0.42164  0.32404  1.0000
  C   C170      1.0  0.49270  0.38054  0.32036  1.0000
  C   C171      1.0  0.48289  0.38637  0.38534  1.0000
  C   C172      1.0  0.48593  0.40659  0.38696  1.0000
  C   C173      1.0  0.60265  0.58035  0.34346  1.0000
  C   C174      1.0  0.61309  0.58643  0.42597  1.0000
  C   C175      1.0  0.64599  0.59490  0.35378  1.0000
  C   C176      1.0  0.63446  0.59360  0.43092  1.0000
  C   C177      1.0  0.66766  0.60199  0.35932  1.0000
  C   C178      1.0  0.67568  0.59510  0.42844  1.0000
  C   C179      1.0  0.69697  0.60190  0.43374  1.0000
  C   C180      1.0  0.71097  0.61572  0.36978  1.0000
  H   H109      1.0  0.70216  0.59650  0.48450  1.0000
  H   H110      1.0  0.66603  0.58469  0.47487  1.0000
  H   H111      1.0  0.64158  0.59821  0.49160  1.0000
  H   H112      1.0  0.60523  0.58578  0.48291  1.0000
  H   H113      1.0  0.60442  0.61760  0.33308  1.0000
  H   H114      1.0  0.58319  0.63553  0.33108  1.0000
  H   H115      1.0  0.54323  0.57308  0.33813  1.0000
  H   H116      1.0  0.51288  0.54098  0.33906  1.0000
  H   H117      1.0  0.58742  0.53836  0.34269  1.0000
  H   H118      1.0  0.55431  0.50334  0.33943  1.0000
  H   H119      1.0  0.51435  0.48139  0.47165  1.0000
  H   H120      1.0  0.50702  0.44629  0.46740  1.0000
  H   H121      1.0  0.47292  0.47854  0.33080  1.0000
  H   H122      1.0  0.45169  0.49647  0.33299  1.0000
  H   H123      1.0  0.50178  0.61071  0.33904  1.0000
  H   H124      1.0  0.46868  0.57569  0.34274  1.0000
  H   H125      1.0  0.45101  0.52834  0.48359  1.0000
  H   H126      1.0  0.41459  0.51561  0.49247  1.0000
  H   H127      1.0  0.38971  0.52862  0.47539  1.0000
  H   H128      1.0  0.35347  0.51622  0.48526  1.0000
  H   H129      1.0  0.54141  0.63257  0.47117  1.0000
  H   H130      1.0  0.54842  0.66757  0.46656  1.0000
  H   H131      1.0  0.58097  0.73786  0.43204  1.0000
  H   H132      1.0  0.57671  0.70387  0.43453  1.0000
  H   H133      1.0  0.47843  0.41017  0.43463  1.0000
  H   H134      1.0  0.47354  0.37594  0.43241  1.0000
  C   C181      1.0  0.32241  0.49001  0.37622  1.0000
  C   C182      1.0  0.56403  0.75391  0.32004  1.0000
  C   C183      1.0  0.73335  0.62222  0.37488  1.0000
  C   C184      1.0  0.49020  0.35947  0.32141  1.0000
  H   H135      1.0  0.31671  0.48367  0.44264  1.0000
  H   H136      1.0  0.55750  0.75545  0.38288  1.0000
  H   H137      1.0  0.49650  0.35770  0.38456  1.0000
  H   H138      1.0  0.73917  0.62859  0.44114  1.0000
  C   C185      1.0  0.47159  0.06290  0.33376  1.0000
  C   C186      1.0  0.46182  0.04156  0.33234  1.0000
  C   C187      1.0  0.47700  0.03578  0.33404  1.0000
  N   N27       1.0  0.49535  0.05379  0.33619  1.0000
  C   C188      1.0  0.49298  0.07067  0.33653  1.0000
  C   C189      1.0  0.50826  0.09205  0.33919  1.0000
  C   C190      1.0  0.52998  0.09995  0.33905  1.0000
  N   N28       1.0  0.54003  0.08909  0.33657  1.0000
  C   C191      1.0  0.56081  0.10161  0.33700  1.0000
  C   C192      1.0  0.56432  0.12186  0.33935  1.0000
  C   C193      1.0  0.54532  0.12083  0.34134  1.0000
  C   C194      1.0  0.57620  0.09572  0.33494  1.0000
  C   C195      1.0  0.57219  0.07495  0.33432  1.0000
  N   N29       1.0  0.55384  0.05695  0.33665  1.0000
  C   C196      1.0  0.55622  0.04007  0.33701  1.0000
  C   C197      1.0  0.57760  0.04783  0.33404  1.0000
  C   C198      1.0  0.58737  0.06917  0.33250  1.0000
  C   C199      1.0  0.54094  0.01869  0.33983  1.0000
  C   C200      1.0  0.51922  0.01078  0.33945  1.0000
  N   N30       1.0  0.50917  0.02165  0.33679  1.0000
  C   C201      1.0  0.48839  0.00912  0.33693  1.0000
  C   C202      1.0  0.48488  0.98887  0.33931  1.0000
  C   C203      1.0  0.50388  0.98990  0.34152  1.0000
  C   C204      1.0  0.47299  0.01501  0.33467  1.0000
  C   C205      1.0  0.45195  0.99883  0.33238  1.0000
  C   C206      1.0  0.41008  0.96577  0.32670  1.0000
  C   C207      1.0  0.42089  0.97252  0.40860  1.0000
  C   C208      1.0  0.44153  0.98885  0.41157  1.0000
  C   C209      1.0  0.38945  0.94858  0.32332  1.0000
  C   C210      1.0  0.37431  0.94620  0.38653  1.0000
  C   C211      1.0  0.35423  0.92881  0.38469  1.0000
  C   C212      1.0  0.34862  0.91330  0.31921  1.0000
  C   C213      1.0  0.54793  0.00410  0.34476  1.0000
  C   C214      1.0  0.56287  0.97563  0.35525  1.0000
  C   C215      1.0  0.56140  0.98576  0.43239  1.0000
  C   C216      1.0  0.55404  0.99980  0.42736  1.0000
  C   C217      1.0  0.57027  0.96130  0.36080  1.0000
  C   C218      1.0  0.58470  0.93228  0.37152  1.0000
  C   C219      1.0  0.57068  0.93215  0.43522  1.0000
  C   C220      1.0  0.56355  0.94637  0.42981  1.0000
  C   C221      1.0  0.59725  0.11189  0.33272  1.0000
  C   C222      1.0  0.60774  0.12166  0.41208  1.0000
  C   C223      1.0  0.62845  0.13787  0.40930  1.0000
  C   C224      1.0  0.63923  0.14469  0.32741  1.0000
  C   C225      1.0  0.65998  0.16168  0.32430  1.0000
  C   C226      1.0  0.70109  0.19651  0.32043  1.0000
  C   C227      1.0  0.69528  0.18083  0.38534  1.0000
  C   C228      1.0  0.67506  0.16366  0.38707  1.0000
  C   C229      1.0  0.50129  0.10665  0.34396  1.0000
  C   C230      1.0  0.49519  0.11097  0.42646  1.0000
  C   C231      1.0  0.48674  0.13544  0.35430  1.0000
  C   C232      1.0  0.48802  0.12517  0.43142  1.0000
  C   C233      1.0  0.47965  0.15001  0.35985  1.0000
  C   C234      1.0  0.48654  0.16491  0.42901  1.0000
  C   C235      1.0  0.47975  0.17940  0.43430  1.0000
  C   C236      1.0  0.46594  0.17960  0.37033  1.0000
  H   H139      1.0  0.48514  0.18997  0.48510  1.0000
  H   H140      1.0  0.49695  0.16565  0.47545  1.0000
  H   H141      1.0  0.48340  0.12766  0.49209  1.0000
  H   H142      1.0  0.49582  0.10373  0.48338  1.0000
  H   H143      1.0  0.46404  0.07118  0.33306  1.0000
  H   H144      1.0  0.44611  0.03201  0.33105  1.0000
  H   H145      1.0  0.50855  0.05450  0.33901  1.0000
  H   H146      1.0  0.54065  0.05624  0.33998  1.0000
  H   H147      1.0  0.54328  0.13341  0.34341  1.0000
  H   H148      1.0  0.57829  0.13530  0.34022  1.0000
  H   H149      1.0  0.60029  0.11725  0.47218  1.0000
  H   H150      1.0  0.63539  0.14503  0.46779  1.0000
  H   H151      1.0  0.60308  0.07871  0.33101  1.0000
  H   H152      1.0  0.58515  0.03955  0.33328  1.0000
  H   H153      1.0  0.47091  0.97542  0.33987  1.0000
  H   H154      1.0  0.50593  0.97733  0.34365  1.0000
  H   H155      1.0  0.55332  0.00699  0.48425  1.0000
  H   H156      1.0  0.56606  0.98331  0.49310  1.0000
  H   H157      1.0  0.55301  0.94540  0.47607  1.0000
  H   H158      1.0  0.56540  0.92154  0.48589  1.0000
  H   H159      1.0  0.44902  0.99318  0.47165  1.0000
  H   H160      1.0  0.41402  0.96519  0.46694  1.0000
  H   H161      1.0  0.34374  0.92745  0.43201  1.0000
  H   H162      1.0  0.37773  0.95718  0.43461  1.0000
  H   H163      1.0  0.67150  0.15255  0.43468  1.0000
  H   H164      1.0  0.70574  0.18190  0.43231  1.0000
  C   C237      1.0  0.59158  0.91669  0.37674  1.0000
  C   C238      1.0  0.32773  0.89448  0.32009  1.0000
  C   C239      1.0  0.45944  0.19548  0.37545  1.0000
  C   C240      1.0  0.72216  0.21507  0.32137  1.0000
  H   H165      1.0  0.59792  0.91731  0.44313  1.0000
  H   H166      1.0  0.32616  0.88639  0.38297  1.0000
  H   H167      1.0  0.72395  0.22311  0.38456  1.0000
  H   H168      1.0  0.45307  0.19491  0.44170  1.0000
  C   C241      1.0  0.29791  0.50242  0.34971  1.0000
  C   C242      1.0  0.25791  0.49655  0.32972  1.0000
  C   C243      1.0  0.26405  0.49256  0.41339  1.0000
  C   C244      1.0  0.28413  0.49552  0.42291  1.0000
  H   H169      1.0  0.28901  0.49347  0.48380  1.0000
  C   C245      1.0  0.20607  0.48807  0.39326  1.0000
  C   C246      1.0  0.22528  0.48880  0.39859  1.0000
  N   N31       1.0  0.23228  0.48500  0.47591  1.0000
  N   N32       1.0  0.25063  0.48679  0.48293  1.0000
  H   H170      1.0  0.19703  0.48473  0.44892  1.0000
  N   N33       1.0  0.31883  0.50754  0.35693  1.0000
  H   H171      1.0  0.32575  0.51891  0.40438  1.0000
  C   C247      1.0  0.57913  0.87979  0.35024  1.0000
  C   C248      1.0  0.58501  0.84567  0.33025  1.0000
  C   C249      1.0  0.58899  0.85577  0.41393  1.0000
  C   C250      1.0  0.58601  0.87288  0.42347  1.0000
  H   H172      1.0  0.58811  0.87982  0.48431  1.0000
  C   C251      1.0  0.59354  0.80232  0.39376  1.0000
  C   C252      1.0  0.59279  0.82079  0.39911  1.0000
  N   N34       1.0  0.59659  0.83156  0.47644  1.0000
  N   N35       1.0  0.59478  0.84811  0.48347  1.0000
  H   H173      1.0  0.59688  0.79660  0.44943  1.0000
  N   N36       1.0  0.57404  0.89560  0.35745  1.0000
  H   H174      1.0  0.56267  0.89115  0.40489  1.0000
  C   C253      1.0  0.20181  0.78370  0.34922  1.0000
  C   C254      1.0  0.23595  0.82371  0.32953  1.0000
  C   C255      1.0  0.22581  0.81755  0.41312  1.0000
  C   C256      1.0  0.20869  0.79746  0.42249  1.0000
  H   H175      1.0  0.20174  0.79257  0.48331  1.0000
  C   C257      1.0  0.27929  0.87553  0.39344  1.0000
  C   C258      1.0  0.26081  0.85632  0.39861  1.0000
  N   N37       1.0  0.25000  0.84931  0.47585  1.0000
  N   N38       1.0  0.23344  0.83095  0.48273  1.0000
  H   H176      1.0  0.28498  0.88457  0.44911  1.0000
  N   N39       1.0  0.18600  0.76278  0.35631  1.0000
  H   H177      1.0  0.19045  0.75585  0.40376  1.0000
  C   C259      1.0  0.75731  0.60915  0.34888  1.0000
  C   C260      1.0  0.79698  0.61415  0.32929  1.0000
  C   C261      1.0  0.79102  0.61841  0.41275  1.0000
  C   C262      1.0  0.77109  0.61587  0.42209  1.0000
  H   H178      1.0  0.76634  0.61813  0.48283  1.0000
  C   C263      1.0  0.84844  0.62166  0.39326  1.0000
  C   C264      1.0  0.82943  0.62135  0.39835  1.0000
  N   N40       1.0  0.82262  0.62543  0.47547  1.0000
  N   N41       1.0  0.80444  0.62403  0.48230  1.0000
  H   H179      1.0  0.85749  0.62493  0.44888  1.0000
  N   N42       1.0  0.73651  0.60443  0.35599  1.0000
  H   H180      1.0  0.72944  0.59312  0.40361  1.0000
  C   C265      1.0  0.47252  0.23253  0.34950  1.0000
  C   C266      1.0  0.46746  0.26716  0.32985  1.0000
  C   C267      1.0  0.46322  0.25694  0.41333  1.0000
  C   C268      1.0  0.46577  0.23956  0.42269  1.0000
  H   H181      1.0  0.46354  0.23254  0.48347  1.0000
  C   C269      1.0  0.45992  0.31108  0.39378  1.0000
  C   C270      1.0  0.46025  0.29239  0.39891  1.0000
  N   N43       1.0  0.45619  0.28149  0.47604  1.0000
  N   N44       1.0  0.45760  0.26472  0.48289  1.0000
  H   H182      1.0  0.45668  0.31686  0.44947  1.0000
  N   N45       1.0  0.47723  0.21644  0.35661  1.0000
  H   H183      1.0  0.48854  0.22066  0.40426  1.0000
  C   C271      1.0  0.84908  0.32435  0.34849  1.0000
  C   C272      1.0  0.81444  0.28465  0.32907  1.0000
  C   C273      1.0  0.82470  0.29064  0.41250  1.0000
  C   C274      1.0  0.84206  0.31057  0.42175  1.0000
  H   H184      1.0  0.84912  0.31533  0.48243  1.0000
  C   C275      1.0  0.77057  0.23316  0.39330  1.0000
  C   C276      1.0  0.78925  0.25220  0.39829  1.0000
  N   N46       1.0  0.80018  0.25903  0.47536  1.0000
  N   N47       1.0  0.81695  0.27723  0.48209  1.0000
  H   H185      1.0  0.76481  0.22414  0.44901  1.0000
  N   N48       1.0  0.86518  0.34514  0.35548  1.0000
  H   H186      1.0  0.86098  0.35223  0.40314  1.0000
