data_image0
_chemical_formula_structural       C4HCH3C4HCH3C4HCH3C4HCH3C4HCH3C4HCH3C2H2C2H2C2H2C2H2C2H2C2H2C2H2C2H2C2H2C2H2C2H2C2H2C4HCH3C4HCH3C4HCH3C4HCH3C4HCH3C4HCH3C2H2C2H2C2H2C2H2C2H2C2H2C2H2C2H2C2H2C2H2C2H2C2H2C6H3C6H3C6H3C6H3C6H3C6H3C6H3C6H3C6H3C6H3C6H3C6H3C6H3C6H3C6H3C6H3C6H3C6H3C6H3C6H3C6H3C6H3C6H3C6H3C2H2C2H2C2H2C2H2C2H2C2H2C4HCH3C4HCH3C4HCH3C4HCH3C4HCH3C4HCH3C4HCH3C4HCH3C4HCH3C4HCH3C4HCH3C4HCH3C2H2C2H2C2H2C2H2C2H2C2H2C4HCH3C4HCH3C4HCH3C4HCH3C4HCH3C4HCH3C4HCH3C4HCH3C4HCH3C4HCH3C4HCH3C4HCH3
_chemical_formula_sum              "C396 H288"
_cell_length_a       54.3302
_cell_length_b       54.3302
_cell_length_c       14.8375
_cell_angle_alpha    90
_cell_angle_beta     90
_cell_angle_gamma    120

_space_group_name_H-M_alt    "P 1"
_space_group_IT_number       1

loop_
  _space_group_symop_operation_xyz
  'x, y, z'

loop_
  _atom_site_type_symbol
  _atom_site_label
  _atom_site_symmetry_multiplicity
  _atom_site_fract_x
  _atom_site_fract_y
  _atom_site_fract_z
  _atom_site_occupancy
  C   C1        1.0  0.11643  0.39923  0.33557  1.0000
  C   C2        1.0  0.12521  0.41449  0.25373  1.0000
  C   C3        1.0  0.13948  0.44461  0.25197  1.0000
  C   C4        1.0  0.14484  0.45978  0.33475  1.0000
  H   H1        1.0  0.12248  0.40349  0.19501  1.0000
  C   C5        1.0  0.14972  0.45976  0.16439  1.0000
  H   H2        1.0  0.14315  0.44524  0.10700  1.0000
  H   H3        1.0  0.17289  0.47226  0.16408  1.0000
  H   H4        1.0  0.14120  0.47398  0.15447  1.0000
  C   C6        1.0  0.61443  0.71993  0.33570  1.0000
  C   C7        1.0  0.59920  0.71345  0.25380  1.0000
  C   C8        1.0  0.56908  0.69761  0.25197  1.0000
  C   C9        1.0  0.55392  0.68780  0.33472  1.0000
  H   H5        1.0  0.61021  0.72175  0.19512  1.0000
  C   C10       1.0  0.55394  0.69271  0.16437  1.0000
  H   H6        1.0  0.56847  0.70067  0.10701  1.0000
  H   H7        1.0  0.54143  0.70337  0.16406  1.0000
  H   H8        1.0  0.53972  0.66997  0.15442  1.0000
  C   C11       1.0  0.29376  0.89725  0.33568  1.0000
  C   C12       1.0  0.30025  0.88849  0.25380  1.0000
  C   C13       1.0  0.31606  0.87418  0.25202  1.0000
  C   C14       1.0  0.32586  0.86883  0.33481  1.0000
  H   H9        1.0  0.29192  0.89117  0.19511  1.0000
  C   C15       1.0  0.32094  0.86393  0.16443  1.0000
  H   H10       1.0  0.31301  0.87051  0.10706  1.0000
  H   H11       1.0  0.31027  0.84076  0.16413  1.0000
  H   H12       1.0  0.34369  0.87243  0.15449  1.0000
  C   C16       1.0  0.89996  0.61170  0.33562  1.0000
  C   C17       1.0  0.89119  0.59645  0.25376  1.0000
  C   C18       1.0  0.87692  0.56634  0.25194  1.0000
  C   C19       1.0  0.87158  0.55118  0.33470  1.0000
  H   H13       1.0  0.89392  0.60746  0.19505  1.0000
  C   C20       1.0  0.86670  0.55119  0.16435  1.0000
  H   H14       1.0  0.87326  0.56571  0.10698  1.0000
  H   H15       1.0  0.84354  0.53866  0.16403  1.0000
  H   H16       1.0  0.87525  0.53699  0.15443  1.0000
  C   C21       1.0  0.40198  0.29098  0.33573  1.0000
  C   C22       1.0  0.41723  0.29749  0.25386  1.0000
  C   C23       1.0  0.44735  0.31330  0.25206  1.0000
  C   C24       1.0  0.46250  0.32310  0.33485  1.0000
  H   H17       1.0  0.40623  0.28919  0.19516  1.0000
  C   C25       1.0  0.46249  0.31821  0.16447  1.0000
  H   H18       1.0  0.44797  0.31028  0.10709  1.0000
  H   H19       1.0  0.47499  0.30755  0.16414  1.0000
  H   H20       1.0  0.47672  0.34096  0.15456  1.0000
  C   C26       1.0  0.72268  0.11371  0.33567  1.0000
  C   C27       1.0  0.71621  0.12248  0.25379  1.0000
  C   C28       1.0  0.70037  0.13675  0.25197  1.0000
  C   C29       1.0  0.69053  0.14211  0.33469  1.0000
  H   H21       1.0  0.72449  0.11975  0.19509  1.0000
  C   C30       1.0  0.69546  0.14697  0.16436  1.0000
  H   H22       1.0  0.70342  0.14041  0.10700  1.0000
  H   H23       1.0  0.70610  0.17014  0.16404  1.0000
  H   H24       1.0  0.67271  0.13844  0.15441  1.0000
  C   C31       1.0  0.44710  0.13306  0.26949  1.0000
  C   C32       1.0  0.41721  0.11896  0.26790  1.0000
  H   H25       1.0  0.45778  0.13833  0.20933  1.0000
  H   H26       1.0  0.40700  0.11421  0.20698  1.0000
  C   C33       1.0  0.69688  0.56657  0.26944  1.0000
  C   C34       1.0  0.71270  0.59646  0.26783  1.0000
  H   H27       1.0  0.69148  0.55587  0.20931  1.0000
  H   H28       1.0  0.71814  0.60667  0.20691  1.0000
  C   C35       1.0  0.88067  0.31684  0.26963  1.0000
  C   C36       1.0  0.89466  0.30094  0.26798  1.0000
  H   H29       1.0  0.87532  0.32218  0.20948  1.0000
  H   H30       1.0  0.89942  0.29550  0.20704  1.0000
  C   C37       1.0  0.56930  0.87788  0.26955  1.0000
  C   C38       1.0  0.59918  0.89195  0.26792  1.0000
  H   H31       1.0  0.55860  0.87260  0.20941  1.0000
  H   H32       1.0  0.60939  0.89671  0.20699  1.0000
  C   C39       1.0  0.31959  0.44437  0.26949  1.0000
  C   C40       1.0  0.30379  0.41448  0.26790  1.0000
  H   H33       1.0  0.32499  0.45506  0.20934  1.0000
  H   H34       1.0  0.29832  0.40427  0.20698  1.0000
  C   C41       1.0  0.13582  0.69418  0.26948  1.0000
  C   C42       1.0  0.12174  0.70999  0.26788  1.0000
  H   H35       1.0  0.14110  0.68877  0.20933  1.0000
  H   H36       1.0  0.11699  0.71544  0.20693  1.0000
  C   C43       1.0  0.25915  0.53414  0.27127  1.0000
  C   C44       1.0  0.28504  0.53424  0.26870  1.0000
  H   H37       1.0  0.24990  0.53455  0.21154  1.0000
  H   H38       1.0  0.29394  0.53462  0.20750  1.0000
  C   C45       1.0  0.47952  0.72773  0.27135  1.0000
  C   C46       1.0  0.47941  0.75352  0.26877  1.0000
  H   H39       1.0  0.47913  0.71807  0.21164  1.0000
  H   H40       1.0  0.47907  0.76205  0.20755  1.0000
  C   C47       1.0  0.28594  0.75455  0.27135  1.0000
  C   C48       1.0  0.26014  0.72865  0.26879  1.0000
  H   H41       1.0  0.29559  0.76380  0.21161  1.0000
  H   H42       1.0  0.25160  0.71978  0.20758  1.0000
  C   C49       1.0  0.75725  0.47675  0.27136  1.0000
  C   C50       1.0  0.73135  0.47665  0.26883  1.0000
  H   H43       1.0  0.76652  0.47637  0.21163  1.0000
  H   H44       1.0  0.72246  0.47630  0.20764  1.0000
  C   C51       1.0  0.53695  0.28325  0.27139  1.0000
  C   C52       1.0  0.53698  0.25742  0.26881  1.0000
  H   H45       1.0  0.53727  0.29286  0.21165  1.0000
  H   H46       1.0  0.53733  0.24889  0.20760  1.0000
  C   C53       1.0  0.73050  0.25640  0.27130  1.0000
  C   C54       1.0  0.75629  0.28230  0.26874  1.0000
  H   H47       1.0  0.72084  0.24715  0.21157  1.0000
  H   H48       1.0  0.76483  0.29118  0.20753  1.0000
  C   C55       1.0  0.17443  0.61495  0.33839  1.0000
  C   C56       1.0  0.17615  0.60270  0.25637  1.0000
  C   C57       1.0  0.17647  0.57677  0.25427  1.0000
  C   C58       1.0  0.17493  0.56276  0.33702  1.0000
  H   H49       1.0  0.17878  0.61367  0.19765  1.0000
  C   C59       1.0  0.17968  0.56543  0.16641  1.0000
  H   H50       1.0  0.17997  0.57823  0.10921  1.0000
  H   H51       1.0  0.16197  0.54388  0.15674  1.0000
  H   H52       1.0  0.19952  0.56495  0.16551  1.0000
  C   C60       1.0  0.39875  0.56223  0.33833  1.0000
  C   C61       1.0  0.41098  0.57621  0.25630  1.0000
  C   C62       1.0  0.43693  0.60244  0.25419  1.0000
  C   C63       1.0  0.45094  0.61490  0.33694  1.0000
  H   H53       1.0  0.40003  0.56782  0.19758  1.0000
  C   C64       1.0  0.44828  0.61698  0.16634  1.0000
  H   H54       1.0  0.43548  0.60448  0.10913  1.0000
  H   H55       1.0  0.46983  0.62079  0.15668  1.0000
  H   H56       1.0  0.44880  0.63731  0.16543  1.0000
  C   C65       1.0  0.45146  0.83925  0.33838  1.0000
  C   C66       1.0  0.43751  0.83754  0.25632  1.0000
  C   C67       1.0  0.41126  0.83722  0.25420  1.0000
  C   C68       1.0  0.39879  0.83878  0.33694  1.0000
  H   H57       1.0  0.44587  0.83492  0.19761  1.0000
  C   C69       1.0  0.39671  0.83402  0.16633  1.0000
  H   H58       1.0  0.40922  0.83373  0.10914  1.0000
  H   H59       1.0  0.39288  0.85174  0.15664  1.0000
  H   H60       1.0  0.37639  0.81419  0.16543  1.0000
  C   C70       1.0  0.84198  0.39600  0.33833  1.0000
  C   C71       1.0  0.84022  0.40822  0.25629  1.0000
  C   C72       1.0  0.83994  0.43417  0.25417  1.0000
  C   C73       1.0  0.84152  0.44821  0.33689  1.0000
  H   H61       1.0  0.83764  0.39726  0.19757  1.0000
  C   C74       1.0  0.83674  0.44551  0.16631  1.0000
  H   H62       1.0  0.83642  0.43270  0.10912  1.0000
  H   H63       1.0  0.85447  0.46705  0.15660  1.0000
  H   H64       1.0  0.81692  0.44603  0.16543  1.0000
  C   C75       1.0  0.61768  0.44874  0.33828  1.0000
  C   C76       1.0  0.60542  0.43476  0.25626  1.0000
  C   C77       1.0  0.57949  0.40852  0.25417  1.0000
  C   C78       1.0  0.56547  0.39605  0.33691  1.0000
  H   H65       1.0  0.61639  0.44313  0.19755  1.0000
  C   C79       1.0  0.56813  0.39398  0.16631  1.0000
  H   H66       1.0  0.58093  0.40649  0.10910  1.0000
  H   H67       1.0  0.54659  0.39016  0.15666  1.0000
  H   H68       1.0  0.56764  0.37366  0.16538  1.0000
  C   C80       1.0  0.56496  0.17170  0.33843  1.0000
  C   C81       1.0  0.57893  0.17342  0.25638  1.0000
  C   C82       1.0  0.60518  0.17375  0.25427  1.0000
  C   C83       1.0  0.61765  0.17220  0.33701  1.0000
  H   H69       1.0  0.57058  0.17605  0.19768  1.0000
  C   C84       1.0  0.61973  0.17696  0.16640  1.0000
  H   H70       1.0  0.60722  0.17725  0.10920  1.0000
  H   H71       1.0  0.62356  0.15925  0.15671  1.0000
  H   H72       1.0  0.64005  0.19680  0.16550  1.0000
  C   C85       1.0  0.02335  0.29093  0.26645  1.0000
  C   C86       1.0  0.99336  0.27584  0.26536  1.0000
  H   H73       1.0  0.03391  0.29666  0.20612  1.0000
  H   H74       1.0  0.98309  0.27108  0.20456  1.0000
  C   C87       1.0  0.72270  0.73511  0.26647  1.0000
  C   C88       1.0  0.73784  0.72026  0.26535  1.0000
  H   H75       1.0  0.71701  0.73999  0.20615  1.0000
  H   H76       1.0  0.74258  0.71473  0.20456  1.0000
  C   C89       1.0  0.27855  0.99035  0.26641  1.0000
  C   C90       1.0  0.29338  0.02033  0.26529  1.0000
  H   H77       1.0  0.27367  0.97977  0.20611  1.0000
  H   H78       1.0  0.29894  0.03060  0.20448  1.0000
  C   C91       1.0  0.99308  0.71999  0.26640  1.0000
  C   C92       1.0  0.02307  0.73514  0.26535  1.0000
  H   H79       1.0  0.98252  0.71432  0.20607  1.0000
  H   H80       1.0  0.03335  0.73989  0.20456  1.0000
  C   C93       1.0  0.29369  0.27583  0.26628  1.0000
  C   C94       1.0  0.27857  0.29069  0.26519  1.0000
  H   H81       1.0  0.29936  0.27092  0.20596  1.0000
  H   H82       1.0  0.27379  0.29618  0.20439  1.0000
  C   C95       1.0  0.73791  0.02063  0.26642  1.0000
  C   C96       1.0  0.72306  0.99064  0.26531  1.0000
  H   H83       1.0  0.74282  0.03121  0.20611  1.0000
  H   H84       1.0  0.71755  0.98037  0.20450  1.0000
  C   C97       1.0  0.15353  0.32234  0.26687  1.0000
  C   C98       1.0  0.17939  0.32212  0.26634  1.0000
  H   H85       1.0  0.14487  0.32308  0.20632  1.0000
  H   H86       1.0  0.18874  0.32291  0.20569  1.0000
  C   C99       1.0  0.69140  0.83394  0.26675  1.0000
  C   C100      1.0  0.69159  0.86001  0.26616  1.0000
  H   H87       1.0  0.69066  0.82453  0.20623  1.0000
  H   H88       1.0  0.69086  0.86859  0.20549  1.0000
  C   C101      1.0  0.17978  0.86020  0.26684  1.0000
  C   C102      1.0  0.15373  0.83430  0.26626  1.0000
  H   H89       1.0  0.18921  0.86883  0.20631  1.0000
  H   H90       1.0  0.14516  0.82498  0.20558  1.0000
  C   C103      1.0  0.86295  0.68864  0.26686  1.0000
  C   C104      1.0  0.83707  0.68884  0.26619  1.0000
  H   H91       1.0  0.87164  0.68793  0.20634  1.0000
  H   H92       1.0  0.82776  0.68810  0.20551  1.0000
  C   C105      1.0  0.32500  0.17701  0.26685  1.0000
  C   C106      1.0  0.32482  0.15095  0.26619  1.0000
  H   H93       1.0  0.32574  0.18643  0.20635  1.0000
  H   H94       1.0  0.32557  0.14239  0.20550  1.0000
  C   C107      1.0  0.83668  0.15075  0.26678  1.0000
  C   C108      1.0  0.86276  0.17663  0.26621  1.0000
  H   H95       1.0  0.82729  0.14207  0.20624  1.0000
  H   H96       1.0  0.87135  0.18594  0.20554  1.0000
  C   C109      1.0  0.21635  0.52489  0.35029  1.0000
  C   C110      1.0  0.19437  0.49630  0.34672  1.0000
  C   C111      1.0  0.16561  0.48912  0.34052  1.0000
  C   C112      1.0  0.15890  0.51115  0.33822  1.0000
  C   C113      1.0  0.18075  0.54001  0.34160  1.0000
  C   C114      1.0  0.20942  0.54664  0.34747  1.0000
  H   H97       1.0  0.13812  0.50618  0.33289  1.0000
  H   H98       1.0  0.22541  0.56744  0.34917  1.0000
  H   H99       1.0  0.19945  0.48047  0.34767  1.0000
  C   C115      1.0  0.48879  0.69419  0.35031  1.0000
  C   C116      1.0  0.51738  0.70080  0.34675  1.0000
  C   C117      1.0  0.52456  0.67923  0.34054  1.0000
  C   C118      1.0  0.50254  0.65048  0.33822  1.0000
  C   C119      1.0  0.47368  0.64347  0.34159  1.0000
  C   C120      1.0  0.46705  0.66551  0.34748  1.0000
  H   H100      1.0  0.50752  0.63469  0.33281  1.0000
  H   H101      1.0  0.44624  0.66069  0.34917  1.0000
  H   H102      1.0  0.53321  0.72172  0.34771  1.0000
  C   C121      1.0  0.31950  0.79733  0.35029  1.0000
  C   C122      1.0  0.31288  0.81929  0.34676  1.0000
  C   C123      1.0  0.33445  0.84806  0.34050  1.0000
  C   C124      1.0  0.36320  0.85479  0.33820  1.0000
  C   C125      1.0  0.37022  0.83295  0.34151  1.0000
  C   C126      1.0  0.34819  0.80427  0.34742  1.0000
  H   H103      1.0  0.37899  0.87556  0.33282  1.0000
  H   H104      1.0  0.35301  0.78828  0.34911  1.0000
  H   H105      1.0  0.29196  0.81421  0.34773  1.0000
  C   C127      1.0  0.80007  0.48605  0.35035  1.0000
  C   C128      1.0  0.82204  0.51464  0.34680  1.0000
  C   C129      1.0  0.85081  0.52183  0.34055  1.0000
  C   C130      1.0  0.85753  0.49980  0.33818  1.0000
  C   C131      1.0  0.83568  0.47095  0.34154  1.0000
  C   C132      1.0  0.80701  0.46431  0.34745  1.0000
  H   H106      1.0  0.87830  0.50479  0.33277  1.0000
  H   H107      1.0  0.79102  0.44350  0.34913  1.0000
  H   H108      1.0  0.81696  0.53047  0.34773  1.0000
  C   C133      1.0  0.52766  0.31677  0.35034  1.0000
  C   C134      1.0  0.49907  0.31013  0.34682  1.0000
  C   C135      1.0  0.49186  0.33170  0.34058  1.0000
  C   C136      1.0  0.51387  0.36044  0.33818  1.0000
  C   C137      1.0  0.54274  0.36747  0.34152  1.0000
  C   C138      1.0  0.54939  0.34545  0.34742  1.0000
  H   H109      1.0  0.50888  0.37623  0.33281  1.0000
  H   H110      1.0  0.57020  0.35028  0.34911  1.0000
  H   H111      1.0  0.48324  0.28921  0.34781  1.0000
  C   C139      1.0  0.69694  0.21362  0.35029  1.0000
  C   C140      1.0  0.70355  0.19165  0.34672  1.0000
  C   C141      1.0  0.68197  0.16288  0.34052  1.0000
  C   C142      1.0  0.65322  0.15617  0.33818  1.0000
  C   C143      1.0  0.64622  0.17802  0.34157  1.0000
  C   C144      1.0  0.66826  0.20669  0.34746  1.0000
  H   H112      1.0  0.63742  0.13540  0.33283  1.0000
  H   H113      1.0  0.66345  0.22269  0.34918  1.0000
  H   H114      1.0  0.72446  0.19672  0.34766  1.0000
  C   C145      1.0  0.52770  0.21372  0.34494  1.0000
  C   C146      1.0  0.49906  0.19185  0.34750  1.0000
  C   C147      1.0  0.49164  0.16296  0.34735  1.0000
  C   C148      1.0  0.51351  0.15603  0.34381  1.0000
  C   C149      1.0  0.54242  0.17777  0.34041  1.0000
  C   C150      1.0  0.54927  0.20656  0.34091  1.0000
  H   H115      1.0  0.50838  0.13515  0.34416  1.0000
  H   H116      1.0  0.57012  0.22246  0.33978  1.0000
  H   H117      1.0  0.48334  0.19708  0.35052  1.0000
  C   C151      1.0  0.69696  0.48597  0.34504  1.0000
  C   C152      1.0  0.70375  0.51462  0.34761  1.0000
  C   C153      1.0  0.68228  0.52205  0.34742  1.0000
  C   C154      1.0  0.65347  0.50018  0.34380  1.0000
  C   C155      1.0  0.64629  0.47127  0.34041  1.0000
  C   C156      1.0  0.66822  0.46441  0.34095  1.0000
  H   H118      1.0  0.63773  0.50533  0.34407  1.0000
  H   H119      1.0  0.66326  0.44356  0.33974  1.0000
  H   H120      1.0  0.72469  0.53033  0.35064  1.0000
  C   C157      1.0  0.80001  0.31671  0.34492  1.0000
  C   C158      1.0  0.82189  0.30996  0.34761  1.0000
  C   C159      1.0  0.85078  0.33145  0.34745  1.0000
  C   C160      1.0  0.85769  0.36025  0.34388  1.0000
  C   C161      1.0  0.83594  0.36740  0.34037  1.0000
  C   C162      1.0  0.80716  0.34544  0.34077  1.0000
  H   H121      1.0  0.87856  0.37600  0.34426  1.0000
  H   H122      1.0  0.79124  0.35038  0.33959  1.0000
  H   H123      1.0  0.81668  0.28903  0.35067  1.0000
  C   C163      1.0  0.48875  0.79725  0.34494  1.0000
  C   C164      1.0  0.51739  0.81913  0.34759  1.0000
  C   C165      1.0  0.52480  0.84802  0.34744  1.0000
  C   C166      1.0  0.50292  0.85494  0.34386  1.0000
  C   C167      1.0  0.47401  0.83320  0.34040  1.0000
  C   C168      1.0  0.46717  0.80441  0.34083  1.0000
  H   H124      1.0  0.50804  0.87582  0.34425  1.0000
  H   H125      1.0  0.44632  0.78850  0.33966  1.0000
  H   H126      1.0  0.53311  0.81391  0.35062  1.0000
  C   C169      1.0  0.31946  0.52496  0.34492  1.0000
  C   C170      1.0  0.31269  0.49631  0.34750  1.0000
  C   C171      1.0  0.33416  0.48890  0.34740  1.0000
  C   C172      1.0  0.36297  0.51077  0.34382  1.0000
  C   C173      1.0  0.37014  0.53968  0.34043  1.0000
  C   C174      1.0  0.34820  0.54653  0.34087  1.0000
  H   H127      1.0  0.37871  0.50564  0.34418  1.0000
  H   H128      1.0  0.35314  0.56738  0.33971  1.0000
  H   H129      1.0  0.29175  0.48060  0.35053  1.0000
  C   C175      1.0  0.21644  0.69424  0.34488  1.0000
  C   C176      1.0  0.19457  0.70101  0.34747  1.0000
  C   C177      1.0  0.16568  0.67953  0.34734  1.0000
  C   C178      1.0  0.15875  0.65073  0.34380  1.0000
  C   C179      1.0  0.18049  0.64356  0.34040  1.0000
  C   C180      1.0  0.20928  0.66550  0.34085  1.0000
  H   H130      1.0  0.13787  0.63498  0.34418  1.0000
  H   H131      1.0  0.22518  0.66056  0.33972  1.0000
  H   H132      1.0  0.19979  0.72195  0.35054  1.0000
  C   C181      1.0  0.10707  0.36971  0.33756  1.0000
  C   C182      1.0  0.12730  0.36063  0.33884  1.0000
  C   C183      1.0  0.11900  0.33148  0.34364  1.0000
  C   C184      1.0  0.08951  0.31118  0.34625  1.0000
  C   C185      1.0  0.06869  0.31973  0.34440  1.0000
  C   C186      1.0  0.07790  0.34914  0.34039  1.0000
  H   H133      1.0  0.08315  0.29002  0.35044  1.0000
  H   H134      1.0  0.06320  0.35571  0.33992  1.0000
  H   H135      1.0  0.14851  0.37559  0.33786  1.0000
  C   C187      1.0  0.64396  0.74008  0.33764  1.0000
  C   C188      1.0  0.65305  0.76940  0.33890  1.0000
  C   C189      1.0  0.68219  0.79025  0.34364  1.0000
  C   C190      1.0  0.70250  0.78105  0.34624  1.0000
  C   C191      1.0  0.69394  0.75167  0.34444  1.0000
  C   C192      1.0  0.66453  0.73149  0.34048  1.0000
  H   H136      1.0  0.72365  0.79585  0.35037  1.0000
  H   H137      1.0  0.65796  0.71021  0.34004  1.0000
  H   H138      1.0  0.63809  0.77566  0.33787  1.0000
  C   C193      1.0  0.27361  0.90662  0.33763  1.0000
  C   C194      1.0  0.24429  0.88640  0.33892  1.0000
  C   C195      1.0  0.22345  0.89470  0.34369  1.0000
  C   C196      1.0  0.23265  0.92420  0.34624  1.0000
  C   C197      1.0  0.26202  0.94501  0.34439  1.0000
  C   C198      1.0  0.28220  0.93579  0.34042  1.0000
  H   H139      1.0  0.21785  0.93056  0.35038  1.0000
  H   H140      1.0  0.30348  0.95049  0.33995  1.0000
  H   H141      1.0  0.23803  0.86518  0.33793  1.0000
  C   C199      1.0  0.90933  0.64123  0.33762  1.0000
  C   C200      1.0  0.88912  0.65033  0.33895  1.0000
  C   C201      1.0  0.89743  0.67948  0.34373  1.0000
  C   C202      1.0  0.92693  0.69977  0.34627  1.0000
  C   C203      1.0  0.94774  0.69120  0.34439  1.0000
  C   C204      1.0  0.93850  0.66179  0.34039  1.0000
  H   H142      1.0  0.93330  0.72093  0.35042  1.0000
  H   H143      1.0  0.95320  0.65521  0.33988  1.0000
  H   H144      1.0  0.86790  0.63538  0.33795  1.0000
  C   C205      1.0  0.37246  0.27084  0.33766  1.0000
  C   C206      1.0  0.36335  0.24152  0.33902  1.0000
  C   C207      1.0  0.33420  0.22069  0.34373  1.0000
  C   C208      1.0  0.31391  0.22990  0.34621  1.0000
  C   C209      1.0  0.32248  0.25928  0.34434  1.0000
  C   C210      1.0  0.35189  0.27945  0.34037  1.0000
  H   H145      1.0  0.29275  0.21511  0.35031  1.0000
  H   H146      1.0  0.35848  0.30073  0.33988  1.0000
  H   H147      1.0  0.37829  0.23525  0.33804  1.0000
  C   C211      1.0  0.74283  0.10434  0.33762  1.0000
  C   C212      1.0  0.77215  0.12456  0.33892  1.0000
  C   C213      1.0  0.79300  0.11627  0.34366  1.0000
  C   C214      1.0  0.78380  0.08677  0.34620  1.0000
  C   C215      1.0  0.75443  0.06595  0.34440  1.0000
  C   C216      1.0  0.73424  0.07517  0.34043  1.0000
  H   H148      1.0  0.79860  0.08041  0.35036  1.0000
  H   H149      1.0  0.71296  0.06047  0.33998  1.0000
  H   H150      1.0  0.77841  0.14578  0.33789  1.0000
  C   C217      1.0  0.37214  0.10445  0.34607  1.0000
  C   C218      1.0  0.36300  0.12464  0.34655  1.0000
  C   C219      1.0  0.33381  0.11629  0.34557  1.0000
  C   C220      1.0  0.31352  0.08678  0.34451  1.0000
  C   C221      1.0  0.32213  0.06600  0.34456  1.0000
  C   C222      1.0  0.35157  0.07526  0.34511  1.0000
  H   H151      1.0  0.29231  0.08038  0.34476  1.0000
  H   H152      1.0  0.35817  0.06058  0.34572  1.0000
  H   H153      1.0  0.37794  0.14586  0.34772  1.0000
  C   C223      1.0  0.74325  0.64154  0.34605  1.0000
  C   C224      1.0  0.77258  0.65068  0.34651  1.0000
  C   C225      1.0  0.79343  0.67987  0.34560  1.0000
  C   C226      1.0  0.78421  0.70017  0.34457  1.0000
  C   C227      1.0  0.75481  0.69156  0.34461  1.0000
  C   C228      1.0  0.73464  0.66212  0.34514  1.0000
  H   H154      1.0  0.79901  0.72137  0.34482  1.0000
  H   H155      1.0  0.71335  0.65552  0.34573  1.0000
  H   H156      1.0  0.77886  0.63574  0.34764  1.0000
  C   C229      1.0  0.90924  0.27043  0.34607  1.0000
  C   C230      1.0  0.88905  0.24110  0.34655  1.0000
  C   C231      1.0  0.89739  0.22025  0.34557  1.0000
  C   C232      1.0  0.92690  0.22947  0.34454  1.0000
  C   C233      1.0  0.94769  0.25886  0.34455  1.0000
  C   C234      1.0  0.93843  0.27904  0.34514  1.0000
  H   H157      1.0  0.93329  0.21466  0.34480  1.0000
  H   H158      1.0  0.95312  0.30032  0.34575  1.0000
  H   H159      1.0  0.86783  0.23482  0.34773  1.0000
  C   C235      1.0  0.64428  0.90651  0.34610  1.0000
  C   C236      1.0  0.65343  0.88632  0.34655  1.0000
  C   C237      1.0  0.68262  0.89468  0.34556  1.0000
  C   C238      1.0  0.70291  0.92419  0.34453  1.0000
  C   C239      1.0  0.69429  0.94497  0.34457  1.0000
  C   C240      1.0  0.66485  0.93570  0.34517  1.0000
  H   H160      1.0  0.72411  0.93059  0.34473  1.0000
  H   H161      1.0  0.65825  0.95038  0.34576  1.0000
  H   H162      1.0  0.63849  0.86510  0.34769  1.0000
  C   C241      1.0  0.27318  0.36942  0.34610  1.0000
  C   C242      1.0  0.24385  0.36027  0.34668  1.0000
  C   C243      1.0  0.22300  0.33109  0.34570  1.0000
  C   C244      1.0  0.23222  0.31079  0.34460  1.0000
  C   C245      1.0  0.26161  0.31940  0.34452  1.0000
  C   C246      1.0  0.28179  0.34884  0.34506  1.0000
  H   H163      1.0  0.21741  0.28959  0.34483  1.0000
  H   H164      1.0  0.30307  0.35544  0.34557  1.0000
  H   H165      1.0  0.23757  0.37522  0.34789  1.0000
  C   C247      1.0  0.10718  0.74052  0.34603  1.0000
  C   C248      1.0  0.12737  0.76985  0.34651  1.0000
  C   C249      1.0  0.11902  0.79069  0.34558  1.0000
  C   C250      1.0  0.08951  0.78147  0.34459  1.0000
  C   C251      1.0  0.06872  0.75207  0.34457  1.0000
  C   C252      1.0  0.07799  0.73190  0.34513  1.0000
  H   H166      1.0  0.08310  0.79627  0.34485  1.0000
  H   H167      1.0  0.06331  0.71062  0.34570  1.0000
  H   H168      1.0  0.14859  0.77614  0.34767  1.0000
  C   C253      1.0  0.13521  0.44435  0.41628  1.0000
  C   C254      1.0  0.12115  0.41447  0.41674  1.0000
  H   H169      1.0  0.14024  0.45479  0.47686  1.0000
  H   H170      1.0  0.11605  0.40402  0.47729  1.0000
  C   C255      1.0  0.56931  0.69364  0.41634  1.0000
  C   C256      1.0  0.59919  0.70941  0.41685  1.0000
  H   H171      1.0  0.55884  0.68816  0.47689  1.0000
  H   H172      1.0  0.60963  0.71478  0.47741  1.0000
  C   C257      1.0  0.32008  0.87846  0.41636  1.0000
  C   C258      1.0  0.30431  0.89257  0.41684  1.0000
  H   H173      1.0  0.32555  0.87346  0.47691  1.0000
  H   H174      1.0  0.29895  0.89765  0.47740  1.0000
  C   C259      1.0  0.88112  0.56658  0.41631  1.0000
  C   C260      1.0  0.89524  0.59646  0.41678  1.0000
  H   H175      1.0  0.87614  0.55612  0.47687  1.0000
  H   H176      1.0  0.90030  0.60689  0.47735  1.0000
  C   C261      1.0  0.44710  0.31726  0.41644  1.0000
  C   C262      1.0  0.41722  0.30147  0.41691  1.0000
  H   H177      1.0  0.45756  0.32275  0.47699  1.0000
  H   H178      1.0  0.40677  0.29613  0.47745  1.0000
  C   C263      1.0  0.69637  0.13253  0.41628  1.0000
  C   C264      1.0  0.71215  0.11842  0.41680  1.0000
  H   H179      1.0  0.69091  0.13753  0.47682  1.0000
  H   H180      1.0  0.71751  0.11336  0.47738  1.0000
  C   C265      1.0  0.40168  0.11385  0.34859  1.0000
  C   C266      1.0  0.41662  0.12215  0.43106  1.0000
  C   C267      1.0  0.44673  0.13644  0.43395  1.0000
  C   C268      1.0  0.46223  0.14225  0.35168  1.0000
  H   H181      1.0  0.40540  0.11912  0.48948  1.0000
  C   C269      1.0  0.46151  0.14608  0.52232  1.0000
  H   H182      1.0  0.44676  0.13901  0.57915  1.0000
  H   H183      1.0  0.47390  0.16924  0.52444  1.0000
  H   H184      1.0  0.47579  0.13760  0.53167  1.0000
  C   C270      1.0  0.72311  0.61201  0.34850  1.0000
  C   C271      1.0  0.71646  0.59707  0.43101  1.0000
  C   C272      1.0  0.70067  0.56697  0.43393  1.0000
  C   C273      1.0  0.69099  0.55147  0.35166  1.0000
  H   H185      1.0  0.72466  0.60829  0.48942  1.0000
  C   C274      1.0  0.69555  0.55220  0.52232  1.0000
  H   H186      1.0  0.70321  0.56695  0.57914  1.0000
  H   H187      1.0  0.70634  0.53982  0.52445  1.0000
  H   H188      1.0  0.67279  0.53790  0.53169  1.0000
  C   C275      1.0  0.89985  0.29057  0.34865  1.0000
  C   C276      1.0  0.89158  0.29723  0.43115  1.0000
  C   C277      1.0  0.87731  0.31307  0.43412  1.0000
  C   C278      1.0  0.87151  0.32278  0.35191  1.0000
  H   H189      1.0  0.89466  0.28908  0.48958  1.0000
  C   C279      1.0  0.86768  0.31821  0.52251  1.0000
  H   H190      1.0  0.87474  0.31051  0.57932  1.0000
  H   H191      1.0  0.84452  0.30746  0.52462  1.0000
  H   H192      1.0  0.87619  0.34097  0.53189  1.0000
  C   C280      1.0  0.61474  0.89711  0.34858  1.0000
  C   C281      1.0  0.59981  0.88882  0.43110  1.0000
  C   C282      1.0  0.56971  0.87454  0.43407  1.0000
  C   C283      1.0  0.55421  0.86875  0.35182  1.0000
  H   H193      1.0  0.61105  0.89187  0.48950  1.0000
  C   C284      1.0  0.55494  0.86490  0.52245  1.0000
  H   H194      1.0  0.56969  0.87197  0.57926  1.0000
  H   H195      1.0  0.54254  0.84174  0.52456  1.0000
  H   H196      1.0  0.54066  0.87339  0.53184  1.0000
  C   C285      1.0  0.29332  0.39895  0.34858  1.0000
  C   C286      1.0  0.29996  0.41389  0.43107  1.0000
  C   C287      1.0  0.31577  0.44400  0.43397  1.0000
  C   C288      1.0  0.32546  0.45948  0.35168  1.0000
  H   H197      1.0  0.29174  0.40267  0.48948  1.0000
  C   C289      1.0  0.32088  0.45878  0.52234  1.0000
  H   H198      1.0  0.31320  0.44403  0.57917  1.0000
  H   H199      1.0  0.31009  0.47115  0.52441  1.0000
  H   H200      1.0  0.34363  0.47307  0.53173  1.0000
  C   C290      1.0  0.11658  0.72039  0.34856  1.0000
  C   C291      1.0  0.12489  0.71375  0.43104  1.0000
  C   C292      1.0  0.13916  0.69791  0.43399  1.0000
  C   C293      1.0  0.14495  0.68822  0.35174  1.0000
  H   H201      1.0  0.12182  0.72190  0.48948  1.0000
  C   C294      1.0  0.14879  0.69277  0.52237  1.0000
  H   H202      1.0  0.14173  0.70046  0.57919  1.0000
  H   H203      1.0  0.17195  0.70352  0.52448  1.0000
  H   H204      1.0  0.14029  0.67000  0.53173  1.0000
  C   C295      1.0  0.29719  0.53124  0.34889  1.0000
  C   C296      1.0  0.28349  0.52899  0.43185  1.0000
  C   C297      1.0  0.25733  0.52873  0.43574  1.0000
  C   C298      1.0  0.24489  0.53094  0.35391  1.0000
  H   H205      1.0  0.29188  0.52584  0.48962  1.0000
  C   C299      1.0  0.24297  0.52504  0.52425  1.0000
  H   H206      1.0  0.25565  0.52457  0.58062  1.0000
  H   H207      1.0  0.22270  0.50515  0.52492  1.0000
  H   H208      1.0  0.23906  0.54265  0.53551  1.0000
  C   C300      1.0  0.48247  0.76870  0.34894  1.0000
  C   C301      1.0  0.48478  0.75727  0.43189  1.0000
  C   C302      1.0  0.48499  0.73135  0.43581  1.0000
  C   C303      1.0  0.48274  0.71668  0.35399  1.0000
  H   H209      1.0  0.48789  0.76880  0.48966  1.0000
  C   C304      1.0  0.48866  0.72067  0.52431  1.0000
  H   H210      1.0  0.48917  0.73385  0.58067  1.0000
  H   H211      1.0  0.50853  0.72026  0.52495  1.0000
  H   H212      1.0  0.47103  0.69917  0.53560  1.0000
  C   C305      1.0  0.24499  0.71651  0.34899  1.0000
  C   C306      1.0  0.25645  0.73022  0.43194  1.0000
  C   C307      1.0  0.28236  0.75636  0.43583  1.0000
  C   C308      1.0  0.29702  0.76878  0.35401  1.0000
  H   H213      1.0  0.24491  0.72181  0.48971  1.0000
  C   C309      1.0  0.29306  0.77071  0.52433  1.0000
  H   H214      1.0  0.27989  0.75804  0.58071  1.0000
  H   H215      1.0  0.29347  0.79099  0.52501  1.0000
  H   H216      1.0  0.31456  0.77458  0.53558  1.0000
  C   C310      1.0  0.71922  0.47968  0.34903  1.0000
  C   C311      1.0  0.73294  0.48194  0.43197  1.0000
  C   C312      1.0  0.75910  0.48221  0.43583  1.0000
  C   C313      1.0  0.77153  0.48000  0.35397  1.0000
  H   H217      1.0  0.72456  0.48511  0.48974  1.0000
  C   C314      1.0  0.77348  0.48590  0.52431  1.0000
  H   H218      1.0  0.76080  0.48638  0.58070  1.0000
  H   H219      1.0  0.79373  0.50580  0.52497  1.0000
  H   H220      1.0  0.77739  0.46830  0.53557  1.0000
  C   C315      1.0  0.53399  0.24227  0.34902  1.0000
  C   C316      1.0  0.53172  0.25372  0.43197  1.0000
  C   C317      1.0  0.53150  0.27963  0.43588  1.0000
  C   C318      1.0  0.53374  0.29429  0.35405  1.0000
  H   H221      1.0  0.52862  0.24219  0.48976  1.0000
  C   C319      1.0  0.52783  0.29032  0.52437  1.0000
  H   H222      1.0  0.52733  0.27715  0.58074  1.0000
  H   H223      1.0  0.50796  0.29073  0.52503  1.0000
  H   H224      1.0  0.54546  0.31183  0.53564  1.0000
  C   C320      1.0  0.77146  0.29444  0.34892  1.0000
  C   C321      1.0  0.76001  0.28072  0.43187  1.0000
  C   C322      1.0  0.73409  0.25458  0.43579  1.0000
  C   C323      1.0  0.71944  0.24217  0.35396  1.0000
  H   H225      1.0  0.77155  0.28913  0.48964  1.0000
  C   C324      1.0  0.72340  0.24023  0.52429  1.0000
  H   H226      1.0  0.73658  0.25290  0.58066  1.0000
  H   H227      1.0  0.72300  0.21995  0.52495  1.0000
  H   H228      1.0  0.70190  0.23635  0.53557  1.0000
  C   C325      1.0  0.17264  0.57479  0.41889  1.0000
  C   C326      1.0  0.17242  0.60058  0.41962  1.0000
  H   H229      1.0  0.17281  0.56574  0.47929  1.0000
  H   H230      1.0  0.17260  0.60965  0.48028  1.0000
  C   C327      1.0  0.43889  0.60060  0.41884  1.0000
  C   C328      1.0  0.41311  0.57460  0.41959  1.0000
  H   H231      1.0  0.44795  0.60982  0.47924  1.0000
  H   H232      1.0  0.40404  0.56570  0.48025  1.0000
  C   C329      1.0  0.41309  0.84104  0.41884  1.0000
  C   C330      1.0  0.43908  0.84123  0.41961  1.0000
  H   H233      1.0  0.40388  0.84090  0.47923  1.0000
  H   H234      1.0  0.44800  0.84110  0.48027  1.0000
  C   C331      1.0  0.84379  0.43617  0.41878  1.0000
  C   C332      1.0  0.84400  0.41038  0.41955  1.0000
  H   H235      1.0  0.84363  0.44523  0.47916  1.0000
  H   H236      1.0  0.84384  0.40131  0.48022  1.0000
  C   C333      1.0  0.57753  0.41036  0.41878  1.0000
  C   C334      1.0  0.60331  0.43636  0.41952  1.0000
  H   H237      1.0  0.56848  0.40115  0.47918  1.0000
  H   H238      1.0  0.61239  0.44527  0.48018  1.0000
  C   C335      1.0  0.60333  0.16991  0.41889  1.0000
  C   C336      1.0  0.57734  0.16970  0.41965  1.0000
  H   H239      1.0  0.61256  0.17008  0.47928  1.0000
  H   H240      1.0  0.56843  0.16987  0.48030  1.0000
  C   C337      1.0  0.97759  0.26902  0.34623  1.0000
  C   C338      1.0  0.99289  0.27785  0.42817  1.0000
  C   C339      1.0  0.02310  0.29322  0.43061  1.0000
  C   C340      1.0  0.03873  0.29997  0.34833  1.0000
  H   H241      1.0  0.98171  0.27411  0.48703  1.0000
  C   C341      1.0  0.03790  0.30299  0.51885  1.0000
  H   H242      1.0  0.02320  0.29574  0.57582  1.0000
  H   H243      1.0  0.05000  0.32617  0.52085  1.0000
  H   H244      1.0  0.05246  0.29484  0.52798  1.0000
  C   C342      1.0  0.74466  0.71130  0.34622  1.0000
  C   C343      1.0  0.73583  0.71777  0.42818  1.0000
  C   C344      1.0  0.72045  0.73259  0.43065  1.0000
  C   C345      1.0  0.71369  0.74147  0.34837  1.0000
  H   H245      1.0  0.73956  0.71032  0.48702  1.0000
  C   C346      1.0  0.71069  0.73763  0.51889  1.0000
  H   H246      1.0  0.71795  0.73019  0.57586  1.0000
  H   H247      1.0  0.68751  0.72655  0.52091  1.0000
  H   H248      1.0  0.71883  0.76035  0.52802  1.0000
  C   C347      1.0  0.30240  0.03609  0.34616  1.0000
  C   C348      1.0  0.29592  0.02081  0.42815  1.0000
  C   C349      1.0  0.28111  0.99060  0.43058  1.0000
  C   C350      1.0  0.27222  0.97497  0.34831  1.0000
  H   H249      1.0  0.30341  0.03199  0.48699  1.0000
  C   C351      1.0  0.27608  0.97580  0.51883  1.0000
  H   H250      1.0  0.28352  0.99050  0.57580  1.0000
  H   H251      1.0  0.28717  0.96372  0.52082  1.0000
  H   H252      1.0  0.25337  0.96123  0.52797  1.0000
  C   C352      1.0  0.03882  0.74190  0.34626  1.0000
  C   C353      1.0  0.02352  0.73307  0.42819  1.0000
  C   C354      1.0  0.99331  0.71770  0.43061  1.0000
  C   C355      1.0  0.97770  0.71094  0.34827  1.0000
  H   H253      1.0  0.03469  0.73681  0.48706  1.0000
  C   C356      1.0  0.97850  0.70794  0.51884  1.0000
  H   H254      1.0  0.99319  0.71521  0.57582  1.0000
  H   H255      1.0  0.96640  0.68476  0.52086  1.0000
  H   H256      1.0  0.96393  0.71609  0.52791  1.0000
  C   C357      1.0  0.27177  0.29966  0.34606  1.0000
  C   C358      1.0  0.28058  0.29317  0.42804  1.0000
  C   C359      1.0  0.29598  0.27836  0.43047  1.0000
  C   C360      1.0  0.30275  0.26951  0.34816  1.0000
  H   H257      1.0  0.27687  0.30064  0.48689  1.0000
  C   C361      1.0  0.30575  0.27333  0.51872  1.0000
  H   H258      1.0  0.29848  0.28076  0.57569  1.0000
  H   H259      1.0  0.32893  0.28443  0.52074  1.0000
  H   H260      1.0  0.29761  0.25062  0.52782  1.0000
  C   C362      1.0  0.71403  0.97487  0.34616  1.0000
  C   C363      1.0  0.72047  0.99016  0.42814  1.0000
  C   C364      1.0  0.73531  0.02037  0.43061  1.0000
  C   C365      1.0  0.74421  0.03599  0.34832  1.0000
  H   H261      1.0  0.71300  0.97898  0.48698  1.0000
  C   C366      1.0  0.74034  0.03517  0.51885  1.0000
  H   H262      1.0  0.73288  0.02047  0.57581  1.0000
  H   H263      1.0  0.72927  0.04727  0.52082  1.0000
  H   H264      1.0  0.76305  0.04972  0.52801  1.0000
  C   C367      1.0  0.19374  0.32371  0.34743  1.0000
  C   C368      1.0  0.18102  0.32508  0.42906  1.0000
  C   C369      1.0  0.15504  0.32544  0.43094  1.0000
  C   C370      1.0  0.14100  0.32421  0.34839  1.0000
  H   H265      1.0  0.19191  0.32771  0.48796  1.0000
  C   C371      1.0  0.14371  0.32863  0.51885  1.0000
  H   H266      1.0  0.15629  0.32853  0.57611  1.0000
  H   H267      1.0  0.12202  0.31111  0.52797  1.0000
  H   H268      1.0  0.14358  0.34865  0.52033  1.0000
  C   C372      1.0  0.69001  0.87280  0.34717  1.0000
  C   C373      1.0  0.68860  0.85870  0.42882  1.0000
  C   C374      1.0  0.68821  0.83234  0.43075  1.0000
  C   C375      1.0  0.68947  0.81951  0.34826  1.0000
  H   H269      1.0  0.68593  0.86694  0.48770  1.0000
  C   C376      1.0  0.68498  0.81783  0.51870  1.0000
  H   H270      1.0  0.68507  0.83052  0.57593  1.0000
  H   H271      1.0  0.70248  0.81364  0.52792  1.0000
  H   H272      1.0  0.66495  0.79769  0.52015  1.0000
  C   C377      1.0  0.14089  0.81995  0.34729  1.0000
  C   C378      1.0  0.15499  0.83266  0.42892  1.0000
  C   C379      1.0  0.18134  0.85864  0.43086  1.0000
  C   C380      1.0  0.19418  0.87272  0.34837  1.0000
  H   H273      1.0  0.14671  0.82179  0.48783  1.0000
  C   C381      1.0  0.19584  0.86995  0.51881  1.0000
  H   H274      1.0  0.18314  0.85736  0.57605  1.0000
  H   H275      1.0  0.20001  0.89163  0.52798  1.0000
  H   H276      1.0  0.21598  0.87008  0.52032  1.0000
  C   C382      1.0  0.82269  0.68725  0.34718  1.0000
  C   C383      1.0  0.83536  0.68586  0.42889  1.0000
  C   C384      1.0  0.86135  0.68550  0.43089  1.0000
  C   C385      1.0  0.87545  0.68677  0.34843  1.0000
  H   H277      1.0  0.82445  0.68322  0.48775  1.0000
  C   C386      1.0  0.87263  0.68228  0.51885  1.0000
  H   H278      1.0  0.86002  0.68236  0.57605  1.0000
  H   H279      1.0  0.89431  0.69979  0.52809  1.0000
  H   H280      1.0  0.87276  0.66227  0.52031  1.0000
  C   C387      1.0  0.32643  0.13817  0.34721  1.0000
  C   C388      1.0  0.32779  0.15222  0.42892  1.0000
  C   C389      1.0  0.32817  0.17858  0.43087  1.0000
  C   C390      1.0  0.32690  0.19141  0.34840  1.0000
  H   H281      1.0  0.33047  0.14398  0.48778  1.0000
  C   C391      1.0  0.33139  0.19308  0.51883  1.0000
  H   H282      1.0  0.33130  0.18039  0.57605  1.0000
  H   H283      1.0  0.31389  0.19726  0.52805  1.0000
  H   H284      1.0  0.35141  0.21322  0.52029  1.0000
  C   C392      1.0  0.87550  0.19099  0.34728  1.0000
  C   C393      1.0  0.86141  0.17831  0.42894  1.0000
  C   C394      1.0  0.83507  0.15232  0.43085  1.0000
  C   C395      1.0  0.82226  0.13827  0.34829  1.0000
  H   H285      1.0  0.86968  0.18919  0.48784  1.0000
  C   C396      1.0  0.82056  0.14100  0.51878  1.0000
  H   H286      1.0  0.83324  0.15359  0.57603  1.0000
  H   H287      1.0  0.81639  0.11932  0.52793  1.0000
  H   H288      1.0  0.80041  0.14088  0.52026  1.0000
