data_image0
_chemical_formula_structural       C2HC5H4C4H2C4HNO2C6H3C6H4CHC4HC4H2NO2C2H2C2H2C4HNO2C5H2NO2C3H2C2H2C2HC2HCHC2HCHCHC4HC4H2NO2C4HC4H2NO2C4H4C4H4C4H4C4H4C4HC4H2NO2C4HC4H2NO2C4HC4H2NO2C4HC4H2NO2C6H3C5H2C6H3C6H3C6H3C6H3C6H3C4H2C4H4C4H4C4HC4H2NO2C4HC4H2NO2C4HC4H2NO2C4HC4H2NO2C4H4C4H4C4H4C4H4C2HC2H2CHCHC3HC4HCNO2C5H2NO2C4H4C4HNO2C4H2C6H3C6H3C3H3C2H2C4HC4H2NO2C2H2C2H2
_chemical_formula_sum              "C288 H162 N18 O36"
_cell_length_a       60.0607
_cell_length_b       60.0607
_cell_length_c       14.8435
_cell_angle_alpha    90
_cell_angle_beta     90
_cell_angle_gamma    120

_space_group_name_H-M_alt    "P 1"
_space_group_IT_number       1

loop_
  _space_group_symop_operation_xyz
  'x, y, z'

loop_
  _atom_site_type_symbol
  _atom_site_label
  _atom_site_symmetry_multiplicity
  _atom_site_fract_x
  _atom_site_fract_y
  _atom_site_fract_z
  _atom_site_occupancy
  C   C1        1.0  0.17263  0.45795  0.34479  1.0000
  C   C2        1.0  0.17934  0.44942  0.26609  1.0000
  H   H1        1.0  0.16789  0.44493  0.21022  1.0000
  C   C3        1.0  0.17757  0.73237  0.33337  1.0000
  C   C4        1.0  0.13630  0.62196  0.27113  1.0000
  C   C5        1.0  0.13810  0.59954  0.27575  1.0000
  C   C6        1.0  0.15981  0.56281  0.29857  1.0000
  C   C7        1.0  0.15740  0.53825  0.29871  1.0000
  H   H2        1.0  0.17176  0.57612  0.25252  1.0000
  H   H3        1.0  0.16734  0.53423  0.25164  1.0000
  H   H4        1.0  0.12939  0.62570  0.21349  1.0000
  H   H5        1.0  0.13221  0.58745  0.22133  1.0000
  C   C8        1.0  0.02361  0.39363  0.32650  1.0000
  C   C9        1.0  0.07844  0.42714  0.32488  1.0000
  C   C10       1.0  0.06255  0.42918  0.25877  1.0000
  C   C11       1.0  0.03571  0.41279  0.25961  1.0000
  H   H6        1.0  0.07034  0.44351  0.21156  1.0000
  H   H7        1.0  0.02493  0.41597  0.21355  1.0000
  C   C12       1.0  0.08275  0.67033  0.34498  1.0000
  C   C13       1.0  0.02794  0.64772  0.33285  1.0000
  C   C14       1.0  0.04399  0.66168  0.25892  1.0000
  C   C15       1.0  0.07111  0.67297  0.26613  1.0000
  H   H8        1.0  0.08229  0.68186  0.21097  1.0000
  N   N1        1.0  0.03262  0.66389  0.17833  1.0000
  O   O1        1.0  0.03782  0.65411  0.11251  1.0000
  O   O2        1.0  0.03991  0.68697  0.16041  1.0000
  C   C16       1.0  0.13574  0.49329  0.35262  1.0000
  C   C17       1.0  0.11034  0.47263  0.34294  1.0000
  C   C18       1.0  0.10476  0.44691  0.33369  1.0000
  C   C19       1.0  0.12554  0.44201  0.33545  1.0000
  C   C20       1.0  0.15131  0.46230  0.34525  1.0000
  C   C21       1.0  0.15602  0.48779  0.35312  1.0000
  H   H9        1.0  0.12188  0.42351  0.32902  1.0000
  H   H10       1.0  0.17455  0.50264  0.35948  1.0000
  H   H11       1.0  0.09552  0.47647  0.34194  1.0000
  C   C22       1.0  0.13923  0.66001  0.34370  1.0000
  C   C23       1.0  0.11392  0.65570  0.34517  1.0000
  C   C24       1.0  0.10893  0.67633  0.34416  1.0000
  C   C25       1.0  0.13007  0.70179  0.33952  1.0000
  C   C26       1.0  0.15585  0.70679  0.33771  1.0000
  C   C27       1.0  0.15995  0.68551  0.34107  1.0000
  H   H12       1.0  0.12661  0.71682  0.33705  1.0000
  H   H13       1.0  0.17831  0.68852  0.34132  1.0000
  H   H14       1.0  0.09884  0.63716  0.34717  1.0000
  H   H15       1.0  0.18538  0.47166  0.47722  1.0000
  C   C28       1.0  0.18050  0.75179  0.39435  1.0000
  H   H16       1.0  0.16659  0.74800  0.44139  1.0000
  C   C29       1.0  0.14335  0.63875  0.34554  1.0000
  C   C30       1.0  0.14640  0.59300  0.35555  1.0000
  C   C31       1.0  0.15355  0.60979  0.43095  1.0000
  C   C32       1.0  0.15221  0.63265  0.42465  1.0000
  H   H17       1.0  0.15686  0.64441  0.47973  1.0000
  C   C33       1.0  0.14558  0.56891  0.35963  1.0000
  C   C34       1.0  0.14036  0.51896  0.35889  1.0000
  C   C35       1.0  0.12635  0.52523  0.42050  1.0000
  C   C36       1.0  0.12894  0.54982  0.42100  1.0000
  H   H18       1.0  0.11370  0.51172  0.46461  1.0000
  H   H19       1.0  0.11781  0.55335  0.46438  1.0000
  N   N2        1.0  0.16189  0.60346  0.51122  1.0000
  O   O3        1.0  0.14749  0.60097  0.57650  1.0000
  O   O4        1.0  0.18451  0.62024  0.53086  1.0000
  C   C37       1.0  0.03956  0.39123  0.39157  1.0000
  C   C38       1.0  0.06652  0.40756  0.39044  1.0000
  H   H20       1.0  0.03153  0.37802  0.44229  1.0000
  H   H21       1.0  0.07717  0.40614  0.44156  1.0000
  C   C39       1.0  0.06667  0.65681  0.41842  1.0000
  C   C40       1.0  0.03983  0.64599  0.41283  1.0000
  H   H22       1.0  0.07433  0.65370  0.47544  1.0000
  H   H23       1.0  0.02889  0.63533  0.46620  1.0000
  C   C41       1.0  0.21906  0.45537  0.33663  1.0000
  C   C42       1.0  0.20242  0.44836  0.26070  1.0000
  C   C43       1.0  0.24330  0.45613  0.33376  1.0000
  C   C44       1.0  0.26255  0.47232  0.27192  1.0000
  H   H24       1.0  0.25920  0.48341  0.22778  1.0000
  N   N3        1.0  0.20912  0.44032  0.18052  1.0000
  O   O5        1.0  0.21174  0.45487  0.11556  1.0000
  O   O6        1.0  0.19252  0.41771  0.15993  1.0000
  C   C45       1.0  0.24684  0.80643  0.33660  1.0000
  C   C46       1.0  0.25647  0.82308  0.26068  1.0000
  C   C47       1.0  0.22336  0.78220  0.33371  1.0000
  C   C48       1.0  0.19790  0.73856  0.27183  1.0000
  C   C49       1.0  0.22028  0.76297  0.27179  1.0000
  H   H25       1.0  0.19670  0.72515  0.22656  1.0000
  H   H26       1.0  0.23473  0.76630  0.22769  1.0000
  N   N4        1.0  0.24173  0.81639  0.18051  1.0000
  O   O7        1.0  0.25365  0.81377  0.11552  1.0000
  O   O8        1.0  0.23572  0.83300  0.15996  1.0000
  C   C50       1.0  0.18935  0.46493  0.41961  1.0000
  C   C51       1.0  0.21194  0.46332  0.41601  1.0000
  C   C52       1.0  0.24935  0.44189  0.39513  1.0000
  H   H27       1.0  0.23602  0.43015  0.44148  1.0000
  H   H28       1.0  0.22376  0.46910  0.47113  1.0000
  C   C53       1.0  0.26191  0.81356  0.41600  1.0000
  C   C54       1.0  0.20307  0.77614  0.39513  1.0000
  H   H29       1.0  0.20466  0.78946  0.44150  1.0000
  H   H30       1.0  0.25586  0.80172  0.47109  1.0000
  C   C55       1.0  0.29313  0.46019  0.33348  1.0000
  C   C56       1.0  0.28695  0.47433  0.27196  1.0000
  H   H31       1.0  0.30036  0.48655  0.22671  1.0000
  C   C57       1.0  0.29586  0.85286  0.34477  1.0000
  C   C58       1.0  0.28062  0.84615  0.26606  1.0000
  H   H32       1.0  0.28757  0.85761  0.21022  1.0000
  C   C59       1.0  0.32152  0.87417  0.34521  1.0000
  H   H33       1.0  0.31216  0.90360  0.32902  1.0000
  C   C60       1.0  0.32370  0.44324  0.33954  1.0000
  C   C61       1.0  0.31870  0.46403  0.33779  1.0000
  H   H34       1.0  0.30866  0.42475  0.33705  1.0000
  C   C62       1.0  0.27370  0.44365  0.39432  1.0000
  H   H35       1.0  0.27749  0.43355  0.44142  1.0000
  C   C63       1.0  0.28612  0.83613  0.41958  1.0000
  H   H36       1.0  0.29681  0.84010  0.47720  1.0000
  C   C64       1.0  0.56753  0.72963  0.34475  1.0000
  C   C65       1.0  0.57013  0.77865  0.33659  1.0000
  C   C66       1.0  0.57717  0.76903  0.26070  1.0000
  C   C67       1.0  0.57611  0.74489  0.26611  1.0000
  H   H37       1.0  0.58060  0.73793  0.21025  1.0000
  C   C68       1.0  0.56938  0.80213  0.33370  1.0000
  C   C69       1.0  0.56533  0.84791  0.33339  1.0000
  C   C70       1.0  0.55120  0.82759  0.27181  1.0000
  C   C71       1.0  0.55322  0.80521  0.27176  1.0000
  H   H38       1.0  0.53899  0.82879  0.22656  1.0000
  H   H39       1.0  0.54212  0.79077  0.22765  1.0000
  N   N5        1.0  0.58523  0.78377  0.18054  1.0000
  O   O9        1.0  0.57071  0.77186  0.11553  1.0000
  O   O10       1.0  0.60786  0.78980  0.16005  1.0000
  C   C72       1.0  0.45647  0.29733  0.34482  1.0000
  C   C73       1.0  0.45391  0.24832  0.33662  1.0000
  C   C74       1.0  0.44690  0.25795  0.26070  1.0000
  C   C75       1.0  0.44796  0.28209  0.26609  1.0000
  H   H40       1.0  0.44347  0.28906  0.21022  1.0000
  C   C76       1.0  0.45467  0.22485  0.33375  1.0000
  C   C77       1.0  0.45872  0.17907  0.33344  1.0000
  C   C78       1.0  0.47287  0.19940  0.27194  1.0000
  C   C79       1.0  0.47085  0.22179  0.27190  1.0000
  H   H41       1.0  0.48508  0.19820  0.22668  1.0000
  H   H42       1.0  0.48195  0.23623  0.22777  1.0000
  N   N6        1.0  0.43887  0.24323  0.18049  1.0000
  O   O11       1.0  0.45342  0.25516  0.11556  1.0000
  O   O12       1.0  0.41626  0.23720  0.15988  1.0000
  C   C80       1.0  0.40357  0.52927  0.27117  1.0000
  C   C81       1.0  0.42599  0.55349  0.27579  1.0000
  C   C82       1.0  0.46270  0.61193  0.29857  1.0000
  C   C83       1.0  0.48725  0.63410  0.29874  1.0000
  H   H43       1.0  0.44940  0.61056  0.25248  1.0000
  H   H44       1.0  0.49128  0.64804  0.25158  1.0000
  H   H45       1.0  0.39983  0.51861  0.21355  1.0000
  H   H46       1.0  0.43809  0.55968  0.22139  1.0000
  C   C84       1.0  0.49619  0.88918  0.27116  1.0000
  C   C85       1.0  0.47198  0.88740  0.27581  1.0000
  C   C86       1.0  0.41353  0.86567  0.29861  1.0000
  C   C87       1.0  0.39137  0.86807  0.29880  1.0000
  H   H47       1.0  0.41489  0.85374  0.25251  1.0000
  H   H48       1.0  0.37743  0.85817  0.25160  1.0000
  H   H49       1.0  0.50685  0.89612  0.21355  1.0000
  H   H50       1.0  0.46578  0.89330  0.22138  1.0000
  C   C88       1.0  0.62046  0.49768  0.27116  1.0000
  C   C89       1.0  0.59805  0.47346  0.27578  1.0000
  C   C90       1.0  0.56133  0.41502  0.29854  1.0000
  C   C91       1.0  0.53677  0.39286  0.29868  1.0000
  H   H51       1.0  0.57463  0.41637  0.25247  1.0000
  H   H52       1.0  0.53274  0.37890  0.25160  1.0000
  H   H53       1.0  0.62420  0.50834  0.21353  1.0000
  H   H54       1.0  0.58595  0.46727  0.22137  1.0000
  C   C92       1.0  0.52781  0.13773  0.27115  1.0000
  C   C93       1.0  0.55202  0.13952  0.27576  1.0000
  C   C94       1.0  0.61046  0.16124  0.29856  1.0000
  C   C95       1.0  0.63262  0.15885  0.29873  1.0000
  H   H55       1.0  0.60910  0.17318  0.25250  1.0000
  H   H56       1.0  0.64657  0.16877  0.25159  1.0000
  H   H57       1.0  0.51714  0.13081  0.21352  1.0000
  H   H58       1.0  0.55821  0.13362  0.22134  1.0000
  C   C96       1.0  0.66888  0.59960  0.34489  1.0000
  C   C97       1.0  0.64626  0.63181  0.33283  1.0000
  C   C98       1.0  0.66023  0.62973  0.25891  1.0000
  C   C99       1.0  0.67154  0.61391  0.26611  1.0000
  H   H59       1.0  0.68040  0.61161  0.21090  1.0000
  C   C100      1.0  0.63188  0.64496  0.32656  1.0000
  C   C101      1.0  0.59839  0.66630  0.32493  1.0000
  C   C102      1.0  0.59635  0.64838  0.25878  1.0000
  C   C103      1.0  0.61274  0.63792  0.25960  1.0000
  H   H60       1.0  0.58200  0.64181  0.21164  1.0000
  H   H61       1.0  0.60952  0.62392  0.21363  1.0000
  N   N7        1.0  0.66244  0.64332  0.17834  1.0000
  O   O13       1.0  0.65267  0.62834  0.11249  1.0000
  O   O14       1.0  0.68552  0.65912  0.16045  1.0000
  C   C104      1.0  0.42588  0.08424  0.34500  1.0000
  C   C105      1.0  0.39368  0.02940  0.33286  1.0000
  C   C106      1.0  0.39581  0.04545  0.25888  1.0000
  C   C107      1.0  0.41165  0.07257  0.26609  1.0000
  H   H62       1.0  0.41393  0.08374  0.21090  1.0000
  C   C108      1.0  0.38053  0.00187  0.32658  1.0000
  C   C109      1.0  0.35922  0.94705  0.32498  1.0000
  C   C110      1.0  0.37715  0.96293  0.25886  1.0000
  C   C111      1.0  0.38761  0.98978  0.25970  1.0000
  H   H63       1.0  0.38374  0.95516  0.21175  1.0000
  H   H64       1.0  0.40162  0.00056  0.21378  1.0000
  N   N8        1.0  0.38225  0.03408  0.17825  1.0000
  O   O15       1.0  0.39726  0.03927  0.11249  1.0000
  O   O16       1.0  0.36647  0.04138  0.16021  1.0000
  C   C112      1.0  0.35512  0.42734  0.34487  1.0000
  C   C113      1.0  0.37773  0.39513  0.33280  1.0000
  C   C114      1.0  0.36379  0.39723  0.25885  1.0000
  C   C115      1.0  0.35250  0.41307  0.26603  1.0000
  H   H65       1.0  0.34362  0.41536  0.21085  1.0000
  C   C116      1.0  0.39214  0.38200  0.32652  1.0000
  C   C117      1.0  0.42566  0.36070  0.32494  1.0000
  C   C118      1.0  0.42770  0.37863  0.25883  1.0000
  C   C119      1.0  0.41131  0.38909  0.25966  1.0000
  H   H66       1.0  0.44204  0.38519  0.21164  1.0000
  H   H67       1.0  0.41449  0.40305  0.21362  1.0000
  N   N9        1.0  0.36159  0.38365  0.17826  1.0000
  O   O17       1.0  0.37137  0.39864  0.11244  1.0000
  O   O18       1.0  0.33850  0.36787  0.16031  1.0000
  C   C120      1.0  0.59811  0.94273  0.34492  1.0000
  C   C121      1.0  0.63033  0.99755  0.33284  1.0000
  C   C122      1.0  0.62826  0.98150  0.25895  1.0000
  C   C123      1.0  0.61244  0.95437  0.26616  1.0000
  H   H68       1.0  0.61015  0.94320  0.21097  1.0000
  C   C124      1.0  0.64349  0.02508  0.32655  1.0000
  C   C125      1.0  0.66484  0.07992  0.32485  1.0000
  C   C126      1.0  0.64692  0.06403  0.25870  1.0000
  C   C127      1.0  0.63646  0.03718  0.25955  1.0000
  H   H69       1.0  0.64035  0.07180  0.21153  1.0000
  H   H70       1.0  0.62247  0.02640  0.21357  1.0000
  N   N10       1.0  0.64187  0.99287  0.17841  1.0000
  O   O19       1.0  0.62691  0.98766  0.11251  1.0000
  O   O20       1.0  0.65767  0.98559  0.16059  1.0000
  C   C128      1.0  0.53221  0.65739  0.35262  1.0000
  C   C129      1.0  0.55288  0.65267  0.34295  1.0000
  C   C130      1.0  0.57860  0.67282  0.33369  1.0000
  C   C131      1.0  0.58349  0.69850  0.33545  1.0000
  C   C132      1.0  0.56320  0.70397  0.34522  1.0000
  C   C133      1.0  0.53770  0.68318  0.35308  1.0000
  H   H71       1.0  0.60199  0.71334  0.32901  1.0000
  H   H72       1.0  0.52285  0.68685  0.35943  1.0000
  H   H73       1.0  0.54906  0.63401  0.34198  1.0000
  C   C134      1.0  0.36809  0.88975  0.35262  1.0000
  C   C135      1.0  0.37282  0.91515  0.34299  1.0000
  C   C136      1.0  0.35268  0.92073  0.33370  1.0000
  C   C137      1.0  0.32700  0.89995  0.33546  1.0000
  C   C138      1.0  0.34230  0.86947  0.35309  1.0000
  H   H74       1.0  0.33863  0.85093  0.35943  1.0000
  H   H75       1.0  0.39148  0.92998  0.34201  1.0000
  C   C139      1.0  0.49181  0.36957  0.35264  1.0000
  C   C140      1.0  0.47115  0.37430  0.34298  1.0000
  C   C141      1.0  0.44543  0.35416  0.33371  1.0000
  C   C142      1.0  0.44053  0.32848  0.33549  1.0000
  C   C143      1.0  0.46082  0.32299  0.34526  1.0000
  C   C144      1.0  0.48631  0.34378  0.35312  1.0000
  H   H76       1.0  0.42203  0.31364  0.32906  1.0000
  H   H77       1.0  0.50116  0.34010  0.35945  1.0000
  H   H78       1.0  0.47499  0.39296  0.34197  1.0000
  C   C145      1.0  0.65592  0.13718  0.35258  1.0000
  C   C146      1.0  0.65120  0.11179  0.34289  1.0000
  C   C147      1.0  0.67135  0.10622  0.33361  1.0000
  C   C148      1.0  0.69703  0.12702  0.33540  1.0000
  C   C149      1.0  0.70250  0.15279  0.34519  1.0000
  C   C150      1.0  0.68170  0.15748  0.35305  1.0000
  H   H79       1.0  0.71188  0.12337  0.32898  1.0000
  H   H80       1.0  0.68537  0.17600  0.35941  1.0000
  H   H81       1.0  0.63254  0.09695  0.34189  1.0000
  C   C151      1.0  0.49270  0.14068  0.34371  1.0000
  C   C152      1.0  0.47168  0.11538  0.34516  1.0000
  C   C153      1.0  0.44608  0.11041  0.34416  1.0000
  C   C154      1.0  0.44178  0.13156  0.33955  1.0000
  C   C155      1.0  0.46256  0.15734  0.33776  1.0000
  C   C156      1.0  0.48794  0.16141  0.34110  1.0000
  H   H82       1.0  0.42328  0.12810  0.33710  1.0000
  H   H83       1.0  0.50330  0.17978  0.34137  1.0000
  H   H84       1.0  0.47514  0.10029  0.34715  1.0000
  C   C157      1.0  0.65853  0.53279  0.34370  1.0000
  C   C158      1.0  0.65423  0.55380  0.34512  1.0000
  C   C159      1.0  0.67487  0.57941  0.34411  1.0000
  C   C160      1.0  0.70032  0.58371  0.33950  1.0000
  C   C161      1.0  0.70532  0.56294  0.33773  1.0000
  C   C162      1.0  0.68402  0.53756  0.34109  1.0000
  H   H85       1.0  0.71535  0.60221  0.33703  1.0000
  H   H86       1.0  0.68703  0.52220  0.34137  1.0000
  H   H87       1.0  0.63569  0.55034  0.34709  1.0000
  C   C163      1.0  0.53131  0.88625  0.34370  1.0000
  C   C164      1.0  0.55231  0.91157  0.34515  1.0000
  C   C165      1.0  0.57792  0.91655  0.34413  1.0000
  C   C166      1.0  0.58224  0.89541  0.33950  1.0000
  C   C167      1.0  0.56147  0.86963  0.33771  1.0000
  C   C168      1.0  0.53609  0.86554  0.34109  1.0000
  H   H88       1.0  0.60074  0.89888  0.33701  1.0000
  H   H89       1.0  0.52074  0.84717  0.34135  1.0000
  H   H90       1.0  0.54884  0.92664  0.34712  1.0000
  C   C169      1.0  0.36549  0.49416  0.34372  1.0000
  C   C170      1.0  0.36979  0.47315  0.34511  1.0000
  C   C171      1.0  0.34914  0.44754  0.34412  1.0000
  C   C172      1.0  0.34000  0.48940  0.34114  1.0000
  H   H91       1.0  0.33700  0.50476  0.34142  1.0000
  H   H92       1.0  0.38833  0.47661  0.34707  1.0000
  C   C173      1.0  0.56053  0.73936  0.41954  1.0000
  C   C174      1.0  0.56216  0.76357  0.41596  1.0000
  C   C175      1.0  0.58361  0.82242  0.39511  1.0000
  C   C176      1.0  0.58185  0.84501  0.39428  1.0000
  H   H93       1.0  0.59533  0.82082  0.44151  1.0000
  H   H94       1.0  0.59193  0.85889  0.44142  1.0000
  H   H95       1.0  0.55378  0.72866  0.47713  1.0000
  H   H96       1.0  0.55635  0.76961  0.47103  1.0000
  C   C177      1.0  0.46345  0.28759  0.41962  1.0000
  C   C178      1.0  0.46185  0.26339  0.41602  1.0000
  C   C179      1.0  0.44043  0.20456  0.39513  1.0000
  C   C180      1.0  0.44219  0.18197  0.39431  1.0000
  H   H97       1.0  0.42869  0.20614  0.44148  1.0000
  H   H98       1.0  0.43209  0.16808  0.44141  1.0000
  H   H99       1.0  0.47018  0.29829  0.47724  1.0000
  H   H100      1.0  0.46763  0.25735  0.47114  1.0000
  C   C181      1.0  0.38676  0.51954  0.34554  1.0000
  C   C182      1.0  0.43252  0.56834  0.35557  1.0000
  C   C183      1.0  0.41572  0.55871  0.43093  1.0000
  C   C184      1.0  0.39285  0.53451  0.42461  1.0000
  H   H101      1.0  0.38109  0.52741  0.47970  1.0000
  C   C185      1.0  0.45661  0.59160  0.35966  1.0000
  C   C186      1.0  0.50655  0.63635  0.35888  1.0000
  C   C187      1.0  0.50030  0.61607  0.42049  1.0000
  C   C188      1.0  0.47569  0.59407  0.42106  1.0000
  H   H102      1.0  0.51380  0.61694  0.46465  1.0000
  H   H103      1.0  0.47217  0.57942  0.46445  1.0000
  N   N11       1.0  0.42204  0.57339  0.51119  1.0000
  O   O21       1.0  0.42451  0.56147  0.57651  1.0000
  O   O22       1.0  0.40526  0.57924  0.53076  1.0000
  C   C189      1.0  0.50593  0.88213  0.34556  1.0000
  C   C190      1.0  0.45712  0.87908  0.35558  1.0000
  C   C191      1.0  0.46677  0.87192  0.43097  1.0000
  C   C192      1.0  0.49096  0.87325  0.42465  1.0000
  H   H104      1.0  0.49808  0.86862  0.47974  1.0000
  C   C193      1.0  0.43387  0.87991  0.35966  1.0000
  C   C194      1.0  0.38913  0.88513  0.35890  1.0000
  C   C195      1.0  0.40941  0.89915  0.42052  1.0000
  C   C196      1.0  0.43142  0.89656  0.42101  1.0000
  H   H105      1.0  0.40855  0.91178  0.46467  1.0000
  H   H106      1.0  0.44606  0.90766  0.46447  1.0000
  N   N12       1.0  0.45209  0.86358  0.51124  1.0000
  O   O23       1.0  0.46401  0.87798  0.57653  1.0000
  O   O24       1.0  0.44625  0.84095  0.53087  1.0000
  C   C197      1.0  0.63727  0.50741  0.34553  1.0000
  C   C198      1.0  0.59151  0.45861  0.35555  1.0000
  C   C199      1.0  0.60832  0.46824  0.43091  1.0000
  C   C200      1.0  0.63117  0.49244  0.42461  1.0000
  H   H107      1.0  0.64294  0.49954  0.47968  1.0000
  C   C201      1.0  0.56743  0.43534  0.35963  1.0000
  C   C202      1.0  0.51748  0.39061  0.35887  1.0000
  C   C203      1.0  0.52375  0.41088  0.42053  1.0000
  C   C204      1.0  0.54834  0.43289  0.42103  1.0000
  H   H108      1.0  0.51025  0.41002  0.46467  1.0000
  H   H109      1.0  0.55188  0.44753  0.46445  1.0000
  N   N13       1.0  0.60199  0.45356  0.51116  1.0000
  O   O25       1.0  0.59951  0.46546  0.57649  1.0000
  O   O26       1.0  0.61878  0.44772  0.53074  1.0000
  C   C205      1.0  0.51807  0.14479  0.34555  1.0000
  C   C206      1.0  0.56686  0.14782  0.35555  1.0000
  C   C207      1.0  0.55723  0.15499  0.43094  1.0000
  C   C208      1.0  0.53304  0.15366  0.42463  1.0000
  H   H110      1.0  0.52593  0.15831  0.47972  1.0000
  C   C209      1.0  0.59013  0.14700  0.35963  1.0000
  C   C210      1.0  0.63487  0.14179  0.35881  1.0000
  C   C211      1.0  0.61459  0.12776  0.42042  1.0000
  C   C212      1.0  0.59259  0.13037  0.42100  1.0000
  H   H111      1.0  0.61546  0.11513  0.46456  1.0000
  H   H112      1.0  0.57793  0.11923  0.46438  1.0000
  N   N14       1.0  0.57191  0.16333  0.51120  1.0000
  O   O27       1.0  0.55999  0.14894  0.57650  1.0000
  O   O28       1.0  0.57776  0.18596  0.53082  1.0000
  C   C213      1.0  0.65533  0.60213  0.41830  1.0000
  C   C214      1.0  0.64450  0.61815  0.41275  1.0000
  C   C215      1.0  0.63428  0.66330  0.39163  1.0000
  C   C216      1.0  0.61797  0.67394  0.39051  1.0000
  H   H113      1.0  0.64749  0.66847  0.44238  1.0000
  H   H114      1.0  0.61938  0.68601  0.44165  1.0000
  H   H115      1.0  0.65220  0.59134  0.47528  1.0000
  H   H116      1.0  0.63384  0.61841  0.46610  1.0000
  C   C217      1.0  0.42332  0.06815  0.41841  1.0000
  C   C218      1.0  0.40730  0.04131  0.41285  1.0000
  C   C219      1.0  0.36218  0.98593  0.39162  1.0000
  C   C220      1.0  0.35157  0.95897  0.39053  1.0000
  H   H117      1.0  0.35696  0.99395  0.44221  1.0000
  H   H118      1.0  0.33942  0.94830  0.44147  1.0000
  H   H119      1.0  0.43405  0.07580  0.47549  1.0000
  H   H120      1.0  0.40700  0.03037  0.46626  1.0000
  C   C221      1.0  0.36864  0.42479  0.41832  1.0000
  C   C222      1.0  0.37949  0.40879  0.41272  1.0000
  C   C223      1.0  0.38973  0.36366  0.39156  1.0000
  C   C224      1.0  0.40606  0.35303  0.39046  1.0000
  H   H121      1.0  0.37651  0.35846  0.44226  1.0000
  H   H122      1.0  0.40464  0.34094  0.44154  1.0000
  H   H123      1.0  0.37178  0.43558  0.47529  1.0000
  H   H124      1.0  0.39014  0.40852  0.46611  1.0000
  C   C225      1.0  0.60062  0.95881  0.41830  1.0000
  C   C226      1.0  0.61666  0.98565  0.41276  1.0000
  C   C227      1.0  0.66181  0.04102  0.39165  1.0000
  C   C228      1.0  0.67246  0.06798  0.39049  1.0000
  H   H125      1.0  0.66697  0.03299  0.44244  1.0000
  H   H126      1.0  0.68451  0.07864  0.44165  1.0000
  H   H127      1.0  0.58984  0.95116  0.47529  1.0000
  H   H128      1.0  0.61692  0.99659  0.46609  1.0000
  C   C229      1.0  0.73089  0.56678  0.33341  1.0000
  C   C230      1.0  0.73708  0.55264  0.27188  1.0000
  H   H129      1.0  0.72366  0.54043  0.22663  1.0000
  C   C231      1.0  0.72815  0.17411  0.34474  1.0000
  C   C232      1.0  0.74342  0.18080  0.26610  1.0000
  H   H130      1.0  0.73647  0.16935  0.21024  1.0000
  H   H131      1.0  0.74653  0.59341  0.44137  1.0000
  C   C233      1.0  0.73788  0.19085  0.41951  1.0000
  H   H132      1.0  0.72717  0.18688  0.47711  1.0000
  C   C234      1.0  0.76148  0.55467  0.27179  1.0000
  H   H133      1.0  0.76482  0.54355  0.22772  1.0000
  C   C235      1.0  0.76756  0.20389  0.26071  1.0000
  C   C236      1.0  0.75032  0.58331  0.39428  1.0000
  C   C237      1.0  0.76208  0.21343  0.41596  1.0000
  H   H134      1.0  0.76812  0.22527  0.47104  1.0000
  C   C238      1.0  0.85140  0.56903  0.34481  1.0000
  C   C239      1.0  0.80495  0.57158  0.33658  1.0000
  C   C240      1.0  0.82160  0.57860  0.26067  1.0000
  C   C241      1.0  0.84468  0.57754  0.26608  1.0000
  H   H135      1.0  0.85613  0.58203  0.21022  1.0000
  C   C242      1.0  0.78072  0.57083  0.33369  1.0000
  N   N15       1.0  0.81490  0.58663  0.18046  1.0000
  O   O29       1.0  0.81229  0.57208  0.11552  1.0000
  O   O30       1.0  0.83150  0.60924  0.15985  1.0000
  C   C243      1.0  0.77717  0.22054  0.33660  1.0000
  C   C244      1.0  0.80065  0.24478  0.33373  1.0000
  C   C245      1.0  0.84644  0.29460  0.33340  1.0000
  C   C246      1.0  0.82611  0.28841  0.27185  1.0000
  C   C247      1.0  0.80373  0.26401  0.27180  1.0000
  H   H136      1.0  0.82732  0.30183  0.22660  1.0000
  H   H137      1.0  0.78929  0.26067  0.22768  1.0000
  N   N16       1.0  0.78230  0.21057  0.18056  1.0000
  O   O31       1.0  0.77038  0.21318  0.11554  1.0000
  O   O32       1.0  0.78834  0.19398  0.16006  1.0000
  C   C248      1.0  0.88776  0.40503  0.27118  1.0000
  C   C249      1.0  0.88596  0.42745  0.27580  1.0000
  C   C250      1.0  0.86421  0.46416  0.29857  1.0000
  C   C251      1.0  0.86660  0.48871  0.29876  1.0000
  H   H138      1.0  0.85229  0.45086  0.25243  1.0000
  H   H139      1.0  0.85671  0.49275  0.25154  1.0000
  H   H140      1.0  0.89471  0.40131  0.21360  1.0000
  H   H141      1.0  0.89188  0.43956  0.22141  1.0000
  C   C252      1.0  0.94126  0.35661  0.34486  1.0000
  C   C253      1.0  0.99609  0.37923  0.33278  1.0000
  C   C254      1.0  0.98004  0.36527  0.25885  1.0000
  C   C255      1.0  0.95292  0.35399  0.26604  1.0000
  H   H142      1.0  0.94174  0.34509  0.21086  1.0000
  N   N17       1.0  0.99142  0.36306  0.17829  1.0000
  O   O33       1.0  0.98621  0.37283  0.11244  1.0000
  O   O34       1.0  0.98412  0.33997  0.16038  1.0000
  C   C256      1.0  0.00041  0.63334  0.32655  1.0000
  C   C257      1.0  0.94558  0.59983  0.32497  1.0000
  C   C258      1.0  0.96146  0.59778  0.25888  1.0000
  C   C259      1.0  0.98831  0.61419  0.25960  1.0000
  H   H143      1.0  0.95368  0.58345  0.21166  1.0000
  H   H144      1.0  0.99909  0.61097  0.21367  1.0000
  C   C260      1.0  0.88828  0.53367  0.35262  1.0000
  C   C261      1.0  0.91368  0.55434  0.34298  1.0000
  C   C262      1.0  0.91927  0.58006  0.33370  1.0000
  C   C263      1.0  0.89848  0.58496  0.33548  1.0000
  C   C264      1.0  0.87271  0.56467  0.34523  1.0000
  C   C265      1.0  0.86799  0.53918  0.35310  1.0000
  H   H145      1.0  0.90215  0.60346  0.32906  1.0000
  H   H146      1.0  0.84947  0.52433  0.35944  1.0000
  H   H147      1.0  0.92850  0.55050  0.34199  1.0000
  C   C266      1.0  0.88480  0.36696  0.34370  1.0000
  C   C267      1.0  0.91011  0.37127  0.34512  1.0000
  C   C268      1.0  0.91508  0.35063  0.34410  1.0000
  C   C269      1.0  0.89394  0.32518  0.33949  1.0000
  C   C270      1.0  0.86816  0.32018  0.33774  1.0000
  C   C271      1.0  0.86407  0.34147  0.34111  1.0000
  H   H148      1.0  0.89740  0.31015  0.33701  1.0000
  H   H149      1.0  0.84571  0.33846  0.34138  1.0000
  H   H150      1.0  0.92519  0.38981  0.34709  1.0000
  C   C272      1.0  0.83467  0.56204  0.41960  1.0000
  C   C273      1.0  0.81209  0.56366  0.41600  1.0000
  C   C274      1.0  0.77467  0.58507  0.39509  1.0000
  H   H151      1.0  0.78800  0.59681  0.44144  1.0000
  H   H152      1.0  0.83864  0.55532  0.47724  1.0000
  H   H153      1.0  0.80025  0.55787  0.47111  1.0000
  C   C275      1.0  0.82093  0.25083  0.39514  1.0000
  C   C276      1.0  0.84353  0.27518  0.39431  1.0000
  H   H154      1.0  0.81934  0.23751  0.44153  1.0000
  H   H155      1.0  0.85740  0.27897  0.44145  1.0000
  C   C277      1.0  0.88068  0.38822  0.34556  1.0000
  C   C278      1.0  0.87762  0.43397  0.35556  1.0000
  C   C279      1.0  0.87044  0.41716  0.43091  1.0000
  C   C280      1.0  0.87176  0.39430  0.42459  1.0000
  H   H156      1.0  0.86712  0.38254  0.47969  1.0000
  C   C281      1.0  0.87844  0.45806  0.35964  1.0000
  C   C282      1.0  0.88365  0.50801  0.35889  1.0000
  C   C283      1.0  0.89765  0.50174  0.42055  1.0000
  C   C284      1.0  0.89507  0.47714  0.42106  1.0000
  H   H157      1.0  0.91030  0.51524  0.46468  1.0000
  H   H158      1.0  0.90618  0.47361  0.46448  1.0000
  N   N18       1.0  0.86208  0.42349  0.51116  1.0000
  O   O35       1.0  0.87646  0.42595  0.57649  1.0000
  O   O36       1.0  0.83944  0.40671  0.53070  1.0000
  C   C285      1.0  0.95734  0.37015  0.41829  1.0000
  C   C286      1.0  0.98418  0.38100  0.41268  1.0000
  H   H159      1.0  0.94969  0.37330  0.47525  1.0000
  H   H160      1.0  0.99511  0.39166  0.46607  1.0000
  C   C287      1.0  0.98447  0.63574  0.39162  1.0000
  C   C288      1.0  0.95751  0.61942  0.39051  1.0000
  H   H161      1.0  0.99250  0.64897  0.44229  1.0000
  H   H162      1.0  0.94686  0.62087  0.44156  1.0000
