data_image0
_chemical_formula_structural       C3HC4HN2H2O2C3HC4HN2H2O2C3HC4HN2H2O2C5H2NH2NO2C5H2NH2NO2C5H2NH2NO2C3HC4HN2H2O2C3HC4HN2H2O2C3HC4HN2H2O2C3HC4HN2H2O2C3HC4HN2H2O2C3HC4HN2H2O2C5H2NH2NO2C5H2NH2NO2C5H2NH2NO2C5H2NH2NO2C5H2NH2NO2C5H2NH2NO2C3HC4HN2H2O2C3HC4HN2H2O2C3HC4HN2H2O2C3HC4HN2H2O2C3HC4HN2H2O2C3HC4HN2H2O2CNCNCNCNCNCNCNCNCNCNCNCNCNCNCNCNCNCNCNCNCNCNCNCNCNCNCNCNCNCNCNCNCNCNCNCNCNCNCNCNCNCNCNCNCNCNCNCNC5H2NH2NO2C5H2NH2NO2C5H2NH2NO2C3HC4HN2H2O2C3HC4HN2H2O2C3HC4HN2H2O2C5H2NH2NO2C5H2NH2NO2C5H2NH2NO2C5H2NH2NO2C5H2NH2NO2C5H2NH2NO2C3HC4HN2H2O2C3HC4HN2H2O2C3HC4HN2H2O2C3HC4HN2H2O2C3HC4HN2H2O2C3HC4HN2H2O2C5H2NH2NO2C5H2NH2NO2C5H2NH2NO2C5H2NH2NO2C5H2NH2NO2C5H2NH2NO2
_chemical_formula_sum              "C336 H192 N144 O96"
_cell_length_a       63.0347
_cell_length_b       63.0346
_cell_length_c       14.8165
_cell_angle_alpha    90
_cell_angle_beta     90
_cell_angle_gamma    120

_space_group_name_H-M_alt    "P 1"
_space_group_IT_number       1

loop_
  _space_group_symop_operation_xyz
  'x, y, z'

loop_
  _atom_site_type_symbol
  _atom_site_label
  _atom_site_symmetry_multiplicity
  _atom_site_fract_x
  _atom_site_fract_y
  _atom_site_fract_z
  _atom_site_occupancy
  C   C1        1.0  0.00783  0.11931  0.34422  1.0000
  C   C2        1.0  0.98931  0.12228  0.30036  1.0000
  C   C3        1.0  0.99041  0.14542  0.30295  1.0000
  H   H1        1.0  0.97696  0.14710  0.27059  1.0000
  C   C4        1.0  0.00834  0.09655  0.34518  1.0000
  C   C5        1.0  0.00908  0.05085  0.34747  1.0000
  C   C6        1.0  0.01161  0.06360  0.26527  1.0000
  C   C7        1.0  0.01119  0.08598  0.26522  1.0000
  H   H2        1.0  0.01304  0.09475  0.20508  1.0000
  N   N1        1.0  0.01436  0.05355  0.18355  1.0000
  N   N2        1.0  0.96997  0.10340  0.25757  1.0000
  H   H3        1.0  0.95721  0.10553  0.22920  1.0000
  H   H4        1.0  0.96755  0.08694  0.25724  1.0000
  O   O1        1.0  0.99717  0.04882  0.12957  1.0000
  O   O2        1.0  0.03436  0.06781  0.14570  1.0000
  C   C8        1.0  0.89621  0.89164  0.34424  1.0000
  C   C9        1.0  0.89325  0.87015  0.30041  1.0000
  C   C10       1.0  0.87012  0.84810  0.30303  1.0000
  H   H5        1.0  0.86844  0.83298  0.27067  1.0000
  C   C11       1.0  0.91897  0.91492  0.34521  1.0000
  C   C12       1.0  0.96467  0.96133  0.34749  1.0000
  C   C13       1.0  0.95190  0.95113  0.26531  1.0000
  C   C14       1.0  0.92951  0.92834  0.26525  1.0000
  H   H6        1.0  0.92073  0.92143  0.20513  1.0000
  N   N3        1.0  0.96193  0.96394  0.18360  1.0000
  N   N4        1.0  0.91213  0.86969  0.25761  1.0000
  H   H7        1.0  0.91000  0.85483  0.22907  1.0000
  H   H8        1.0  0.92858  0.88376  0.25705  1.0000
  O   O3        1.0  0.96664  0.95149  0.12953  1.0000
  O   O4        1.0  0.94766  0.96970  0.14587  1.0000
  C   C15       1.0  0.12390  0.00762  0.34423  1.0000
  C   C16       1.0  0.14541  0.02613  0.30038  1.0000
  C   C17       1.0  0.16744  0.02500  0.30294  1.0000
  H   H9        1.0  0.18257  0.03845  0.27058  1.0000
  C   C18       1.0  0.10063  0.00713  0.34519  1.0000
  C   C19       1.0  0.05421  0.00643  0.34749  1.0000
  C   C20       1.0  0.06443  0.00390  0.26529  1.0000
  C   C21       1.0  0.08722  0.00430  0.26523  1.0000
  H   H10       1.0  0.09413  0.00244  0.20509  1.0000
  N   N5        1.0  0.05162  0.00115  0.18359  1.0000
  N   N6        1.0  0.14589  0.04549  0.25761  1.0000
  H   H11       1.0  0.16077  0.05823  0.22925  1.0000
  H   H12       1.0  0.13185  0.04792  0.25730  1.0000
  O   O5        1.0  0.06408  0.01833  0.12959  1.0000
  O   O6        1.0  0.04586  0.98114  0.14575  1.0000
  C   C22       1.0  0.14810  0.38334  0.34337  1.0000
  C   C23       1.0  0.12532  0.37437  0.29781  1.0000
  C   C24       1.0  0.10771  0.34901  0.30013  1.0000
  C   C25       1.0  0.08445  0.29289  0.26640  1.0000
  C   C26       1.0  0.06481  0.26827  0.26417  1.0000
  H   H13       1.0  0.09300  0.30121  0.20728  1.0000
  H   H14       1.0  0.09144  0.34309  0.26693  1.0000
  N   N7        1.0  0.05793  0.25677  0.18273  1.0000
  H   H15       1.0  0.06630  0.26499  0.12727  1.0000
  H   H16       1.0  0.04469  0.23995  0.17697  1.0000
  N   N8        1.0  0.12056  0.39063  0.24737  1.0000
  O   O7        1.0  0.10210  0.39112  0.27666  1.0000
  O   O8        1.0  0.11755  0.38516  0.16499  1.0000
  C   C27       1.0  0.63226  0.76766  0.34340  1.0000
  C   C28       1.0  0.64127  0.75392  0.29763  1.0000
  C   C29       1.0  0.66664  0.76174  0.29992  1.0000
  C   C30       1.0  0.72271  0.79467  0.26631  1.0000
  C   C31       1.0  0.74732  0.79966  0.26412  1.0000
  H   H17       1.0  0.71438  0.79489  0.20718  1.0000
  H   H18       1.0  0.67260  0.75143  0.26662  1.0000
  N   N9        1.0  0.75883  0.80430  0.18269  1.0000
  H   H19       1.0  0.75061  0.80442  0.12720  1.0000
  H   H20       1.0  0.77566  0.80788  0.17696  1.0000
  N   N10       1.0  0.62504  0.73293  0.24702  1.0000
  O   O9        1.0  0.62459  0.71397  0.27608  1.0000
  O   O10       1.0  0.63050  0.73545  0.16463  1.0000
  C   C32       1.0  0.24818  0.86749  0.34359  1.0000
  C   C33       1.0  0.26185  0.89026  0.29785  1.0000
  C   C34       1.0  0.25398  0.90779  0.30007  1.0000
  C   C35       1.0  0.22097  0.93094  0.26642  1.0000
  C   C36       1.0  0.21594  0.95055  0.26417  1.0000
  H   H21       1.0  0.22078  0.92241  0.20729  1.0000
  H   H22       1.0  0.26426  0.92405  0.26673  1.0000
  N   N11       1.0  0.21129  0.95740  0.18272  1.0000
  H   H23       1.0  0.21115  0.94904  0.12728  1.0000
  H   H24       1.0  0.20767  0.97062  0.17697  1.0000
  N   N12       1.0  0.28285  0.89507  0.24723  1.0000
  O   O11       1.0  0.30177  0.91362  0.27619  1.0000
  O   O12       1.0  0.28029  0.89798  0.16484  1.0000
  C   C37       1.0  0.33506  0.10858  0.34227  1.0000
  C   C38       1.0  0.34400  0.13130  0.29595  1.0000
  C   C39       1.0  0.36944  0.14881  0.29911  1.0000
  H   H25       1.0  0.37559  0.16498  0.26499  1.0000
  C   C40       1.0  0.30976  0.08950  0.34196  1.0000
  C   C41       1.0  0.25981  0.04981  0.34263  1.0000
  C   C42       1.0  0.27369  0.05710  0.26133  1.0000
  C   C43       1.0  0.29823  0.07683  0.26193  1.0000
  H   H26       1.0  0.30801  0.08160  0.20292  1.0000
  N   N13       1.0  0.26284  0.04429  0.18029  1.0000
  N   N14       1.0  0.32892  0.13717  0.25014  1.0000
  H   H27       1.0  0.33525  0.15292  0.21998  1.0000
  H   H28       1.0  0.31128  0.12639  0.24896  1.0000
  O   O13       1.0  0.26212  0.05825  0.12131  1.0000
  O   O14       1.0  0.27418  0.03426  0.14891  1.0000
  C   C44       1.0  0.78598  0.68049  0.34225  1.0000
  C   C45       1.0  0.79980  0.67158  0.29598  1.0000
  C   C46       1.0  0.79190  0.64616  0.29919  1.0000
  H   H29       1.0  0.80194  0.64003  0.26510  1.0000
  C   C47       1.0  0.79219  0.70578  0.34194  1.0000
  C   C48       1.0  0.80251  0.75572  0.34255  1.0000
  C   C49       1.0  0.79589  0.74184  0.26128  1.0000
  C   C50       1.0  0.79105  0.71729  0.26189  1.0000
  H   H30       1.0  0.78600  0.70750  0.20292  1.0000
  N   N15       1.0  0.79389  0.75268  0.18027  1.0000
  N   N16       1.0  0.82075  0.68668  0.25018  1.0000
  H   H31       1.0  0.83017  0.68036  0.21990  1.0000
  H   H32       1.0  0.82756  0.70431  0.24881  1.0000
  O   O15       1.0  0.80851  0.75337  0.12116  1.0000
  O   O16       1.0  0.77249  0.74134  0.14905  1.0000
  C   C51       1.0  0.90687  0.22949  0.34224  1.0000
  C   C52       1.0  0.88416  0.21568  0.29594  1.0000
  C   C53       1.0  0.86663  0.22357  0.29915  1.0000
  H   H33       1.0  0.85045  0.21353  0.26505  1.0000
  C   C54       1.0  0.92596  0.22329  0.34192  1.0000
  C   C55       1.0  0.96561  0.21301  0.34256  1.0000
  C   C56       1.0  0.95834  0.21961  0.26126  1.0000
  C   C57       1.0  0.93862  0.22444  0.26188  1.0000
  H   H34       1.0  0.93386  0.22947  0.20290  1.0000
  N   N17       1.0  0.97116  0.22159  0.18023  1.0000
  N   N18       1.0  0.87831  0.19473  0.25011  1.0000
  H   H35       1.0  0.86256  0.18529  0.21997  1.0000
  H   H36       1.0  0.88911  0.18790  0.24890  1.0000
  O   O17       1.0  0.95721  0.20695  0.12118  1.0000
  O   O18       1.0  0.98121  0.24298  0.14894  1.0000
  C   C58       1.0  0.31287  0.48533  0.34682  1.0000
  C   C59       1.0  0.32777  0.50808  0.30206  1.0000
  C   C60       1.0  0.35363  0.51869  0.30456  1.0000
  H   H37       1.0  0.36417  0.53490  0.27123  1.0000
  C   C61       1.0  0.28664  0.47293  0.34769  1.0000
  C   C62       1.0  0.23425  0.44856  0.35004  1.0000
  C   C63       1.0  0.24704  0.45232  0.26725  1.0000
  C   C64       1.0  0.27297  0.46413  0.26732  1.0000
  H   H38       1.0  0.28199  0.46677  0.20721  1.0000
  N   N19       1.0  0.23373  0.44475  0.18519  1.0000
  N   N20       1.0  0.31824  0.52047  0.25861  1.0000
  H   H39       1.0  0.32875  0.53619  0.22962  1.0000
  H   H40       1.0  0.30080  0.51474  0.25854  1.0000
  O   O19       1.0  0.23937  0.46262  0.13358  1.0000
  O   O20       1.0  0.23731  0.42931  0.14465  1.0000
  C   C65       1.0  0.52988  0.82982  0.34767  1.0000
  C   C66       1.0  0.50721  0.82218  0.30267  1.0000
  C   C67       1.0  0.49679  0.83761  0.30526  1.0000
  H   H41       1.0  0.48068  0.83217  0.27154  1.0000
  C   C68       1.0  0.54222  0.81596  0.34813  1.0000
  C   C69       1.0  0.56704  0.78846  0.35008  1.0000
  C   C70       1.0  0.56314  0.79740  0.26733  1.0000
  C   C71       1.0  0.55111  0.81130  0.26760  1.0000
  H   H42       1.0  0.54842  0.81769  0.20762  1.0000
  N   N21       1.0  0.57082  0.79182  0.18517  1.0000
  N   N22       1.0  0.49476  0.80035  0.25875  1.0000
  H   H43       1.0  0.47907  0.79527  0.22976  1.0000
  H   H44       1.0  0.50036  0.78853  0.25874  1.0000
  O   O21       1.0  0.55299  0.77949  0.13348  1.0000
  O   O22       1.0  0.58614  0.81093  0.14478  1.0000
  C   C72       1.0  0.18498  0.70273  0.34680  1.0000
  C   C73       1.0  0.19279  0.68779  0.30204  1.0000
  C   C74       1.0  0.17752  0.66193  0.30457  1.0000
  H   H45       1.0  0.18318  0.65138  0.27125  1.0000
  C   C75       1.0  0.19888  0.72898  0.34768  1.0000
  C   C76       1.0  0.22736  0.78140  0.34979  1.0000
  C   C77       1.0  0.21811  0.76860  0.26715  1.0000
  C   C78       1.0  0.20381  0.74267  0.26731  1.0000
  H   H46       1.0  0.19733  0.73366  0.20725  1.0000
  N   N23       1.0  0.22379  0.78190  0.18510  1.0000
  N   N24       1.0  0.21470  0.69730  0.25858  1.0000
  H   H47       1.0  0.21988  0.68677  0.22960  1.0000
  H   H48       1.0  0.22643  0.71473  0.25849  1.0000
  O   O23       1.0  0.23581  0.77611  0.13296  1.0000
  O   O24       1.0  0.20474  0.77846  0.14518  1.0000
  C   C79       1.0  0.51105  0.36194  0.33773  1.0000
  C   C80       1.0  0.48875  0.34685  0.29097  1.0000
  C   C81       1.0  0.47817  0.32105  0.29291  1.0000
  C   C82       1.0  0.47246  0.27005  0.25839  1.0000
  C   C83       1.0  0.46067  0.24411  0.25605  1.0000
  H   H49       1.0  0.47879  0.27970  0.19939  1.0000
  H   H50       1.0  0.46199  0.31057  0.25931  1.0000
  N   N25       1.0  0.45805  0.23297  0.17474  1.0000
  H   H51       1.0  0.46389  0.24242  0.11918  1.0000
  H   H52       1.0  0.44979  0.21526  0.16883  1.0000
  N   N26       1.0  0.47751  0.35757  0.23998  1.0000
  O   O25       1.0  0.45629  0.35101  0.26808  1.0000
  O   O26       1.0  0.47647  0.35247  0.15752  1.0000
  C   C84       1.0  0.86330  0.50443  0.33775  1.0000
  C   C85       1.0  0.87051  0.52673  0.29099  1.0000
  C   C86       1.0  0.85530  0.53732  0.29297  1.0000
  C   C87       1.0  0.81004  0.54303  0.25842  1.0000
  C   C88       1.0  0.79593  0.55486  0.25605  1.0000
  H   H53       1.0  0.81329  0.53663  0.19947  1.0000
  H   H54       1.0  0.86101  0.55350  0.25937  1.0000
  N   N27       1.0  0.78736  0.55743  0.17476  1.0000
  H   H55       1.0  0.79094  0.55155  0.11922  1.0000
  H   H56       1.0  0.77796  0.56574  0.16881  1.0000
  N   N28       1.0  0.89247  0.53797  0.23999  1.0000
  O   O27       1.0  0.90713  0.55919  0.26809  1.0000
  O   O28       1.0  0.88841  0.53902  0.15753  1.0000
  C   C89       1.0  0.65358  0.15228  0.33675  1.0000
  C   C90       1.0  0.66875  0.14513  0.29015  1.0000
  C   C91       1.0  0.69453  0.16038  0.29251  1.0000
  C   C92       1.0  0.74539  0.20557  0.25842  1.0000
  C   C93       1.0  0.77133  0.21960  0.25605  1.0000
  H   H57       1.0  0.73575  0.20230  0.19941  1.0000
  H   H58       1.0  0.70507  0.15472  0.25908  1.0000
  N   N29       1.0  0.78248  0.22810  0.17474  1.0000
  H   H59       1.0  0.77304  0.22455  0.11919  1.0000
  H   H60       1.0  0.80019  0.23746  0.16881  1.0000
  N   N30       1.0  0.65817  0.12318  0.23907  1.0000
  O   O29       1.0  0.66471  0.10853  0.26747  1.0000
  O   O30       1.0  0.66334  0.12724  0.15666  1.0000
  C   C94       1.0  0.17168  0.47013  0.33520  1.0000
  C   C95       1.0  0.18653  0.49267  0.28947  1.0000
  C   C96       1.0  0.18012  0.51121  0.29160  1.0000
  C   C97       1.0  0.14955  0.53651  0.25691  1.0000
  C   C98       1.0  0.14431  0.55591  0.25501  1.0000
  H   H61       1.0  0.14895  0.52771  0.19797  1.0000
  H   H62       1.0  0.19120  0.52738  0.25879  1.0000
  N   N31       1.0  0.13882  0.56227  0.17410  1.0000
  H   H63       1.0  0.13871  0.55398  0.11850  1.0000
  H   H64       1.0  0.13556  0.57573  0.16843  1.0000
  N   N32       1.0  0.20725  0.49631  0.23938  1.0000
  O   O31       1.0  0.22669  0.51421  0.26863  1.0000
  O   O32       1.0  0.20510  0.49949  0.15688  1.0000
  C   C99       1.0  0.54545  0.70445  0.33489  1.0000
  C   C100      1.0  0.52290  0.69685  0.28935  1.0000
  C   C101      1.0  0.50431  0.67192  0.29160  1.0000
  C   C102      1.0  0.47894  0.61609  0.25683  1.0000
  C   C103      1.0  0.45953  0.59147  0.25490  1.0000
  H   H65       1.0  0.48772  0.62430  0.19788  1.0000
  H   H66       1.0  0.48813  0.66687  0.25893  1.0000
  N   N33       1.0  0.45313  0.57963  0.17398  1.0000
  H   H67       1.0  0.46143  0.58781  0.11837  1.0000
  H   H68       1.0  0.43967  0.56291  0.16832  1.0000
  N   N34       1.0  0.51928  0.71395  0.23938  1.0000
  O   O33       1.0  0.50143  0.71556  0.26888  1.0000
  O   O34       1.0  0.51603  0.70862  0.15690  1.0000
  C   C104      1.0  0.31173  0.84418  0.33555  1.0000
  C   C105      1.0  0.31962  0.82949  0.28981  1.0000
  C   C106      1.0  0.34467  0.83615  0.29159  1.0000
  C   C107      1.0  0.40074  0.86761  0.25626  1.0000
  C   C108      1.0  0.42555  0.87331  0.25393  1.0000
  H   H69       1.0  0.39242  0.86813  0.19753  1.0000
  H   H70       1.0  0.34988  0.82520  0.25852  1.0000
  N   N35       1.0  0.43732  0.87902  0.17287  1.0000
  H   H71       1.0  0.42902  0.87904  0.11749  1.0000
  H   H72       1.0  0.45416  0.88263  0.16690  1.0000
  N   N36       1.0  0.30261  0.80870  0.23993  1.0000
  O   O35       1.0  0.30127  0.78935  0.26920  1.0000
  O   O36       1.0  0.30786  0.81084  0.15736  1.0000
  C   C109      1.0  0.51134  0.15514  0.35130  1.0000
  C   C110      1.0  0.48875  0.14015  0.30572  1.0000
  C   C111      1.0  0.47030  0.14678  0.30840  1.0000
  H   H73       1.0  0.45424  0.13613  0.27431  1.0000
  C   C112      1.0  0.53115  0.15016  0.35187  1.0000
  C   C113      1.0  0.57003  0.13917  0.35299  1.0000
  C   C114      1.0  0.56327  0.14614  0.27151  1.0000
  C   C115      1.0  0.54407  0.15169  0.27215  1.0000
  H   H74       1.0  0.53920  0.15650  0.21290  1.0000
  N   N37       1.0  0.57535  0.14681  0.18999  1.0000
  N   N38       1.0  0.48391  0.11935  0.26087  1.0000
  H   H75       1.0  0.46822  0.10915  0.23124  1.0000
  H   H76       1.0  0.49542  0.11337  0.26000  1.0000
  O   O37       1.0  0.56071  0.13188  0.13307  1.0000
  O   O38       1.0  0.58583  0.16789  0.15595  1.0000
  C   C116      1.0  0.65657  0.50421  0.35121  1.0000
  C   C117      1.0  0.66406  0.52679  0.30573  1.0000
  C   C118      1.0  0.68911  0.54530  0.30845  1.0000
  H   H77       1.0  0.69446  0.56135  0.27437  1.0000
  C   C119      1.0  0.63188  0.48432  0.35182  1.0000
  C   C120      1.0  0.58235  0.44492  0.35358  1.0000
  C   C121      1.0  0.59593  0.45192  0.27177  1.0000
  C   C122      1.0  0.62056  0.47134  0.27212  1.0000
  H   H78       1.0  0.63016  0.47637  0.21272  1.0000
  N   N39       1.0  0.58444  0.43990  0.19023  1.0000
  N   N40       1.0  0.64802  0.53154  0.26095  1.0000
  H   H79       1.0  0.65345  0.54720  0.23122  1.0000
  H   H80       1.0  0.63055  0.51994  0.25989  1.0000
  O   O39       1.0  0.58375  0.45452  0.13422  1.0000
  O   O40       1.0  0.59522  0.42976  0.15492  1.0000
  C   C123      1.0  0.86002  0.35890  0.35125  1.0000
  C   C124      1.0  0.87510  0.35141  0.30575  1.0000
  C   C125      1.0  0.86855  0.32635  0.30846  1.0000
  H   H81       1.0  0.87925  0.32100  0.27439  1.0000
  C   C126      1.0  0.86482  0.38359  0.35185  1.0000
  C   C127      1.0  0.87496  0.43312  0.35364  1.0000
  C   C128      1.0  0.86842  0.41956  0.27179  1.0000
  C   C129      1.0  0.86321  0.39493  0.27213  1.0000
  H   H82       1.0  0.85866  0.38534  0.21272  1.0000
  N   N41       1.0  0.86792  0.43106  0.19022  1.0000
  N   N42       1.0  0.89589  0.36744  0.26098  1.0000
  H   H83       1.0  0.90615  0.36201  0.23142  1.0000
  H   H84       1.0  0.90180  0.38492  0.26014  1.0000
  O   O41       1.0  0.88326  0.43176  0.13430  1.0000
  O   O42       1.0  0.84702  0.42028  0.15480  1.0000
  C   C130      1.0  0.02206  0.55462  0.35031  1.0000
  C   C131      1.0  0.03665  0.57704  0.30343  1.0000
  C   C132      1.0  0.06247  0.58784  0.30630  1.0000
  H   H85       1.0  0.07297  0.60379  0.27142  1.0000
  C   C133      1.0  0.99600  0.54182  0.34906  1.0000
  C   C134      1.0  0.94401  0.51364  0.34892  1.0000
  C   C135      1.0  0.95728  0.51645  0.26808  1.0000
  C   C136      1.0  0.98315  0.53055  0.26919  1.0000
  H   H86       1.0  0.99268  0.53222  0.21110  1.0000
  N   N43       1.0  0.94453  0.50508  0.18744  1.0000
  N   N44       1.0  0.02682  0.58870  0.25703  1.0000
  H   H87       1.0  0.03715  0.60417  0.22621  1.0000
  H   H88       1.0  0.00928  0.58252  0.25553  1.0000
  O   O43       1.0  0.94856  0.52059  0.12681  1.0000
  O   O44       1.0  0.95029  0.48991  0.15836  1.0000
  C   C137      1.0  0.46089  0.47053  0.35038  1.0000
  C   C138      1.0  0.43848  0.46271  0.30347  1.0000
  C   C139      1.0  0.42769  0.47774  0.30628  1.0000
  H   H89       1.0  0.41174  0.47228  0.27138  1.0000
  C   C140      1.0  0.47369  0.45728  0.34915  1.0000
  C   C141      1.0  0.50184  0.43345  0.34897  1.0000
  C   C142      1.0  0.49902  0.44390  0.26812  1.0000
  C   C143      1.0  0.48493  0.45568  0.26926  1.0000
  H   H90       1.0  0.48325  0.46353  0.21114  1.0000
  N   N45       1.0  0.51037  0.44250  0.18745  1.0000
  N   N46       1.0  0.42681  0.44121  0.25709  1.0000
  H   H91       1.0  0.41132  0.43606  0.22640  1.0000
  H   H92       1.0  0.43296  0.42983  0.25580  1.0000
  O   O45       1.0  0.49484  0.43101  0.12687  1.0000
  O   O46       1.0  0.52554  0.46342  0.15831  1.0000
  C   C144      1.0  0.55128  0.99373  0.35422  1.0000
  C   C145      1.0  0.55924  0.97827  0.31557  1.0000
  C   C146      1.0  0.54289  0.95262  0.31570  1.0000
  H   H93       1.0  0.54846  0.94153  0.28609  1.0000
  C   C147      1.0  0.56495  0.01970  0.35058  1.0000
  C   C148      1.0  0.58411  0.07117  0.34996  1.0000
  C   C149      1.0  0.57447  0.05746  0.26933  1.0000
  C   C150      1.0  0.56507  0.03185  0.27065  1.0000
  H   H94       1.0  0.55726  0.02189  0.21327  1.0000
  N   N47       1.0  0.57379  0.06940  0.18918  1.0000
  N   N48       1.0  0.58198  0.98721  0.27935  1.0000
  H   H95       1.0  0.58729  0.97635  0.25437  1.0000
  H   H96       1.0  0.59395  0.00462  0.27999  1.0000
  O   O47       1.0  0.58592  0.06692  0.12692  1.0000
  O   O48       1.0  0.55217  0.06137  0.16246  1.0000
  C   C151      1.0  0.98746  0.98424  0.34657  1.0000
  N   N49       1.0  0.00943  0.98481  0.34666  1.0000
  C   C152      1.0  0.03130  0.00631  0.34658  1.0000
  N   N50       1.0  0.03071  0.02770  0.34665  1.0000
  C   C153      1.0  0.00921  0.02807  0.34656  1.0000
  N   N51       1.0  0.98782  0.00610  0.34664  1.0000
  C   C154      1.0  0.98747  0.21150  0.34309  1.0000
  N   N52       1.0  0.98787  0.19002  0.34401  1.0000
  C   C155      1.0  0.00930  0.18936  0.34612  1.0000
  N   N53       1.0  0.03062  0.21153  0.34684  1.0000
  C   C156      1.0  0.03089  0.23333  0.34597  1.0000
  N   N54       1.0  0.00915  0.23284  0.34420  1.0000
  C   C157      1.0  0.80404  0.77909  0.34316  1.0000
  N   N55       1.0  0.82553  0.80097  0.34408  1.0000
  C   C158      1.0  0.82619  0.82305  0.34620  1.0000
  N   N56       1.0  0.80403  0.82222  0.34689  1.0000
  C   C159      1.0  0.78224  0.80070  0.34601  1.0000
  N   N57       1.0  0.78271  0.77944  0.34423  1.0000
  C   C160      1.0  0.23645  0.02792  0.34316  1.0000
  N   N58       1.0  0.21456  0.02750  0.34403  1.0000
  C   C161      1.0  0.19247  0.00608  0.34609  1.0000
  N   N59       1.0  0.19333  0.98476  0.34680  1.0000
  C   C162      1.0  0.21486  0.98447  0.34593  1.0000
  N   N60       1.0  0.23611  0.00623  0.34422  1.0000
  C   C163      1.0  0.20875  0.44013  0.34776  1.0000
  N   N61       1.0  0.19110  0.41603  0.34756  1.0000
  C   C164      1.0  0.16673  0.40883  0.34375  1.0000
  N   N62       1.0  0.16079  0.42692  0.34021  1.0000
  C   C165      1.0  0.17791  0.45123  0.33912  1.0000
  N   N63       1.0  0.20177  0.45723  0.34346  1.0000
  C   C166      1.0  0.57550  0.77145  0.34753  1.0000
  N   N64       1.0  0.59959  0.77793  0.34747  1.0000
  C   C167      1.0  0.60677  0.76074  0.34369  1.0000
  N   N65       1.0  0.58870  0.73672  0.34003  1.0000
  C   C168      1.0  0.56439  0.72954  0.33881  1.0000
  N   N66       1.0  0.55840  0.74740  0.34321  1.0000
  C   C169      1.0  0.24453  0.80691  0.34746  1.0000
  N   N67       1.0  0.23806  0.82455  0.34750  1.0000
  C   C170      1.0  0.25519  0.84894  0.34392  1.0000
  N   N68       1.0  0.27923  0.85491  0.34046  1.0000
  C   C171      1.0  0.28651  0.83784  0.33927  1.0000
  N   N69       1.0  0.26864  0.81395  0.34329  1.0000
  C   C172      1.0  0.44373  0.20523  0.34124  1.0000
  N   N70       1.0  0.41959  0.18766  0.34138  1.0000
  C   C173      1.0  0.41227  0.16326  0.34546  1.0000
  N   N71       1.0  0.43027  0.15720  0.34921  1.0000
  C   C174      1.0  0.45463  0.17424  0.35027  1.0000
  N   N72       1.0  0.46074  0.19814  0.34574  1.0000
  C   C175      1.0  0.77410  0.57191  0.34111  1.0000
  N   N73       1.0  0.78066  0.59605  0.34140  1.0000
  C   C176      1.0  0.76357  0.60335  0.34552  1.0000
  N   N74       1.0  0.73952  0.58536  0.34923  1.0000
  C   C177      1.0  0.73223  0.56102  0.35022  1.0000
  N   N75       1.0  0.75001  0.55490  0.34560  1.0000
  C   C178      1.0  0.81018  0.24138  0.34120  1.0000
  N   N76       1.0  0.82774  0.23481  0.34143  1.0000
  C   C179      1.0  0.85214  0.25189  0.34552  1.0000
  N   N77       1.0  0.85820  0.27594  0.34923  1.0000
  C   C180      1.0  0.84116  0.28324  0.35026  1.0000
  N   N78       1.0  0.81726  0.26547  0.34568  1.0000
  C   C181      1.0  0.13557  0.58419  0.34102  1.0000
  N   N79       1.0  0.14994  0.60904  0.34313  1.0000
  C   C182      1.0  0.13996  0.62393  0.34801  1.0000
  N   N80       1.0  0.11505  0.61290  0.35034  1.0000
  C   C183      1.0  0.10017  0.58816  0.34962  1.0000
  N   N81       1.0  0.11094  0.57421  0.34453  1.0000
  C   C184      1.0  0.43132  0.55446  0.34101  1.0000
  N   N82       1.0  0.40648  0.54398  0.34310  1.0000
  C   C185      1.0  0.39161  0.51912  0.34797  1.0000
  N   N83       1.0  0.40264  0.50524  0.35029  1.0000
  C   C186      1.0  0.42738  0.51511  0.34958  1.0000
  N   N84       1.0  0.44133  0.53983  0.34450  1.0000
  C   C187      1.0  0.46274  0.88154  0.33883  1.0000
  N   N85       1.0  0.47239  0.86643  0.34224  1.0000
  C   C188      1.0  0.49712  0.87559  0.34757  1.0000
  N   N86       1.0  0.51173  0.90038  0.34922  1.0000
  C   C189      1.0  0.50290  0.91608  0.34727  1.0000
  N   N87       1.0  0.47821  0.90610  0.34182  1.0000
  C   C190      1.0  0.58697  0.13056  0.34959  1.0000
  N   N88       1.0  0.61171  0.14587  0.34458  1.0000
  C   C191      1.0  0.62752  0.13695  0.34088  1.0000
  N   N89       1.0  0.61770  0.11223  0.34370  1.0000
  C   C192      1.0  0.59325  0.09666  0.34815  1.0000
  N   N90       1.0  0.57797  0.10597  0.35092  1.0000
  C   C193      1.0  0.55680  0.42823  0.35022  1.0000
  N   N91       1.0  0.54686  0.40343  0.34540  1.0000
  C   C194      1.0  0.52204  0.38807  0.34157  1.0000
  N   N92       1.0  0.50756  0.39841  0.34372  1.0000
  C   C195      1.0  0.51708  0.42301  0.34807  1.0000
  N   N93       1.0  0.54169  0.43775  0.35108  1.0000
  C   C196      1.0  0.88383  0.45868  0.35021  1.0000
  N   N94       1.0  0.86898  0.46862  0.34542  1.0000
  C   C197      1.0  0.87843  0.49343  0.34157  1.0000
  N   N95       1.0  0.90326  0.50792  0.34370  1.0000
  C   C198      1.0  0.91833  0.49839  0.34805  1.0000
  N   N96       1.0  0.90846  0.47378  0.35107  1.0000
  C   C199      1.0  0.00933  0.16635  0.34691  1.0000
  C   C200      1.0  0.02763  0.16316  0.39090  1.0000
  C   C201      1.0  0.02655  0.14004  0.38941  1.0000
  C   C202      1.0  0.00627  0.08386  0.42645  1.0000
  C   C203      1.0  0.00641  0.06132  0.42923  1.0000
  H   H97       1.0  0.00421  0.09111  0.48547  1.0000
  H   H98       1.0  0.04005  0.13847  0.42188  1.0000
  N   N97       1.0  0.00407  0.05049  0.51101  1.0000
  H   H99       1.0  0.00234  0.05783  0.56634  1.0000
  H   H100      1.0  0.00419  0.03521  0.51733  1.0000
  N   N98       1.0  0.04651  0.18298  0.43930  1.0000
  O   O49       1.0  0.06731  0.18882  0.40856  1.0000
  O   O50       1.0  0.04588  0.17819  0.52193  1.0000
  C   C204      1.0  0.84919  0.84610  0.34699  1.0000
  C   C205      1.0  0.85237  0.86759  0.39094  1.0000
  C   C206      1.0  0.87548  0.88962  0.38941  1.0000
  C   C207      1.0  0.93167  0.92551  0.42647  1.0000
  C   C208      1.0  0.95421  0.94818  0.42925  1.0000
  H   H101      1.0  0.92443  0.91619  0.48548  1.0000
  H   H102      1.0  0.87704  0.90470  0.42187  1.0000
  N   N99       1.0  0.96505  0.95666  0.51101  1.0000
  H   H103      1.0  0.95772  0.94759  0.56635  1.0000
  H   H104      1.0  0.98033  0.97205  0.51734  1.0000
  N   N100      1.0  0.83254  0.86665  0.43930  1.0000
  O   O51       1.0  0.82669  0.88160  0.40851  1.0000
  O   O52       1.0  0.83732  0.87082  0.52193  1.0000
  C   C209      1.0  0.16943  0.00607  0.34687  1.0000
  C   C210      1.0  0.14793  0.98779  0.39087  1.0000
  C   C211      1.0  0.12591  0.98890  0.38940  1.0000
  C   C212      1.0  0.09001  0.00920  0.42646  1.0000
  C   C213      1.0  0.06735  0.00908  0.42925  1.0000
  H   H105      1.0  0.09932  0.01125  0.48549  1.0000
  H   H106      1.0  0.11083  0.97541  0.42189  1.0000
  N   N101      1.0  0.05885  0.01142  0.51102  1.0000
  H   H107      1.0  0.06791  0.01314  0.56636  1.0000
  H   H108      1.0  0.04346  0.01131  0.51735  1.0000
  N   N102      1.0  0.14885  0.96891  0.43930  1.0000
  O   O53       1.0  0.13388  0.94811  0.40858  1.0000
  O   O54       1.0  0.14470  0.96955  0.52192  1.0000
  C   C214      1.0  0.11172  0.33179  0.34713  1.0000
  C   C215      1.0  0.13453  0.34056  0.39260  1.0000
  C   C216      1.0  0.15213  0.36596  0.38946  1.0000
  H   H109      1.0  0.16837  0.37199  0.42298  1.0000
  C   C217      1.0  0.09255  0.30653  0.34728  1.0000
  C   C218      1.0  0.05273  0.25670  0.34630  1.0000
  C   C219      1.0  0.06048  0.27029  0.42813  1.0000
  C   C220      1.0  0.08025  0.29480  0.42763  1.0000
  H   H110      1.0  0.08534  0.30441  0.48700  1.0000
  N   N103      1.0  0.04804  0.25921  0.50952  1.0000
  N   N104      1.0  0.14042  0.32536  0.43745  1.0000
  H   H111      1.0  0.15622  0.33159  0.46712  1.0000
  H   H112      1.0  0.12958  0.30773  0.43851  1.0000
  O   O55       1.0  0.06224  0.25822  0.56671  1.0000
  O   O56       1.0  0.03826  0.27054  0.54330  1.0000
  C   C221      1.0  0.68380  0.78297  0.34701  1.0000
  C   C222      1.0  0.67500  0.79695  0.39264  1.0000
  C   C223      1.0  0.64958  0.78907  0.38960  1.0000
  H   H113      1.0  0.64351  0.79923  0.42322  1.0000
  C   C224      1.0  0.70907  0.78911  0.34718  1.0000
  C   C225      1.0  0.75889  0.79919  0.34628  1.0000
  C   C226      1.0  0.74530  0.79332  0.42810  1.0000
  C   C227      1.0  0.72078  0.78856  0.42757  1.0000
  H   H114      1.0  0.71117  0.78402  0.48693  1.0000
  N   N105      1.0  0.75637  0.79197  0.50954  1.0000
  N   N106      1.0  0.69016  0.81805  0.43751  1.0000
  H   H115      1.0  0.68389  0.82761  0.46709  1.0000
  H   H116      1.0  0.70780  0.82492  0.43829  1.0000
  O   O57       1.0  0.75733  0.80715  0.56671  1.0000
  O   O58       1.0  0.74505  0.77087  0.54330  1.0000
  C   C228      1.0  0.23274  0.90372  0.34713  1.0000
  C   C229      1.0  0.21881  0.88090  0.39267  1.0000
  C   C230      1.0  0.22674  0.86338  0.38964  1.0000
  H   H117      1.0  0.21659  0.84714  0.42322  1.0000
  C   C231      1.0  0.22653  0.92284  0.34727  1.0000
  C   C232      1.0  0.21641  0.96263  0.34626  1.0000
  C   C233      1.0  0.22226  0.95488  0.42808  1.0000
  C   C234      1.0  0.22703  0.93512  0.42761  1.0000
  H   H118      1.0  0.23157  0.93006  0.48699  1.0000
  N   N107      1.0  0.22360  0.96732  0.50945  1.0000
  N   N108      1.0  0.19768  0.87491  0.43750  1.0000
  H   H119      1.0  0.18817  0.85910  0.46720  1.0000
  H   H120      1.0  0.19081  0.88568  0.43847  1.0000
  O   O59       1.0  0.20841  0.95311  0.56663  1.0000
  O   O60       1.0  0.24470  0.97712  0.54326  1.0000
  C   C235      1.0  0.38671  0.14475  0.34591  1.0000
  C   C236      1.0  0.37757  0.12206  0.39231  1.0000
  C   C237      1.0  0.35216  0.10456  0.39009  1.0000
  C   C238      1.0  0.29586  0.08184  0.42236  1.0000
  C   C239      1.0  0.27119  0.06229  0.42443  1.0000
  H   H121      1.0  0.30404  0.09066  0.48128  1.0000
  H   H122      1.0  0.34613  0.08836  0.42390  1.0000
  N   N109      1.0  0.25947  0.05584  0.50553  1.0000
  H   H123      1.0  0.26755  0.06445  0.56081  1.0000
  H   H124      1.0  0.24262  0.04264  0.51123  1.0000
  N   N110      1.0  0.39372  0.11731  0.44345  1.0000
  O   O61       1.0  0.39409  0.09871  0.41511  1.0000
  O   O62       1.0  0.38821  0.11453  0.52582  1.0000
  C   C240      1.0  0.77057  0.62888  0.34599  1.0000
  C   C241      1.0  0.75699  0.63799  0.39229  1.0000
  C   C242      1.0  0.76486  0.66339  0.39001  1.0000
  C   C243      1.0  0.79846  0.71967  0.42234  1.0000
  C   C244      1.0  0.80359  0.74434  0.42439  1.0000
  H   H125      1.0  0.79908  0.71148  0.48126  1.0000
  H   H126      1.0  0.75467  0.66941  0.42377  1.0000
  N   N111      1.0  0.80886  0.75606  0.50552  1.0000
  H   H127      1.0  0.80937  0.74797  0.56080  1.0000
  H   H128      1.0  0.81252  0.77291  0.51122  1.0000
  N   N112      1.0  0.73607  0.62182  0.44335  1.0000
  O   O63       1.0  0.71710  0.62143  0.41486  1.0000
  O   O64       1.0  0.73876  0.62733  0.52571  1.0000
  C   C245      1.0  0.87067  0.24489  0.34597  1.0000
  C   C246      1.0  0.89335  0.25847  0.39231  1.0000
  C   C247      1.0  0.91088  0.25060  0.39004  1.0000
  C   C248      1.0  0.93361  0.21704  0.42234  1.0000
  C   C249      1.0  0.95315  0.21192  0.42439  1.0000
  H   H129      1.0  0.92478  0.21641  0.48126  1.0000
  H   H130      1.0  0.92709  0.26079  0.42381  1.0000
  N   N113      1.0  0.95961  0.20666  0.50551  1.0000
  H   H131      1.0  0.95101  0.20615  0.56080  1.0000
  H   H132      1.0  0.97281  0.20301  0.51120  1.0000
  N   N114      1.0  0.89809  0.27938  0.44341  1.0000
  O   O65       1.0  0.91667  0.29836  0.41495  1.0000
  O   O66       1.0  0.90090  0.27669  0.52577  1.0000
  C   C250      1.0  0.36542  0.50766  0.35000  1.0000
  C   C251      1.0  0.35036  0.48516  0.39575  1.0000
  C   C252      1.0  0.32455  0.47445  0.39348  1.0000
  C   C253      1.0  0.27363  0.46881  0.42946  1.0000
  C   C254      1.0  0.24770  0.45704  0.43223  1.0000
  H   H133      1.0  0.28336  0.47518  0.48828  1.0000
  H   H134      1.0  0.31410  0.45817  0.42656  1.0000
  N   N115      1.0  0.23666  0.45449  0.51373  1.0000
  H   H135      1.0  0.24618  0.46034  0.56914  1.0000
  H   H136      1.0  0.21896  0.44622  0.51994  1.0000
  N   N116      1.0  0.36106  0.47384  0.44630  1.0000
  O   O67       1.0  0.35470  0.45276  0.41714  1.0000
  O   O68       1.0  0.35579  0.47247  0.52870  1.0000
  C   C255      1.0  0.50801  0.86038  0.35098  1.0000
  C   C256      1.0  0.53039  0.86756  0.39725  1.0000
  C   C257      1.0  0.54089  0.85230  0.39483  1.0000
  C   C258      1.0  0.54648  0.80716  0.42983  1.0000
  C   C259      1.0  0.55850  0.79326  0.43243  1.0000
  H   H137      1.0  0.54010  0.81046  0.48877  1.0000
  H   H138      1.0  0.55714  0.85798  0.42798  1.0000
  N   N117      1.0  0.56123  0.78486  0.51385  1.0000
  H   H139      1.0  0.55532  0.78841  0.56934  1.0000
  H   H140      1.0  0.56968  0.77560  0.51992  1.0000
  N   N118      1.0  0.54189  0.88953  0.44821  1.0000
  O   O69       1.0  0.56302  0.90415  0.41914  1.0000
  O   O70       1.0  0.54320  0.88551  0.53054  1.0000
  C   C260      1.0  0.15470  0.65014  0.35002  1.0000
  C   C261      1.0  0.14729  0.66523  0.39573  1.0000
  C   C262      1.0  0.16241  0.69105  0.39348  1.0000
  C   C263      1.0  0.20785  0.74201  0.42937  1.0000
  C   C264      1.0  0.22222  0.76794  0.43204  1.0000
  H   H141      1.0  0.20443  0.73229  0.48824  1.0000
  H   H142      1.0  0.15659  0.70151  0.42658  1.0000
  N   N119      1.0  0.23071  0.77897  0.51353  1.0000
  H   H143      1.0  0.22691  0.76946  0.56901  1.0000
  H   H144      1.0  0.24027  0.79667  0.51969  1.0000
  N   N120      1.0  0.12525  0.65453  0.44623  1.0000
  O   O71       1.0  0.11054  0.66090  0.41705  1.0000
  O   O72       1.0  0.12914  0.65979  0.52865  1.0000
  C   C265      1.0  0.48899  0.30943  0.34036  1.0000
  C   C266      1.0  0.51162  0.32440  0.38586  1.0000
  C   C267      1.0  0.52211  0.35025  0.38357  1.0000
  H   H145      1.0  0.53817  0.36085  0.41769  1.0000
  C   C268      1.0  0.47660  0.28318  0.33990  1.0000
  C   C269      1.0  0.45222  0.23075  0.33843  1.0000
  C   C270      1.0  0.45597  0.24366  0.42096  1.0000
  C   C271      1.0  0.46779  0.26959  0.42045  1.0000
  H   H146      1.0  0.47040  0.27868  0.48038  1.0000
  N   N121      1.0  0.44835  0.23045  0.50321  1.0000
  N   N122      1.0  0.52397  0.31493  0.42999  1.0000
  H   H147      1.0  0.53962  0.32550  0.45928  1.0000
  H   H148      1.0  0.51838  0.29752  0.42969  1.0000
  O   O73       1.0  0.46619  0.23613  0.55504  1.0000
  O   O74       1.0  0.43290  0.23410  0.54334  1.0000
  C   C272      1.0  0.83286  0.52649  0.34042  1.0000
  C   C273      1.0  0.82520  0.50387  0.38591  1.0000
  C   C274      1.0  0.84055  0.49336  0.38359  1.0000
  H   H149      1.0  0.83508  0.47730  0.41772  1.0000
  C   C275      1.0  0.81901  0.53890  0.33995  1.0000
  C   C276      1.0  0.79110  0.56339  0.33842  1.0000
  C   C277      1.0  0.80023  0.55963  0.42095  1.0000
  C   C278      1.0  0.81430  0.54776  0.42048  1.0000
  H   H150      1.0  0.82076  0.54514  0.48042  1.0000
  N   N123      1.0  0.79465  0.56726  0.50318  1.0000
  N   N124      1.0  0.80338  0.49153  0.43006  1.0000
  H   H151      1.0  0.79831  0.47590  0.45956  1.0000
  H   H152      1.0  0.79160  0.49717  0.43002  1.0000
  O   O75       1.0  0.78245  0.54943  0.55500  1.0000
  O   O76       1.0  0.81374  0.58269  0.54335  1.0000
  C   C279      1.0  0.70604  0.18278  0.34024  1.0000
  C   C280      1.0  0.69099  0.19035  0.38564  1.0000
  C   C281      1.0  0.66514  0.17497  0.38291  1.0000
  H   H153      1.0  0.65447  0.18034  0.41702  1.0000
  C   C282      1.0  0.73227  0.19665  0.33995  1.0000
  C   C283      1.0  0.78466  0.22440  0.33844  1.0000
  C   C284      1.0  0.77176  0.21534  0.42101  1.0000
  C   C285      1.0  0.74582  0.20133  0.42052  1.0000
  H   H154      1.0  0.73672  0.19488  0.48043  1.0000
  N   N125      1.0  0.78497  0.22090  0.50327  1.0000
  N   N126      1.0  0.70039  0.21211  0.43016  1.0000
  H   H155      1.0  0.68977  0.21714  0.45943  1.0000
  H   H156      1.0  0.71780  0.22392  0.43027  1.0000
  O   O77       1.0  0.77935  0.23313  0.55503  1.0000
  O   O78       1.0  0.78125  0.20179  0.54348  1.0000
  C   C286      1.0  0.15925  0.50819  0.33828  1.0000
  C   C287      1.0  0.14393  0.48547  0.38260  1.0000
  C   C288      1.0  0.15045  0.46695  0.37999  1.0000
  H   H157      1.0  0.13958  0.45081  0.41327  1.0000
  C   C289      1.0  0.15460  0.52820  0.33818  1.0000
  C   C290      1.0  0.14476  0.56779  0.33750  1.0000
  C   C291      1.0  0.15014  0.55986  0.41973  1.0000
  C   C292      1.0  0.15530  0.54041  0.41883  1.0000
  H   H158      1.0  0.15905  0.53475  0.47850  1.0000
  N   N127      1.0  0.14957  0.57101  0.50208  1.0000
  N   N128      1.0  0.12292  0.48058  0.42601  1.0000
  H   H159      1.0  0.11252  0.46480  0.45480  1.0000
  H   H160      1.0  0.11697  0.49211  0.42644  1.0000
  O   O79       1.0  0.13348  0.55583  0.55461  1.0000
  O   O80       1.0  0.16997  0.58069  0.54129  1.0000
  C   C293      1.0  0.50730  0.65405  0.33825  1.0000
  C   C294      1.0  0.53001  0.66137  0.38247  1.0000
  C   C295      1.0  0.54859  0.68638  0.37975  1.0000
  H   H161      1.0  0.56473  0.69162  0.41293  1.0000
  C   C296      1.0  0.48726  0.62943  0.33813  1.0000
  C   C297      1.0  0.44767  0.58004  0.33740  1.0000
  C   C298      1.0  0.45563  0.59332  0.41970  1.0000
  C   C299      1.0  0.47507  0.61792  0.41881  1.0000
  H   H162      1.0  0.48075  0.62732  0.47850  1.0000
  N   N129      1.0  0.44449  0.58159  0.50208  1.0000
  N   N130      1.0  0.53485  0.64522  0.42589  1.0000
  H   H163      1.0  0.55064  0.65054  0.45443  1.0000
  H   H164      1.0  0.52330  0.62774  0.42619  1.0000
  O   O81       1.0  0.45969  0.58066  0.55450  1.0000
  O   O82       1.0  0.43484  0.59232  0.54141  1.0000
  C   C300      1.0  0.36248  0.85709  0.33819  1.0000
  C   C301      1.0  0.35484  0.87218  0.38287  1.0000
  C   C302      1.0  0.32972  0.86545  0.38041  1.0000
  H   H165      1.0  0.32434  0.87622  0.41381  1.0000
  C   C303      1.0  0.38731  0.86211  0.33755  1.0000
  C   C304      1.0  0.43718  0.87294  0.33601  1.0000
  C   C305      1.0  0.42381  0.86710  0.41825  1.0000
  C   C306      1.0  0.39906  0.86153  0.41779  1.0000
  H   H166      1.0  0.38965  0.85746  0.47755  1.0000
  N   N131      1.0  0.43559  0.86748  0.50023  1.0000
  N   N132      1.0  0.37081  0.89321  0.42649  1.0000
  H   H167      1.0  0.36530  0.90346  0.45558  1.0000
  H   H168      1.0  0.38833  0.89931  0.42694  1.0000
  O   O83       1.0  0.43609  0.88309  0.55431  1.0000
  O   O84       1.0  0.42520  0.84685  0.53779  1.0000
  C   C307      1.0  0.47345  0.16787  0.35424  1.0000
  C   C308      1.0  0.49590  0.18245  0.40087  1.0000
  C   C309      1.0  0.51433  0.17587  0.39899  1.0000
  C   C310      1.0  0.53842  0.14371  0.43257  1.0000
  C   C311      1.0  0.55748  0.13796  0.43468  1.0000
  H   H169      1.0  0.52918  0.14259  0.49093  1.0000
  H   H170      1.0  0.53041  0.18671  0.43270  1.0000
  N   N133      1.0  0.56305  0.13150  0.51523  1.0000
  H   H171      1.0  0.55437  0.13096  0.57035  1.0000
  H   H172      1.0  0.57630  0.12793  0.52127  1.0000
  N   N134      1.0  0.49950  0.20306  0.45161  1.0000
  O   O85       1.0  0.51753  0.22254  0.42329  1.0000
  O   O86       1.0  0.50243  0.20066  0.53412  1.0000
  C   C312      1.0  0.70707  0.54219  0.35426  1.0000
  C   C313      1.0  0.69931  0.51977  0.40093  1.0000
  C   C314      1.0  0.67433  0.50127  0.39892  1.0000
  C   C315      1.0  0.61828  0.47690  0.43277  1.0000
  C   C316      1.0  0.59360  0.45760  0.43517  1.0000
  H   H173      1.0  0.62636  0.48623  0.49102  1.0000
  H   H174      1.0  0.66915  0.48520  0.43259  1.0000
  N   N135      1.0  0.58159  0.45199  0.51578  1.0000
  H   H175      1.0  0.58968  0.46078  0.57078  1.0000
  H   H176      1.0  0.56488  0.43855  0.52203  1.0000
  N   N136      1.0  0.71632  0.51622  0.45178  1.0000
  O   O87       1.0  0.71783  0.49821  0.42350  1.0000
  O   O88       1.0  0.71095  0.51326  0.53424  1.0000
  C   C317      1.0  0.84748  0.30840  0.35430  1.0000
  C   C318      1.0  0.83283  0.31617  0.40095  1.0000
  C   C319      1.0  0.83932  0.34114  0.39895  1.0000
  C   C320      1.0  0.87098  0.39718  0.43282  1.0000
  C   C321      1.0  0.87635  0.42186  0.43523  1.0000
  H   H177      1.0  0.87218  0.38908  0.49110  1.0000
  H   H178      1.0  0.82842  0.34632  0.43260  1.0000
  N   N137      1.0  0.88271  0.43386  0.51587  1.0000
  H   H179      1.0  0.88342  0.42577  0.57087  1.0000
  H   H180      1.0  0.88602  0.45058  0.52209  1.0000
  N   N138      1.0  0.81226  0.29915  0.45180  1.0000
  O   O89       1.0  0.79275  0.29766  0.42353  1.0000
  O   O90       1.0  0.81467  0.30452  0.53427  1.0000
  C   C322      1.0  0.07420  0.57698  0.35311  1.0000
  C   C323      1.0  0.05947  0.55478  0.40076  1.0000
  C   C324      1.0  0.03370  0.54400  0.39881  1.0000
  C   C325      1.0  0.98256  0.53877  0.42885  1.0000
  C   C326      1.0  0.95665  0.52487  0.43045  1.0000
  H   H181      1.0  0.99189  0.54672  0.48724  1.0000
  H   H182      1.0  0.02331  0.52786  0.43280  1.0000
  N   N139      1.0  0.94498  0.52246  0.51041  1.0000
  H   H183      1.0  0.95407  0.53019  0.56532  1.0000
  H   H184      1.0  0.92726  0.51297  0.51576  1.0000
  N   N140      1.0  0.07050  0.54392  0.45217  1.0000
  O   O91       1.0  0.06422  0.52272  0.42466  1.0000
  O   O92       1.0  0.06541  0.54294  0.53462  1.0000
  C   C327      1.0  0.43856  0.50033  0.35309  1.0000
  C   C328      1.0  0.46073  0.50778  0.40083  1.0000
  C   C329      1.0  0.47151  0.49279  0.39890  1.0000
  C   C330      1.0  0.47675  0.44690  0.42895  1.0000
  C   C331      1.0  0.49064  0.43488  0.43054  1.0000
  H   H185      1.0  0.46881  0.44829  0.48735  1.0000
  H   H186      1.0  0.48765  0.49854  0.43292  1.0000
  N   N141      1.0  0.49306  0.42563  0.51049  1.0000
  H   H187      1.0  0.48535  0.42701  0.56543  1.0000
  H   H188      1.0  0.50253  0.41739  0.51583  1.0000
  N   N142      1.0  0.47159  0.52968  0.45224  1.0000
  O   O93       1.0  0.49279  0.54460  0.42477  1.0000
  O   O94       1.0  0.47255  0.52556  0.53469  1.0000
  C   C332      1.0  0.51894  0.94193  0.35235  1.0000
  C   C333      1.0  0.51167  0.95759  0.39406  1.0000
  C   C334      1.0  0.52781  0.98316  0.39378  1.0000
  C   C335      1.0  0.57463  0.03356  0.43004  1.0000
  C   C336      1.0  0.58443  0.05925  0.43128  1.0000
  H   H189      1.0  0.57382  0.02460  0.48884  1.0000
  H   H190      1.0  0.52204  0.99422  0.42242  1.0000
  N   N143      1.0  0.59299  0.07131  0.51107  1.0000
  H   H191      1.0  0.59270  0.06266  0.56594  1.0000
  H   H192      1.0  0.59942  0.08883  0.51651  1.0000
  N   N144      1.0  0.48881  0.94774  0.43879  1.0000
  O   O95       1.0  0.47563  0.95550  0.40547  1.0000
  O   O96       1.0  0.49153  0.95253  0.52176  1.0000
