data_image0
_chemical_formula_structural       CH3CH3CNCNCNCHCHCHCNCNCNCHCHCHC3NC3NC5NC5NC20H18NHNHNHNHC3NC3NC5NC5NC20H18NHNHNHNHC3NC3NC5NC5NC20H18NHNHNHNHC3NC3NC5NC5NC20H18NHNHNHNHNCNCNCHCHCHNCNCNCHCHCH7C8H8C8H8C8H8C8H8CH3CH3CNCNCNCHCHCHCNCNCNCHCHCHC3NC3NC5NC5NC20H18NHNHNHNHC3NC3NC5NC5NC20H18NHNHNHNHC3NC3NC5NC5NC20H18NHNHNHNHC3NC3NC5NC5NC20H18NHNHNHNHNCNCNCHCHCHNCNCNCHCHCH7C8H8C8H8C8H8C8H8
_chemical_formula_sum              "C400 H288 N88"
_cell_length_a       66.4216
_cell_length_b       48.7946
_cell_length_c       15.0115
_cell_angle_alpha    90
_cell_angle_beta     89.9538
_cell_angle_gamma    89.9449

_space_group_name_H-M_alt    "P 1"
_space_group_IT_number       1

loop_
  _space_group_symop_operation_xyz
  'x, y, z'

loop_
  _atom_site_type_symbol
  _atom_site_label
  _atom_site_symmetry_multiplicity
  _atom_site_fract_x
  _atom_site_fract_y
  _atom_site_fract_z
  _atom_site_occupancy
  C   C1        1.0  0.20341  0.00523  0.30299  1.0000
  H   H1        1.0  0.14295  0.02816  0.41019  1.0000
  H   H2        1.0  0.17592  0.43612  0.23489  1.0000
  H   H3        1.0  0.22533  0.02575  0.22645  1.0000
  C   C2        1.0  0.82613  0.49414  0.30293  1.0000
  H   H4        1.0  0.88652  0.47120  0.41039  1.0000
  H   H5        1.0  0.85366  0.06325  0.23497  1.0000
  H   H6        1.0  0.80424  0.47365  0.22626  1.0000
  C   C3        1.0  0.70347  0.25572  0.30268  1.0000
  N   N1        1.0  0.68976  0.27457  0.32989  1.0000
  C   C4        1.0  0.67057  0.26718  0.35009  1.0000
  N   N2        1.0  0.66508  0.24037  0.34305  1.0000
  C   C5        1.0  0.67851  0.22116  0.31493  1.0000
  N   N3        1.0  0.69756  0.22920  0.29577  1.0000
  C   C6        1.0  0.65653  0.28826  0.38289  1.0000
  H   H7        1.0  0.64298  0.27851  0.40965  1.0000
  C   C7        1.0  0.67390  0.19174  0.30447  1.0000
  H   H8        1.0  0.67604  0.18659  0.23413  1.0000
  C   C8        1.0  0.72460  0.26379  0.28683  1.0000
  H   H9        1.0  0.72543  0.27628  0.22646  1.0000
  C   C9        1.0  0.32608  0.24371  0.30265  1.0000
  N   N4        1.0  0.33978  0.22485  0.32981  1.0000
  C   C10       1.0  0.35897  0.23223  0.34995  1.0000
  N   N5        1.0  0.36447  0.25905  0.34291  1.0000
  C   C11       1.0  0.35104  0.27826  0.31485  1.0000
  N   N6        1.0  0.33200  0.27023  0.29573  1.0000
  C   C12       1.0  0.37300  0.21115  0.38269  1.0000
  H   H10       1.0  0.38656  0.22089  0.40938  1.0000
  C   C13       1.0  0.35566  0.30767  0.30438  1.0000
  H   H11       1.0  0.35354  0.31283  0.23405  1.0000
  C   C14       1.0  0.30495  0.23563  0.28687  1.0000
  H   H12       1.0  0.30414  0.22312  0.22655  1.0000
  C   C15       1.0  0.41454  0.43688  0.34159  1.0000
  C   C16       1.0  0.42834  0.45794  0.33577  1.0000
  C   C17       1.0  0.41779  0.48231  0.32102  1.0000
  N   N7        1.0  0.39808  0.47537  0.32023  1.0000
  C   C18       1.0  0.39533  0.44803  0.33042  1.0000
  C   C19       1.0  0.37720  0.43271  0.32558  1.0000
  C   C20       1.0  0.35779  0.44457  0.31671  1.0000
  N   N8        1.0  0.35286  0.47143  0.32140  1.0000
  C   C21       1.0  0.33289  0.47544  0.31056  1.0000
  C   C22       1.0  0.32449  0.44946  0.29818  1.0000
  C   C23       1.0  0.33981  0.43040  0.30325  1.0000
  C   C24       1.0  0.32226  0.50068  0.31478  1.0000
  C   C25       1.0  0.33140  0.02682  0.32504  1.0000
  N   N9        1.0  0.35102  0.03390  0.31672  1.0000
  C   C26       1.0  0.35401  0.06121  0.32794  1.0000
  C   C27       1.0  0.33506  0.07220  0.34687  1.0000
  C   C28       1.0  0.32117  0.05117  0.34407  1.0000
  C   C29       1.0  0.37207  0.07661  0.31931  1.0000
  C   C30       1.0  0.39126  0.06442  0.30609  1.0000
  N   N10       1.0  0.39621  0.03772  0.31531  1.0000
  C   C31       1.0  0.41599  0.03345  0.29970  1.0000
  C   C32       1.0  0.42424  0.05899  0.27902  1.0000
  C   C33       1.0  0.40898  0.07811  0.28312  1.0000
  C   C34       1.0  0.42665  0.50835  0.30560  1.0000
  C   C35       1.0  0.44776  0.00926  0.29172  1.0000
  C   C36       1.0  0.45574  0.00187  0.20786  1.0000
  C   C37       1.0  0.47657  0.00316  0.19273  1.0000
  C   C38       1.0  0.48965  0.01206  0.26094  1.0000
  C   C39       1.0  0.37125  0.10589  0.32367  1.0000
  C   C40       1.0  0.36232  0.12128  0.25428  1.0000
  C   C41       1.0  0.36392  0.15005  0.25269  1.0000
  C   C42       1.0  0.37495  0.16400  0.31889  1.0000
  C   C43       1.0  0.30090  0.49964  0.30810  1.0000
  C   C44       1.0  0.25871  0.49397  0.28857  1.0000
  C   C45       1.0  0.27031  0.50551  0.21928  1.0000
  C   C46       1.0  0.29129  0.50812  0.22871  1.0000
  C   C47       1.0  0.37855  0.40358  0.32748  1.0000
  C   C48       1.0  0.37996  0.38855  0.24727  1.0000
  C   C49       1.0  0.37987  0.35972  0.24879  1.0000
  C   C50       1.0  0.37849  0.34537  0.33044  1.0000
  H   H13       1.0  0.38018  0.34918  0.18992  1.0000
  H   H14       1.0  0.38038  0.39846  0.18720  1.0000
  H   H15       1.0  0.41823  0.41668  0.34925  1.0000
  H   H16       1.0  0.44360  0.45541  0.33875  1.0000
  H   H17       1.0  0.38756  0.48798  0.30411  1.0000
  H   H18       1.0  0.36126  0.02133  0.29667  1.0000
  H   H19       1.0  0.33794  0.40971  0.29672  1.0000
  H   H20       1.0  0.30968  0.44474  0.28830  1.0000
  H   H21       1.0  0.29953  0.51567  0.17656  1.0000
  H   H22       1.0  0.26363  0.51108  0.16066  1.0000
  H   H23       1.0  0.30607  0.05356  0.35484  1.0000
  H   H24       1.0  0.33157  0.09227  0.35882  1.0000
  H   H25       1.0  0.43887  0.06333  0.26335  1.0000
  H   H26       1.0  0.41072  0.09852  0.26992  1.0000
  H   H27       1.0  0.35528  0.11156  0.20253  1.0000
  H   H28       1.0  0.35802  0.16067  0.20006  1.0000
  H   H29       1.0  0.48218  0.99767  0.13181  1.0000
  H   H30       1.0  0.44647  0.99554  0.15743  1.0000
  N   N11       1.0  0.37841  0.19242  0.30812  1.0000
  H   H31       1.0  0.39320  0.19527  0.29020  1.0000
  N   N12       1.0  0.51060  0.01302  0.24842  1.0000
  H   H32       1.0  0.51387  0.02365  0.19101  1.0000
  N   N13       1.0  0.37599  0.31651  0.33427  1.0000
  H   H33       1.0  0.38698  0.30722  0.29674  1.0000
  N   N14       1.0  0.23792  0.48900  0.27961  1.0000
  H   H34       1.0  0.23526  0.47845  0.22153  1.0000
  C   C51       1.0  0.61496  0.06257  0.34045  1.0000
  C   C52       1.0  0.60116  0.04152  0.33450  1.0000
  C   C53       1.0  0.61172  0.01712  0.32023  1.0000
  N   N15       1.0  0.63143  0.02407  0.31954  1.0000
  C   C54       1.0  0.63419  0.05141  0.32977  1.0000
  C   C55       1.0  0.65234  0.06671  0.32542  1.0000
  C   C56       1.0  0.67175  0.05485  0.31682  1.0000
  N   N16       1.0  0.67668  0.02799  0.32130  1.0000
  C   C57       1.0  0.69665  0.02398  0.31070  1.0000
  C   C58       1.0  0.70506  0.04996  0.29855  1.0000
  C   C59       1.0  0.68975  0.06903  0.30361  1.0000
  C   C60       1.0  0.70728  0.99873  0.31473  1.0000
  C   C61       1.0  0.69813  0.47258  0.32490  1.0000
  N   N17       1.0  0.67851  0.46551  0.31668  1.0000
  C   C62       1.0  0.67552  0.43820  0.32796  1.0000
  C   C63       1.0  0.69447  0.42720  0.34665  1.0000
  C   C64       1.0  0.70836  0.44823  0.34380  1.0000
  C   C65       1.0  0.65745  0.42280  0.31932  1.0000
  C   C66       1.0  0.63827  0.43498  0.30609  1.0000
  N   N18       1.0  0.63331  0.46169  0.31519  1.0000
  C   C67       1.0  0.61354  0.46594  0.29972  1.0000
  C   C68       1.0  0.60529  0.44039  0.27929  1.0000
  C   C69       1.0  0.62054  0.42127  0.28348  1.0000
  C   C70       1.0  0.60286  0.99105  0.30541  1.0000
  C   C71       1.0  0.58176  0.49012  0.29156  1.0000
  C   C72       1.0  0.57380  0.49747  0.20767  1.0000
  C   C73       1.0  0.55297  0.49618  0.19260  1.0000
  C   C74       1.0  0.53988  0.48731  0.26089  1.0000
  C   C75       1.0  0.65828  0.39352  0.32373  1.0000
  C   C76       1.0  0.66721  0.37812  0.25429  1.0000
  C   C77       1.0  0.66557  0.34935  0.25269  1.0000
  C   C78       1.0  0.65459  0.33541  0.31909  1.0000
  C   C79       1.0  0.72864  0.99976  0.30803  1.0000
  C   C80       1.0  0.77084  0.00541  0.28851  1.0000
  C   C81       1.0  0.75925  0.99393  0.21915  1.0000
  C   C82       1.0  0.73828  0.99132  0.22860  1.0000
  C   C83       1.0  0.65098  0.09584  0.32740  1.0000
  C   C84       1.0  0.64962  0.11089  0.24722  1.0000
  C   C85       1.0  0.64969  0.13972  0.24880  1.0000
  C   C86       1.0  0.65106  0.15405  0.33049  1.0000
  H   H35       1.0  0.64944  0.15027  0.18995  1.0000
  H   H36       1.0  0.64923  0.10099  0.18713  1.0000
  H   H37       1.0  0.61127  0.08277  0.34821  1.0000
  H   H38       1.0  0.58590  0.04405  0.33771  1.0000
  H   H39       1.0  0.64201  0.01140  0.30470  1.0000
  H   H40       1.0  0.66828  0.47808  0.29674  1.0000
  H   H41       1.0  0.69163  0.08972  0.29738  1.0000
  H   H42       1.0  0.71989  0.05469  0.28896  1.0000
  H   H43       1.0  0.73005  0.98381  0.17640  1.0000
  H   H44       1.0  0.76595  0.98838  0.16051  1.0000
  H   H45       1.0  0.72346  0.44583  0.35447  1.0000
  H   H46       1.0  0.69795  0.40713  0.35853  1.0000
  H   H47       1.0  0.59066  0.43603  0.26370  1.0000
  H   H48       1.0  0.61881  0.40086  0.27025  1.0000
  H   H49       1.0  0.67421  0.38783  0.20238  1.0000
  H   H50       1.0  0.67148  0.33872  0.20002  1.0000
  H   H51       1.0  0.54738  0.50164  0.13168  1.0000
  H   H52       1.0  0.58308  0.50378  0.15719  1.0000
  N   N19       1.0  0.65112  0.30698  0.30836  1.0000
  H   H53       1.0  0.63633  0.30414  0.29056  1.0000
  N   N20       1.0  0.51893  0.48635  0.24844  1.0000
  H   H54       1.0  0.51567  0.47569  0.19106  1.0000
  N   N21       1.0  0.65356  0.18291  0.33438  1.0000
  H   H55       1.0  0.64258  0.19221  0.29689  1.0000
  N   N22       1.0  0.79163  0.01039  0.27957  1.0000
  H   H56       1.0  0.79432  0.02096  0.22154  1.0000
  C   C87       1.0  0.91460  0.18724  0.34206  1.0000
  C   C88       1.0  0.92841  0.20828  0.33597  1.0000
  C   C89       1.0  0.91786  0.23267  0.32159  1.0000
  N   N23       1.0  0.89816  0.22573  0.32066  1.0000
  C   C90       1.0  0.89539  0.19840  0.33100  1.0000
  C   C91       1.0  0.87724  0.18310  0.32667  1.0000
  C   C92       1.0  0.85783  0.19497  0.31800  1.0000
  N   N24       1.0  0.85291  0.22183  0.32266  1.0000
  C   C93       1.0  0.83295  0.22586  0.31181  1.0000
  C   C94       1.0  0.82454  0.19989  0.29925  1.0000
  C   C95       1.0  0.83985  0.18081  0.30449  1.0000
  C   C96       1.0  0.82233  0.25111  0.31586  1.0000
  C   C97       1.0  0.83150  0.27722  0.32658  1.0000
  N   N25       1.0  0.85114  0.28425  0.31866  1.0000
  C   C98       1.0  0.85411  0.31157  0.32961  1.0000
  C   C99       1.0  0.83518  0.32256  0.34893  1.0000
  C   C100      1.0  0.82128  0.30155  0.34597  1.0000
  C   C101      1.0  0.87216  0.32698  0.32040  1.0000
  C   C102      1.0  0.89133  0.31479  0.30694  1.0000
  N   N26       1.0  0.89629  0.28809  0.31624  1.0000
  C   C103      1.0  0.91606  0.28382  0.30045  1.0000
  C   C104      1.0  0.92431  0.30935  0.27973  1.0000
  C   C105      1.0  0.90905  0.32848  0.28392  1.0000
  C   C106      1.0  0.92673  0.25872  0.30636  1.0000
  C   C107      1.0  0.94783  0.25963  0.29244  1.0000
  C   C108      1.0  0.95580  0.25224  0.20855  1.0000
  C   C109      1.0  0.97664  0.25346  0.19345  1.0000
  C   C110      1.0  0.98973  0.26228  0.26173  1.0000
  C   C111      1.0  0.87133  0.35626  0.32463  1.0000
  C   C112      1.0  0.86235  0.37162  0.25530  1.0000
  C   C113      1.0  0.86398  0.40039  0.25353  1.0000
  C   C114      1.0  0.87500  0.41437  0.31965  1.0000
  C   C115      1.0  0.80097  0.25011  0.30894  1.0000
  C   C116      1.0  0.75879  0.24450  0.28887  1.0000
  C   C117      1.0  0.77045  0.25606  0.21978  1.0000
  C   C118      1.0  0.79141  0.25866  0.22952  1.0000
  C   C119      1.0  0.87859  0.15397  0.32865  1.0000
  C   C120      1.0  0.88007  0.13892  0.24849  1.0000
  C   C121      1.0  0.88001  0.11009  0.25007  1.0000
  C   C122      1.0  0.87853  0.09577  0.33172  1.0000
  H   H57       1.0  0.88033  0.09955  0.19121  1.0000
  H   H58       1.0  0.88054  0.14883  0.18842  1.0000
  H   H59       1.0  0.91828  0.16704  0.35008  1.0000
  H   H60       1.0  0.94367  0.20576  0.33953  1.0000
  H   H61       1.0  0.88759  0.23838  0.30550  1.0000
  H   H62       1.0  0.86129  0.27179  0.29703  1.0000
  H   H63       1.0  0.83798  0.16013  0.29765  1.0000
  H   H64       1.0  0.80974  0.19519  0.28915  1.0000
  H   H65       1.0  0.79969  0.26625  0.17754  1.0000
  H   H66       1.0  0.76380  0.26171  0.16117  1.0000
  H   H67       1.0  0.80617  0.30396  0.35645  1.0000
  H   H68       1.0  0.83170  0.34265  0.36047  1.0000
  H   H69       1.0  0.93893  0.31369  0.26391  1.0000
  H   H70       1.0  0.91079  0.34887  0.27052  1.0000
  H   H71       1.0  0.85528  0.36188  0.20368  1.0000
  H   H72       1.0  0.85799  0.41100  0.20106  1.0000
  H   H73       1.0  0.98224  0.24797  0.13254  1.0000
  H   H74       1.0  0.94653  0.24595  0.15810  1.0000
  N   N27       1.0  0.87840  0.44281  0.30889  1.0000
  H   H75       1.0  0.89318  0.44572  0.29086  1.0000
  N   N28       1.0  0.01069  0.26313  0.24928  1.0000
  H   H76       1.0  0.01400  0.27379  0.19196  1.0000
  N   N29       1.0  0.87603  0.06691  0.33553  1.0000
  H   H77       1.0  0.88705  0.05761  0.29817  1.0000
  N   N30       1.0  0.73801  0.23952  0.27959  1.0000
  H   H78       1.0  0.73539  0.22900  0.22142  1.0000
  C   C123      1.0  0.11499  0.31206  0.34454  1.0000
  C   C124      1.0  0.10118  0.29103  0.33833  1.0000
  C   C125      1.0  0.11173  0.26668  0.32305  1.0000
  N   N31       1.0  0.13144  0.27358  0.32232  1.0000
  C   C126      1.0  0.13419  0.30093  0.33255  1.0000
  C   C127      1.0  0.15231  0.31626  0.32686  1.0000
  C   C128      1.0  0.17171  0.30439  0.31764  1.0000
  N   N32       1.0  0.17664  0.27754  0.32266  1.0000
  C   C129      1.0  0.19660  0.27351  0.31152  1.0000
  C   C130      1.0  0.20499  0.29947  0.29851  1.0000
  C   C131      1.0  0.18968  0.31854  0.30359  1.0000
  C   C132      1.0  0.20722  0.24827  0.31578  1.0000
  C   C133      1.0  0.19806  0.22215  0.32639  1.0000
  N   N33       1.0  0.17843  0.21510  0.31824  1.0000
  C   C134      1.0  0.17544  0.18779  0.32941  1.0000
  C   C135      1.0  0.19436  0.17681  0.34871  1.0000
  C   C136      1.0  0.20826  0.19782  0.34585  1.0000
  C   C137      1.0  0.15738  0.17240  0.32037  1.0000
  C   C138      1.0  0.13822  0.18461  0.30686  1.0000
  N   N34       1.0  0.13327  0.21131  0.31644  1.0000
  C   C139      1.0  0.11352  0.21561  0.30048  1.0000
  C   C140      1.0  0.10528  0.19011  0.27925  1.0000
  C   C141      1.0  0.12053  0.17097  0.28338  1.0000
  C   C142      1.0  0.10286  0.24071  0.30673  1.0000
  C   C143      1.0  0.08176  0.23984  0.29270  1.0000
  C   C144      1.0  0.07385  0.24735  0.20888  1.0000
  C   C145      1.0  0.05303  0.24617  0.19364  1.0000
  C   C146      1.0  0.03989  0.23725  0.26170  1.0000
  C   C147      1.0  0.15819  0.14312  0.32455  1.0000
  C   C148      1.0  0.16723  0.12776  0.25530  1.0000
  C   C149      1.0  0.16561  0.09898  0.25352  1.0000
  C   C150      1.0  0.15452  0.08501  0.31953  1.0000
  C   C151      1.0  0.22858  0.24928  0.30888  1.0000
  C   C152      1.0  0.27076  0.25492  0.28881  1.0000
  C   C153      1.0  0.25915  0.24329  0.21982  1.0000
  C   C154      1.0  0.23818  0.24067  0.22954  1.0000
  C   C155      1.0  0.15095  0.34539  0.32871  1.0000
  C   C156      1.0  0.14953  0.36041  0.24849  1.0000
  C   C157      1.0  0.14959  0.38924  0.24996  1.0000
  C   C158      1.0  0.15099  0.40360  0.33157  1.0000
  H   H79       1.0  0.14928  0.39976  0.19107  1.0000
  H   H80       1.0  0.14908  0.35048  0.18845  1.0000
  H   H81       1.0  0.11130  0.33229  0.35138  1.0000
  H   H82       1.0  0.08592  0.29360  0.34091  1.0000
  H   H83       1.0  0.14193  0.26110  0.30463  1.0000
  H   H84       1.0  0.16827  0.22763  0.29722  1.0000
  H   H85       1.0  0.19155  0.33922  0.29670  1.0000
  H   H86       1.0  0.21980  0.30417  0.28823  1.0000
  H   H87       1.0  0.22992  0.23308  0.17756  1.0000
  H   H88       1.0  0.26582  0.23765  0.16120  1.0000
  H   H89       1.0  0.22336  0.19543  0.35660  1.0000
  H   H90       1.0  0.19783  0.15673  0.36065  1.0000
  H   H91       1.0  0.09067  0.18580  0.26330  1.0000
  H   H92       1.0  0.11879  0.15058  0.26987  1.0000
  H   H93       1.0  0.17436  0.13749  0.20380  1.0000
  H   H94       1.0  0.17164  0.08837  0.20112  1.0000
  H   H95       1.0  0.04747  0.25174  0.13276  1.0000
  H   H96       1.0  0.08316  0.25371  0.15858  1.0000
  N   N35       1.0  0.15113  0.05656  0.30874  1.0000
  H   H97       1.0  0.13637  0.05365  0.29062  1.0000
  N   N36       1.0  0.01894  0.23642  0.24911  1.0000
  H   H98       1.0  0.01567  0.22584  0.19161  1.0000
  N   N37       1.0  0.15348  0.43246  0.33532  1.0000
  H   H99       1.0  0.14249  0.44175  0.29788  1.0000
  N   N38       1.0  0.29155  0.25990  0.27953  1.0000
  H   H100      1.0  0.29420  0.27040  0.22132  1.0000
  N   N39       1.0  0.18972  0.02411  0.33024  1.0000
  C   C159      1.0  0.17053  0.01675  0.35062  1.0000
  N   N40       1.0  0.16502  0.48994  0.34373  1.0000
  C   C160      1.0  0.17843  0.47070  0.31558  1.0000
  N   N41       1.0  0.19748  0.47872  0.29622  1.0000
  C   C161      1.0  0.15652  0.03787  0.38337  1.0000
  H   H101      1.0  0.16379  0.04865  0.43854  1.0000
  C   C162      1.0  0.17381  0.44129  0.30523  1.0000
  H   H102      1.0  0.18509  0.43003  0.34384  1.0000
  C   C163      1.0  0.22453  0.01329  0.28689  1.0000
  H   H103      1.0  0.22935  0.02586  0.34330  1.0000
  N   N42       1.0  0.83980  0.47526  0.33023  1.0000
  C   C164      1.0  0.85897  0.48262  0.35069  1.0000
  N   N43       1.0  0.86450  0.00943  0.34384  1.0000
  C   C165      1.0  0.85110  0.02867  0.31564  1.0000
  N   N44       1.0  0.83206  0.02065  0.29620  1.0000
  C   C166      1.0  0.87297  0.46150  0.38350  1.0000
  H   H104      1.0  0.86566  0.45072  0.43864  1.0000
  C   C167      1.0  0.85573  0.05808  0.30533  1.0000
  H   H105      1.0  0.84442  0.06933  0.34389  1.0000
  C   C168      1.0  0.80501  0.48609  0.28675  1.0000
  H   H106      1.0  0.80017  0.47349  0.34310  1.0000
  H   H107      1.0  0.66378  0.29903  0.43814  1.0000
  H   H108      1.0  0.68516  0.18048  0.34315  1.0000
  H   H109      1.0  0.72938  0.27635  0.34336  1.0000
  H   H110      1.0  0.36573  0.20038  0.43797  1.0000
  H   H111      1.0  0.34438  0.31894  0.34308  1.0000
  H   H112      1.0  0.30015  0.22310  0.34345  1.0000
  C   C169      1.0  0.48168  0.51971  0.34434  1.0000
  C   C170      1.0  0.46083  0.51822  0.35993  1.0000
  C   C171      1.0  0.38372  0.14874  0.38878  1.0000
  C   C172      1.0  0.38152  0.12009  0.39219  1.0000
  C   C173      1.0  0.28914  0.98883  0.37828  1.0000
  C   C174      1.0  0.26823  0.98575  0.36806  1.0000
  C   C175      1.0  0.37774  0.38928  0.40925  1.0000
  C   C176      1.0  0.37780  0.36043  0.41059  1.0000
  H   H113      1.0  0.37646  0.35042  0.47019  1.0000
  H   H114      1.0  0.37655  0.39975  0.46811  1.0000
  H   H115      1.0  0.29580  0.98235  0.43604  1.0000
  H   H116      1.0  0.26000  0.97717  0.41849  1.0000
  H   H117      1.0  0.38858  0.10949  0.44205  1.0000
  H   H118      1.0  0.39218  0.15839  0.43620  1.0000
  H   H119      1.0  0.45528  0.52376  0.42096  1.0000
  H   H120      1.0  0.49103  0.52607  0.39432  1.0000
  C   C177      1.0  0.54783  0.97969  0.34430  1.0000
  C   C178      1.0  0.56867  0.98118  0.35984  1.0000
  C   C179      1.0  0.64582  0.35067  0.38904  1.0000
  C   C180      1.0  0.64801  0.37932  0.39231  1.0000
  C   C181      1.0  0.74038  0.51050  0.37832  1.0000
  C   C182      1.0  0.76129  0.51360  0.36806  1.0000
  C   C183      1.0  0.65175  0.11012  0.40921  1.0000
  C   C184      1.0  0.65170  0.13898  0.41061  1.0000
  H   H121      1.0  0.65303  0.14897  0.47022  1.0000
  H   H122      1.0  0.65292  0.09964  0.46804  1.0000
  H   H123      1.0  0.73370  0.51699  0.43607  1.0000
  H   H124      1.0  0.76950  0.52214  0.41853  1.0000
  H   H125      1.0  0.64098  0.38994  0.44231  1.0000
  H   H126      1.0  0.63738  0.34103  0.43661  1.0000
  H   H127      1.0  0.57421  0.97568  0.42088  1.0000
  H   H128      1.0  0.53846  0.97335  0.39434  1.0000
  C   C185      1.0  0.98177  0.26995  0.34513  1.0000
  C   C186      1.0  0.96092  0.26853  0.36069  1.0000
  C   C187      1.0  0.88381  0.39914  0.38950  1.0000
  C   C188      1.0  0.88165  0.37049  0.39295  1.0000
  C   C189      1.0  0.78917  0.23928  0.37893  1.0000
  C   C190      1.0  0.76826  0.23620  0.36839  1.0000
  C   C191      1.0  0.87771  0.13968  0.41044  1.0000
  C   C192      1.0  0.87781  0.11083  0.41185  1.0000
  H   H129      1.0  0.87637  0.10084  0.47142  1.0000
  H   H130      1.0  0.87647  0.15017  0.46925  1.0000
  H   H131      1.0  0.79579  0.23270  0.43666  1.0000
  H   H132      1.0  0.76000  0.22759  0.41865  1.0000
  H   H133      1.0  0.88870  0.35991  0.44287  1.0000
  H   H134      1.0  0.89227  0.40882  0.43691  1.0000
  H   H135      1.0  0.95537  0.27404  0.42176  1.0000
  H   H136      1.0  0.99113  0.27623  0.39518  1.0000
  C   C193      1.0  0.04779  0.22947  0.34504  1.0000
  C   C194      1.0  0.06863  0.23086  0.36074  1.0000
  C   C195      1.0  0.14566  0.10023  0.38931  1.0000
  C   C196      1.0  0.14780  0.12889  0.39271  1.0000
  C   C197      1.0  0.24035  0.26018  0.37879  1.0000
  C   C198      1.0  0.26126  0.26326  0.36828  1.0000
  C   C199      1.0  0.15177  0.35971  0.41045  1.0000
  C   C200      1.0  0.15168  0.38856  0.41174  1.0000
  H   H137      1.0  0.15306  0.39857  0.47131  1.0000
  H   H138      1.0  0.15297  0.34924  0.46931  1.0000
  H   H139      1.0  0.23370  0.26676  0.43649  1.0000
  H   H140      1.0  0.26949  0.27191  0.41849  1.0000
  H   H141      1.0  0.14071  0.13946  0.44261  1.0000
  H   H142      1.0  0.13714  0.09056  0.43658  1.0000
  H   H143      1.0  0.07414  0.22524  0.42175  1.0000
  H   H144      1.0  0.03839  0.22312  0.39492  1.0000
  C   C201      1.0  0.20341  0.50523  0.30299  1.0000
  H   H145      1.0  0.14295  0.52816  0.41019  1.0000
  H   H146      1.0  0.17592  0.93612  0.23489  1.0000
  H   H147      1.0  0.22533  0.52575  0.22645  1.0000
  C   C202      1.0  0.82613  0.99414  0.30293  1.0000
  H   H148      1.0  0.88652  0.97120  0.41039  1.0000
  H   H149      1.0  0.85366  0.56325  0.23497  1.0000
  H   H150      1.0  0.80424  0.97365  0.22626  1.0000
  C   C203      1.0  0.70347  0.75572  0.30268  1.0000
  N   N45       1.0  0.68977  0.77457  0.32989  1.0000
  C   C204      1.0  0.67057  0.76718  0.35009  1.0000
  N   N46       1.0  0.66508  0.74037  0.34305  1.0000
  C   C205      1.0  0.67851  0.72116  0.31493  1.0000
  N   N47       1.0  0.69756  0.72919  0.29577  1.0000
  C   C206      1.0  0.65653  0.78826  0.38289  1.0000
  H   H151      1.0  0.64297  0.77851  0.40965  1.0000
  C   C207      1.0  0.67390  0.69175  0.30447  1.0000
  H   H152      1.0  0.67604  0.68659  0.23413  1.0000
  C   C208      1.0  0.72460  0.76379  0.28683  1.0000
  H   H153      1.0  0.72543  0.77628  0.22646  1.0000
  C   C209      1.0  0.32608  0.74371  0.30265  1.0000
  N   N48       1.0  0.33978  0.72485  0.32981  1.0000
  C   C210      1.0  0.35897  0.73223  0.34995  1.0000
  N   N49       1.0  0.36447  0.75905  0.34291  1.0000
  C   C211      1.0  0.35104  0.77826  0.31485  1.0000
  N   N50       1.0  0.33200  0.77023  0.29573  1.0000
  C   C212      1.0  0.37300  0.71115  0.38269  1.0000
  H   H154      1.0  0.38656  0.72089  0.40938  1.0000
  C   C213      1.0  0.35566  0.80767  0.30438  1.0000
  H   H155      1.0  0.35354  0.81283  0.23405  1.0000
  C   C214      1.0  0.30495  0.73563  0.28687  1.0000
  H   H156      1.0  0.30414  0.72312  0.22655  1.0000
  C   C215      1.0  0.41454  0.93688  0.34159  1.0000
  C   C216      1.0  0.42834  0.95794  0.33577  1.0000
  C   C217      1.0  0.41779  0.98231  0.32102  1.0000
  N   N51       1.0  0.39808  0.97537  0.32023  1.0000
  C   C218      1.0  0.39533  0.94803  0.33042  1.0000
  C   C219      1.0  0.37720  0.93271  0.32558  1.0000
  C   C220      1.0  0.35779  0.94457  0.31671  1.0000
  N   N52       1.0  0.35286  0.97143  0.32140  1.0000
  C   C221      1.0  0.33289  0.97544  0.31056  1.0000
  C   C222      1.0  0.32449  0.94946  0.29818  1.0000
  C   C223      1.0  0.33981  0.93040  0.30325  1.0000
  C   C224      1.0  0.32226  0.00068  0.31478  1.0000
  C   C225      1.0  0.33140  0.52682  0.32504  1.0000
  N   N53       1.0  0.35102  0.53390  0.31672  1.0000
  C   C226      1.0  0.35401  0.56121  0.32794  1.0000
  C   C227      1.0  0.33506  0.57220  0.34687  1.0000
  C   C228      1.0  0.32117  0.55117  0.34407  1.0000
  C   C229      1.0  0.37207  0.57661  0.31931  1.0000
  C   C230      1.0  0.39126  0.56442  0.30609  1.0000
  N   N54       1.0  0.39621  0.53772  0.31531  1.0000
  C   C231      1.0  0.41598  0.53345  0.29970  1.0000
  C   C232      1.0  0.42424  0.55899  0.27902  1.0000
  C   C233      1.0  0.40898  0.57811  0.28312  1.0000
  C   C234      1.0  0.42666  0.00835  0.30560  1.0000
  C   C235      1.0  0.44776  0.50926  0.29172  1.0000
  C   C236      1.0  0.45574  0.50187  0.20786  1.0000
  C   C237      1.0  0.47657  0.50316  0.19273  1.0000
  C   C238      1.0  0.48965  0.51206  0.26094  1.0000
  C   C239      1.0  0.37125  0.60589  0.32367  1.0000
  C   C240      1.0  0.36232  0.62127  0.25428  1.0000
  C   C241      1.0  0.36392  0.65005  0.25269  1.0000
  C   C242      1.0  0.37495  0.66400  0.31889  1.0000
  C   C243      1.0  0.30090  0.99965  0.30810  1.0000
  C   C244      1.0  0.25871  0.99397  0.28857  1.0000
  C   C245      1.0  0.27031  0.00551  0.21928  1.0000
  C   C246      1.0  0.29129  0.00812  0.22871  1.0000
  C   C247      1.0  0.37856  0.90358  0.32748  1.0000
  C   C248      1.0  0.37996  0.88855  0.24727  1.0000
  C   C249      1.0  0.37987  0.85971  0.24879  1.0000
  C   C250      1.0  0.37849  0.84537  0.33044  1.0000
  H   H157      1.0  0.38018  0.84918  0.18992  1.0000
  H   H158      1.0  0.38038  0.89847  0.18720  1.0000
  H   H159      1.0  0.41823  0.91668  0.34925  1.0000
  H   H160      1.0  0.44360  0.95541  0.33875  1.0000
  H   H161      1.0  0.38756  0.98798  0.30411  1.0000
  H   H162      1.0  0.36126  0.52133  0.29667  1.0000
  H   H163      1.0  0.33794  0.90970  0.29672  1.0000
  H   H164      1.0  0.30968  0.94474  0.28830  1.0000
  H   H165      1.0  0.29953  0.01567  0.17656  1.0000
  H   H166      1.0  0.26363  0.01108  0.16066  1.0000
  H   H167      1.0  0.30607  0.55356  0.35484  1.0000
  H   H168      1.0  0.33158  0.59227  0.35882  1.0000
  H   H169      1.0  0.43887  0.56333  0.26335  1.0000
  H   H170      1.0  0.41072  0.59852  0.26992  1.0000
  H   H171      1.0  0.35528  0.61156  0.20253  1.0000
  H   H172      1.0  0.35802  0.66067  0.20006  1.0000
  H   H173      1.0  0.48218  0.49767  0.13181  1.0000
  H   H174      1.0  0.44647  0.49554  0.15743  1.0000
  N   N55       1.0  0.37841  0.69242  0.30812  1.0000
  H   H175      1.0  0.39320  0.69527  0.29020  1.0000
  N   N56       1.0  0.51060  0.51301  0.24842  1.0000
  H   H176      1.0  0.51387  0.52365  0.19101  1.0000
  N   N57       1.0  0.37599  0.81651  0.33427  1.0000
  H   H177      1.0  0.38698  0.80722  0.29674  1.0000
  N   N58       1.0  0.23792  0.98900  0.27961  1.0000
  H   H178      1.0  0.23526  0.97845  0.22153  1.0000
  C   C251      1.0  0.61496  0.56257  0.34045  1.0000
  C   C252      1.0  0.60116  0.54152  0.33450  1.0000
  C   C253      1.0  0.61172  0.51712  0.32023  1.0000
  N   N59       1.0  0.63143  0.52407  0.31954  1.0000
  C   C254      1.0  0.63419  0.55140  0.32977  1.0000
  C   C255      1.0  0.65234  0.56671  0.32542  1.0000
  C   C256      1.0  0.67175  0.55485  0.31682  1.0000
  N   N60       1.0  0.67667  0.52799  0.32130  1.0000
  C   C257      1.0  0.69665  0.52398  0.31070  1.0000
  C   C258      1.0  0.70506  0.54996  0.29855  1.0000
  C   C259      1.0  0.68975  0.56903  0.30361  1.0000
  C   C260      1.0  0.70728  0.49873  0.31473  1.0000
  C   C261      1.0  0.69813  0.97258  0.32490  1.0000
  N   N61       1.0  0.67851  0.96551  0.31668  1.0000
  C   C262      1.0  0.67552  0.93820  0.32796  1.0000
  C   C263      1.0  0.69447  0.92720  0.34665  1.0000
  C   C264      1.0  0.70836  0.94823  0.34380  1.0000
  C   C265      1.0  0.65745  0.92280  0.31932  1.0000
  C   C266      1.0  0.63827  0.93498  0.30609  1.0000
  N   N62       1.0  0.63331  0.96169  0.31519  1.0000
  C   C267      1.0  0.61354  0.96594  0.29972  1.0000
  C   C268      1.0  0.60529  0.94039  0.27929  1.0000
  C   C269      1.0  0.62054  0.92127  0.28348  1.0000
  C   C270      1.0  0.60286  0.49105  0.30541  1.0000
  C   C271      1.0  0.58176  0.99012  0.29156  1.0000
  C   C272      1.0  0.57380  0.99747  0.20767  1.0000
  C   C273      1.0  0.55297  0.99618  0.19260  1.0000
  C   C274      1.0  0.53988  0.98730  0.26089  1.0000
  C   C275      1.0  0.65828  0.89352  0.32373  1.0000
  C   C276      1.0  0.66720  0.87812  0.25429  1.0000
  C   C277      1.0  0.66557  0.84935  0.25269  1.0000
  C   C278      1.0  0.65459  0.83540  0.31909  1.0000
  C   C279      1.0  0.72864  0.49976  0.30803  1.0000
  C   C280      1.0  0.77084  0.50541  0.28851  1.0000
  C   C281      1.0  0.75925  0.49393  0.21915  1.0000
  C   C282      1.0  0.73827  0.49132  0.22860  1.0000
  C   C283      1.0  0.65098  0.59584  0.32740  1.0000
  C   C284      1.0  0.64962  0.61089  0.24722  1.0000
  C   C285      1.0  0.64969  0.63972  0.24880  1.0000
  C   C286      1.0  0.65106  0.65405  0.33049  1.0000
  H   H179      1.0  0.64944  0.65027  0.18995  1.0000
  H   H180      1.0  0.64923  0.60099  0.18713  1.0000
  H   H181      1.0  0.61127  0.58277  0.34821  1.0000
  H   H182      1.0  0.58590  0.54405  0.33771  1.0000
  H   H183      1.0  0.64201  0.51140  0.30470  1.0000
  H   H184      1.0  0.66828  0.97808  0.29674  1.0000
  H   H185      1.0  0.69163  0.58972  0.29738  1.0000
  H   H186      1.0  0.71989  0.55469  0.28896  1.0000
  H   H187      1.0  0.73004  0.48381  0.17640  1.0000
  H   H188      1.0  0.76595  0.48838  0.16051  1.0000
  H   H189      1.0  0.72346  0.94584  0.35447  1.0000
  H   H190      1.0  0.69795  0.90713  0.35853  1.0000
  H   H191      1.0  0.59066  0.93603  0.26370  1.0000
  H   H192      1.0  0.61881  0.90086  0.27025  1.0000
  H   H193      1.0  0.67421  0.88783  0.20238  1.0000
  H   H194      1.0  0.67148  0.83872  0.20002  1.0000
  H   H195      1.0  0.54738  0.00164  0.13168  1.0000
  H   H196      1.0  0.58308  0.00378  0.15719  1.0000
  N   N63       1.0  0.65112  0.80698  0.30836  1.0000
  H   H197      1.0  0.63633  0.80414  0.29056  1.0000
  N   N64       1.0  0.51893  0.98634  0.24844  1.0000
  H   H198      1.0  0.51567  0.97569  0.19106  1.0000
  N   N65       1.0  0.65356  0.68291  0.33438  1.0000
  H   H199      1.0  0.64258  0.69221  0.29689  1.0000
  N   N66       1.0  0.79163  0.51039  0.27957  1.0000
  H   H200      1.0  0.79431  0.52096  0.22154  1.0000
  C   C287      1.0  0.91460  0.68724  0.34206  1.0000
  C   C288      1.0  0.92841  0.70828  0.33597  1.0000
  C   C289      1.0  0.91786  0.73267  0.32159  1.0000
  N   N67       1.0  0.89816  0.72573  0.32066  1.0000
  C   C290      1.0  0.89539  0.69840  0.33100  1.0000
  C   C291      1.0  0.87724  0.68310  0.32667  1.0000
  C   C292      1.0  0.85783  0.69497  0.31800  1.0000
  N   N68       1.0  0.85291  0.72183  0.32266  1.0000
  C   C293      1.0  0.83295  0.72586  0.31181  1.0000
  C   C294      1.0  0.82455  0.69989  0.29925  1.0000
  C   C295      1.0  0.83985  0.68081  0.30449  1.0000
  C   C296      1.0  0.82233  0.75111  0.31586  1.0000
  C   C297      1.0  0.83150  0.77722  0.32658  1.0000
  N   N69       1.0  0.85114  0.78425  0.31866  1.0000
  C   C298      1.0  0.85411  0.81157  0.32961  1.0000
  C   C299      1.0  0.83518  0.82256  0.34893  1.0000
  C   C300      1.0  0.82128  0.80155  0.34597  1.0000
  C   C301      1.0  0.87216  0.82698  0.32040  1.0000
  C   C302      1.0  0.89133  0.81479  0.30694  1.0000
  N   N70       1.0  0.89629  0.78809  0.31624  1.0000
  C   C303      1.0  0.91606  0.78382  0.30045  1.0000
  C   C304      1.0  0.92431  0.80935  0.27973  1.0000
  C   C305      1.0  0.90905  0.82848  0.28392  1.0000
  C   C306      1.0  0.92673  0.75872  0.30636  1.0000
  C   C307      1.0  0.94784  0.75963  0.29244  1.0000
  C   C308      1.0  0.95580  0.75224  0.20855  1.0000
  C   C309      1.0  0.97664  0.75346  0.19345  1.0000
  C   C310      1.0  0.98973  0.76228  0.26173  1.0000
  C   C311      1.0  0.87134  0.85626  0.32463  1.0000
  C   C312      1.0  0.86235  0.87162  0.25530  1.0000
  C   C313      1.0  0.86397  0.90039  0.25353  1.0000
  C   C314      1.0  0.87500  0.91437  0.31965  1.0000
  C   C315      1.0  0.80097  0.75011  0.30894  1.0000
  C   C316      1.0  0.75879  0.74450  0.28887  1.0000
  C   C317      1.0  0.77045  0.75606  0.21978  1.0000
  C   C318      1.0  0.79141  0.75866  0.22952  1.0000
  C   C319      1.0  0.87859  0.65397  0.32865  1.0000
  C   C320      1.0  0.88007  0.63892  0.24849  1.0000
  C   C321      1.0  0.88001  0.61009  0.25007  1.0000
  C   C322      1.0  0.87853  0.59577  0.33172  1.0000
  H   H201      1.0  0.88033  0.59955  0.19121  1.0000
  H   H202      1.0  0.88054  0.64883  0.18842  1.0000
  H   H203      1.0  0.91828  0.66704  0.35008  1.0000
  H   H204      1.0  0.94367  0.70576  0.33953  1.0000
  H   H205      1.0  0.88759  0.73838  0.30550  1.0000
  H   H206      1.0  0.86129  0.77179  0.29703  1.0000
  H   H207      1.0  0.83798  0.66013  0.29765  1.0000
  H   H208      1.0  0.80974  0.69519  0.28915  1.0000
  H   H209      1.0  0.79969  0.76625  0.17754  1.0000
  H   H210      1.0  0.76380  0.76171  0.16117  1.0000
  H   H211      1.0  0.80617  0.80396  0.35645  1.0000
  H   H212      1.0  0.83170  0.84265  0.36047  1.0000
  H   H213      1.0  0.93893  0.81369  0.26391  1.0000
  H   H214      1.0  0.91079  0.84887  0.27052  1.0000
  H   H215      1.0  0.85528  0.86188  0.20368  1.0000
  H   H216      1.0  0.85799  0.91100  0.20106  1.0000
  H   H217      1.0  0.98224  0.74797  0.13254  1.0000
  H   H218      1.0  0.94653  0.74595  0.15810  1.0000
  N   N71       1.0  0.87841  0.94281  0.30889  1.0000
  H   H219      1.0  0.89318  0.94572  0.29086  1.0000
  N   N72       1.0  0.01069  0.76313  0.24928  1.0000
  H   H220      1.0  0.01400  0.77379  0.19196  1.0000
  N   N73       1.0  0.87603  0.56691  0.33553  1.0000
  H   H221      1.0  0.88705  0.55761  0.29817  1.0000
  N   N74       1.0  0.73801  0.73952  0.27959  1.0000
  H   H222      1.0  0.73539  0.72899  0.22142  1.0000
  C   C323      1.0  0.11499  0.81206  0.34454  1.0000
  C   C324      1.0  0.10118  0.79103  0.33833  1.0000
  C   C325      1.0  0.11173  0.76668  0.32305  1.0000
  N   N75       1.0  0.13144  0.77358  0.32232  1.0000
  C   C326      1.0  0.13419  0.80093  0.33255  1.0000
  C   C327      1.0  0.15231  0.81626  0.32686  1.0000
  C   C328      1.0  0.17171  0.80439  0.31764  1.0000
  N   N76       1.0  0.17664  0.77754  0.32266  1.0000
  C   C329      1.0  0.19660  0.77351  0.31152  1.0000
  C   C330      1.0  0.20499  0.79947  0.29851  1.0000
  C   C331      1.0  0.18968  0.81854  0.30359  1.0000
  C   C332      1.0  0.20722  0.74827  0.31578  1.0000
  C   C333      1.0  0.19806  0.72215  0.32639  1.0000
  N   N77       1.0  0.17843  0.71510  0.31824  1.0000
  C   C334      1.0  0.17544  0.68779  0.32941  1.0000
  C   C335      1.0  0.19436  0.67681  0.34871  1.0000
  C   C336      1.0  0.20826  0.69782  0.34585  1.0000
  C   C337      1.0  0.15738  0.67240  0.32037  1.0000
  C   C338      1.0  0.13822  0.68461  0.30686  1.0000
  N   N78       1.0  0.13327  0.71131  0.31644  1.0000
  C   C339      1.0  0.11352  0.71561  0.30048  1.0000
  C   C340      1.0  0.10528  0.69011  0.27925  1.0000
  C   C341      1.0  0.12053  0.67097  0.28338  1.0000
  C   C342      1.0  0.10286  0.74070  0.30673  1.0000
  C   C343      1.0  0.08176  0.73984  0.29270  1.0000
  C   C344      1.0  0.07385  0.74735  0.20888  1.0000
  C   C345      1.0  0.05303  0.74617  0.19364  1.0000
  C   C346      1.0  0.03989  0.73725  0.26170  1.0000
  C   C347      1.0  0.15819  0.64312  0.32455  1.0000
  C   C348      1.0  0.16723  0.62775  0.25530  1.0000
  C   C349      1.0  0.16561  0.59898  0.25352  1.0000
  C   C350      1.0  0.15452  0.58500  0.31953  1.0000
  C   C351      1.0  0.22858  0.74927  0.30888  1.0000
  C   C352      1.0  0.27077  0.75492  0.28881  1.0000
  C   C353      1.0  0.25915  0.74328  0.21982  1.0000
  C   C354      1.0  0.23818  0.74067  0.22954  1.0000
  C   C355      1.0  0.15095  0.84539  0.32871  1.0000
  C   C356      1.0  0.14953  0.86041  0.24849  1.0000
  C   C357      1.0  0.14959  0.88924  0.24996  1.0000
  C   C358      1.0  0.15099  0.90360  0.33157  1.0000
  H   H223      1.0  0.14928  0.89976  0.19107  1.0000
  H   H224      1.0  0.14908  0.85048  0.18845  1.0000
  H   H225      1.0  0.11130  0.83229  0.35138  1.0000
  H   H226      1.0  0.08592  0.79360  0.34091  1.0000
  H   H227      1.0  0.14193  0.76110  0.30463  1.0000
  H   H228      1.0  0.16827  0.72763  0.29722  1.0000
  H   H229      1.0  0.19154  0.83922  0.29670  1.0000
  H   H230      1.0  0.21980  0.80417  0.28823  1.0000
  H   H231      1.0  0.22992  0.73308  0.17756  1.0000
  H   H232      1.0  0.26582  0.73765  0.16120  1.0000
  H   H233      1.0  0.22336  0.69543  0.35660  1.0000
  H   H234      1.0  0.19783  0.65673  0.36065  1.0000
  H   H235      1.0  0.09067  0.68580  0.26330  1.0000
  H   H236      1.0  0.11879  0.65058  0.26987  1.0000
  H   H237      1.0  0.17436  0.63749  0.20380  1.0000
  H   H238      1.0  0.17165  0.58837  0.20112  1.0000
  H   H239      1.0  0.04747  0.75174  0.13276  1.0000
  H   H240      1.0  0.08316  0.75371  0.15858  1.0000
  N   N79       1.0  0.15113  0.55656  0.30874  1.0000
  H   H241      1.0  0.13637  0.55365  0.29062  1.0000
  N   N80       1.0  0.01894  0.73642  0.24911  1.0000
  H   H242      1.0  0.01567  0.72584  0.19161  1.0000
  N   N81       1.0  0.15348  0.93246  0.33532  1.0000
  H   H243      1.0  0.14249  0.94174  0.29788  1.0000
  N   N82       1.0  0.29155  0.75990  0.27953  1.0000
  H   H244      1.0  0.29419  0.77040  0.22132  1.0000
  N   N83       1.0  0.18972  0.52411  0.33024  1.0000
  C   C359      1.0  0.17053  0.51675  0.35062  1.0000
  N   N84       1.0  0.16502  0.98994  0.34373  1.0000
  C   C360      1.0  0.17843  0.97070  0.31558  1.0000
  N   N85       1.0  0.19747  0.97872  0.29622  1.0000
  C   C361      1.0  0.15652  0.53787  0.38337  1.0000
  H   H245      1.0  0.16379  0.54865  0.43854  1.0000
  C   C362      1.0  0.17381  0.94129  0.30523  1.0000
  H   H246      1.0  0.18509  0.93003  0.34384  1.0000
  C   C363      1.0  0.22453  0.51329  0.28689  1.0000
  H   H247      1.0  0.22935  0.52586  0.34330  1.0000
  N   N86       1.0  0.83980  0.97525  0.33023  1.0000
  C   C364      1.0  0.85898  0.98262  0.35069  1.0000
  N   N87       1.0  0.86450  0.50943  0.34384  1.0000
  C   C365      1.0  0.85110  0.52867  0.31564  1.0000
  N   N88       1.0  0.83206  0.52065  0.29620  1.0000
  C   C366      1.0  0.87297  0.96150  0.38350  1.0000
  H   H248      1.0  0.86566  0.95072  0.43864  1.0000
  C   C367      1.0  0.85573  0.55808  0.30533  1.0000
  H   H249      1.0  0.84442  0.56933  0.34389  1.0000
  C   C368      1.0  0.80501  0.98609  0.28675  1.0000
  H   H250      1.0  0.80017  0.97349  0.34310  1.0000
  H   H251      1.0  0.66379  0.79903  0.43814  1.0000
  H   H252      1.0  0.68516  0.68048  0.34315  1.0000
  H   H253      1.0  0.72938  0.77635  0.34336  1.0000
  H   H254      1.0  0.36573  0.70038  0.43797  1.0000
  H   H255      1.0  0.34438  0.81894  0.34308  1.0000
  H   H256      1.0  0.30015  0.72310  0.34345  1.0000
  C   C369      1.0  0.48168  0.01971  0.34434  1.0000
  C   C370      1.0  0.46083  0.01822  0.35993  1.0000
  C   C371      1.0  0.38372  0.64874  0.38878  1.0000
  C   C372      1.0  0.38152  0.62009  0.39219  1.0000
  C   C373      1.0  0.28914  0.48883  0.37828  1.0000
  C   C374      1.0  0.26823  0.48575  0.36806  1.0000
  C   C375      1.0  0.37774  0.88928  0.40925  1.0000
  C   C376      1.0  0.37781  0.86043  0.41059  1.0000
  H   H257      1.0  0.37646  0.85042  0.47019  1.0000
  H   H258      1.0  0.37655  0.89975  0.46811  1.0000
  H   H259      1.0  0.29580  0.48235  0.43604  1.0000
  H   H260      1.0  0.26000  0.47717  0.41849  1.0000
  H   H261      1.0  0.38858  0.60949  0.44205  1.0000
  H   H262      1.0  0.39218  0.65839  0.43620  1.0000
  H   H263      1.0  0.45527  0.02376  0.42096  1.0000
  H   H264      1.0  0.49103  0.02607  0.39432  1.0000
  C   C377      1.0  0.54783  0.47969  0.34430  1.0000
  C   C378      1.0  0.56867  0.48119  0.35984  1.0000
  C   C379      1.0  0.64582  0.85067  0.38904  1.0000
  C   C380      1.0  0.64801  0.87932  0.39231  1.0000
  C   C381      1.0  0.74038  0.01050  0.37832  1.0000
  C   C382      1.0  0.76129  0.01360  0.36806  1.0000
  C   C383      1.0  0.65175  0.61012  0.40921  1.0000
  C   C384      1.0  0.65170  0.63898  0.41061  1.0000
  H   H265      1.0  0.65303  0.64897  0.47022  1.0000
  H   H266      1.0  0.65292  0.59964  0.46804  1.0000
  H   H267      1.0  0.73370  0.01699  0.43607  1.0000
  H   H268      1.0  0.76950  0.02215  0.41853  1.0000
  H   H269      1.0  0.64098  0.88994  0.44231  1.0000
  H   H270      1.0  0.63738  0.84103  0.43661  1.0000
  H   H271      1.0  0.57421  0.47568  0.42088  1.0000
  H   H272      1.0  0.53846  0.47335  0.39434  1.0000
  C   C385      1.0  0.98177  0.76995  0.34513  1.0000
  C   C386      1.0  0.96092  0.76853  0.36069  1.0000
  C   C387      1.0  0.88381  0.89914  0.38950  1.0000
  C   C388      1.0  0.88165  0.87049  0.39295  1.0000
  C   C389      1.0  0.78917  0.73928  0.37893  1.0000
  C   C390      1.0  0.76827  0.73620  0.36839  1.0000
  C   C391      1.0  0.87771  0.63968  0.41044  1.0000
  C   C392      1.0  0.87781  0.61083  0.41185  1.0000
  H   H273      1.0  0.87637  0.60084  0.47142  1.0000
  H   H274      1.0  0.87647  0.65017  0.46925  1.0000
  H   H275      1.0  0.79579  0.73270  0.43666  1.0000
  H   H276      1.0  0.76000  0.72759  0.41865  1.0000
  H   H277      1.0  0.88870  0.85991  0.44287  1.0000
  H   H278      1.0  0.89227  0.90881  0.43691  1.0000
  H   H279      1.0  0.95537  0.77404  0.42176  1.0000
  H   H280      1.0  0.99113  0.77623  0.39518  1.0000
  C   C393      1.0  0.04779  0.72947  0.34504  1.0000
  C   C394      1.0  0.06863  0.73086  0.36074  1.0000
  C   C395      1.0  0.14566  0.60023  0.38931  1.0000
  C   C396      1.0  0.14780  0.62889  0.39271  1.0000
  C   C397      1.0  0.24035  0.76018  0.37879  1.0000
  C   C398      1.0  0.26126  0.76326  0.36828  1.0000
  C   C399      1.0  0.15177  0.85970  0.41045  1.0000
  C   C400      1.0  0.15168  0.88856  0.41174  1.0000
  H   H281      1.0  0.15306  0.89857  0.47131  1.0000
  H   H282      1.0  0.15297  0.84924  0.46931  1.0000
  H   H283      1.0  0.23370  0.76676  0.43649  1.0000
  H   H284      1.0  0.26950  0.77191  0.41849  1.0000
  H   H285      1.0  0.14071  0.63946  0.44261  1.0000
  H   H286      1.0  0.13714  0.59056  0.43658  1.0000
  H   H287      1.0  0.07414  0.72524  0.42175  1.0000
  H   H288      1.0  0.03839  0.72311  0.39492  1.0000
