data_image0
_chemical_formula_structural       C2NC2NC2NC2N2C2N2C2N2C2N2C2N2C2N2C2NC2NC2NC2NC2N2C2N2C2NC2NC2NC2NC2N2C2N2C2N2C2N2C2NC2NC2NC2NC2N2C2N2C2NC2NC2NC2NC2N2C2N2C2N2C2N2C2NC2NC2NC2NC2NCNCNCNCNCNCNCNCNCNCNCNCNCNCNCNCNCNCNCNCNCNCNCNCNCNCNCNCNCNCNCNCNCNCNCNCNCNCNCNCNCNCNCNCNCNCNCNCNCNCNCNCNCNCNCNCNCNCNCNCN2C2N2C2NC2NC2NC2NC2NC2NC2NC2NC2NC2NC2NC2NC2N2C2N2C2NC2NC2NC2NC2N2C2N2C2NC2NC2NC2NC2NC2NC2NC2NC2N2C2N2C2NC2NC2NC2NC2N2C2N2C2NC2NC2NC2NC2NC2NC2NC2NC2N2C2N2C2NC2NC2NC2NC2N2C2N2C2N2C2N2C2N2C2N2C2NC2NC2NC2NC2N2C2N2C2NC2NC2NC2NC2N2C2N2C2N2C2N2C2NC2NC2NC2NC2N2C2N2C2NC2NC2NC2NC2N2C2N2C2N2C2N2C2NC2NC2NC2NC2NCNCNCNCNCNCNCNCNCNCNCNCNCNCNCNCNCNCNCNCNCNCNCNCNCNCNCNCNCNCNCNCNCNCNCNCNCNCNCNCNCNCNCNCNCNCNCNCNCNCNCNCNCNCNCNCNCNCNCNCN2C2N2C2NC2NC2NC2NC2NC2NC2NC2NC2NC2NC2NC2NC2N2C2N2C2NC2NC2NC2NC2N2C2N2C2NC2NC2NC2NC2NC2NC2NC2NC2N2C2N2C2NC2NC2NC2NC2N2C2N2C2NC2NC2NC2NC2NC2NC2NC2NC2N2C2N2C2N
_chemical_formula_sum              "C480 N360"
_cell_length_a       83.7881
_cell_length_b       44.1352
_cell_length_c       14.8908
_cell_angle_alpha    90
_cell_angle_beta     90
_cell_angle_gamma    90

_space_group_name_H-M_alt    "P 1"
_space_group_IT_number       1

loop_
  _space_group_symop_operation_xyz
  'x, y, z'

loop_
  _atom_site_type_symbol
  _atom_site_label
  _atom_site_symmetry_multiplicity
  _atom_site_fract_x
  _atom_site_fract_y
  _atom_site_fract_z
  _atom_site_occupancy
  C   C1        1.0  0.23796  0.13001  0.33644  1.0000
  C   C2        1.0  0.27053  0.12150  0.36924  1.0000
  N   N1        1.0  0.26515  0.13119  0.28823  1.0000
  C   C3        1.0  0.24956  0.13631  0.26939  1.0000
  C   C4        1.0  0.24617  0.14563  0.18865  1.0000
  N   N2        1.0  0.24309  0.15372  0.11743  1.0000
  C   C5        1.0  0.77164  0.37157  0.35410  1.0000
  C   C6        1.0  0.73891  0.38606  0.34008  1.0000
  N   N3        1.0  0.75085  0.40451  0.30933  1.0000
  C   C7        1.0  0.76675  0.39905  0.31431  1.0000
  C   C8        1.0  0.77629  0.41848  0.27663  1.0000
  N   N4        1.0  0.78468  0.43558  0.24269  1.0000
  N   N5        1.0  0.76326  0.12277  0.27901  1.0000
  C   C9        1.0  0.74760  0.11808  0.26020  1.0000
  C   C10       1.0  0.74409  0.10839  0.18003  1.0000
  N   N6        1.0  0.74093  0.09979  0.10944  1.0000
  N   N7        1.0  0.24863  0.35296  0.30311  1.0000
  C   C11       1.0  0.26452  0.35885  0.30499  1.0000
  C   C12       1.0  0.27386  0.33965  0.26480  1.0000
  N   N8        1.0  0.28207  0.32274  0.22867  1.0000
  N   N9        1.0  0.31360  0.48679  0.34157  1.0000
  C   C13       1.0  0.31516  0.01716  0.33539  1.0000
  C   C14       1.0  0.32663  0.02682  0.28384  1.0000
  N   N10       1.0  0.33666  0.03517  0.23744  1.0000
  N   N11       1.0  0.71860  0.02216  0.28397  1.0000
  C   C15       1.0  0.72030  0.49194  0.27441  1.0000
  C   C16       1.0  0.73344  0.48265  0.23680  1.0000
  N   N12       1.0  0.74501  0.47451  0.20319  1.0000
  N   N13       1.0  0.81286  0.23367  0.34063  1.0000
  C   C17       1.0  0.81498  0.26387  0.33298  1.0000
  C   C18       1.0  0.82794  0.27288  0.29282  1.0000
  N   N14       1.0  0.83932  0.28084  0.25689  1.0000
  N   N15       1.0  0.21892  0.26843  0.29798  1.0000
  C   C19       1.0  0.22068  0.23821  0.28881  1.0000
  C   C20       1.0  0.23401  0.22915  0.25296  1.0000
  N   N16       1.0  0.24581  0.22157  0.22088  1.0000
  C   C21       1.0  0.36124  0.14439  0.31183  1.0000
  C   C22       1.0  0.32875  0.12907  0.32115  1.0000
  N   N17       1.0  0.33944  0.11295  0.27151  1.0000
  C   C23       1.0  0.35512  0.11955  0.26259  1.0000
  C   C24       1.0  0.36340  0.10227  0.20937  1.0000
  N   N18       1.0  0.37063  0.08713  0.16163  1.0000
  C   C25       1.0  0.64639  0.36612  0.32774  1.0000
  C   C26       1.0  0.67907  0.38125  0.32405  1.0000
  N   N19       1.0  0.66784  0.39611  0.27463  1.0000
  C   C27       1.0  0.65206  0.38988  0.27259  1.0000
  C   C28       1.0  0.64342  0.40599  0.21793  1.0000
  N   N20       1.0  0.63585  0.42010  0.16909  1.0000
  N   N21       1.0  0.64870  0.12391  0.28927  1.0000
  C   C29       1.0  0.66356  0.11342  0.27353  1.0000
  C   C30       1.0  0.66439  0.09073  0.21773  1.0000
  N   N22       1.0  0.66511  0.07066  0.16881  1.0000
  N   N23       1.0  0.35657  0.38684  0.27913  1.0000
  C   C31       1.0  0.34148  0.39741  0.27092  1.0000
  C   C32       1.0  0.33975  0.42181  0.22269  1.0000
  N   N24       1.0  0.33823  0.44336  0.18029  1.0000
  C   C33       1.0  0.86276  0.39533  0.34337  1.0000
  C   C34       1.0  0.83130  0.37464  0.36604  1.0000
  N   N25       1.0  0.83472  0.39933  0.31473  1.0000
  C   C35       1.0  0.84969  0.41086  0.30371  1.0000
  C   C36       1.0  0.85122  0.43390  0.25006  1.0000
  N   N26       1.0  0.85257  0.45417  0.20233  1.0000
  C   C37       1.0  0.14629  0.11356  0.33766  1.0000
  C   C38       1.0  0.17885  0.12802  0.33432  1.0000
  N   N27       1.0  0.16821  0.14021  0.27547  1.0000
  C   C39       1.0  0.15243  0.13391  0.27295  1.0000
  C   C40       1.0  0.14417  0.14649  0.20906  1.0000
  N   N28       1.0  0.13690  0.15734  0.15212  1.0000
  N   N29       1.0  0.14929  0.37149  0.29600  1.0000
  C   C41       1.0  0.16411  0.36048  0.28220  1.0000
  C   C42       1.0  0.16488  0.33737  0.22793  1.0000
  N   N30       1.0  0.16553  0.31692  0.18038  1.0000
  N   N31       1.0  0.85500  0.13606  0.27689  1.0000
  C   C43       1.0  0.83965  0.14516  0.26768  1.0000
  C   C44       1.0  0.83721  0.16793  0.21377  1.0000
  N   N32       1.0  0.83505  0.18804  0.16633  1.0000
  N   N33       1.0  0.07606  0.14463  0.34568  1.0000
  C   C45       1.0  0.06526  0.16798  0.34426  1.0000
  C   C46       1.0  0.05027  0.16062  0.34846  1.0000
  N   N34       1.0  0.03702  0.15407  0.35210  1.0000
  N   N35       1.0  0.93257  0.36182  0.34157  1.0000
  C   C47       1.0  0.94309  0.33804  0.34161  1.0000
  C   C48       1.0  0.95817  0.34485  0.33859  1.0000
  N   N36       1.0  0.97149  0.35091  0.33606  1.0000
  C   C49       1.0  0.91385  0.14803  0.33129  1.0000
  C   C50       1.0  0.93581  0.19792  0.33431  1.0000
  N   N37       1.0  0.91972  0.20143  0.33352  1.0000
  C   C51       1.0  0.90871  0.17896  0.33213  1.0000
  C   C52       1.0  0.89410  0.18906  0.33160  1.0000
  N   N38       1.0  0.88128  0.19827  0.33122  1.0000
  C   C53       1.0  0.09217  0.35967  0.34348  1.0000
  C   C54       1.0  0.07095  0.30860  0.34200  1.0000
  N   N39       1.0  0.08707  0.30596  0.33918  1.0000
  C   C55       1.0  0.09775  0.32902  0.33912  1.0000
  C   C56       1.0  0.11249  0.31971  0.33578  1.0000
  N   N40       1.0  0.12541  0.31109  0.33266  1.0000
  N   N41       1.0  0.57601  0.39624  0.34116  1.0000
  C   C57       1.0  0.56515  0.41950  0.33908  1.0000
  C   C58       1.0  0.55018  0.41195  0.33583  1.0000
  N   N42       1.0  0.53695  0.40523  0.33280  1.0000
  N   N43       1.0  0.43144  0.11331  0.33268  1.0000
  C   C59       1.0  0.44217  0.08982  0.33223  1.0000
  C   C60       1.0  0.45720  0.09703  0.33075  1.0000
  N   N44       1.0  0.47048  0.10343  0.32957  1.0000
  C   C61       1.0  0.41449  0.39857  0.32260  1.0000
  C   C62       1.0  0.43587  0.44935  0.32391  1.0000
  N   N45       1.0  0.41976  0.45221  0.31996  1.0000
  C   C63       1.0  0.40901  0.42927  0.31863  1.0000
  C   C64       1.0  0.39429  0.43865  0.31516  1.0000
  N   N46       1.0  0.38137  0.44731  0.31226  1.0000
  C   C65       1.0  0.59166  0.11137  0.34278  1.0000
  C   C66       1.0  0.57053  0.06016  0.34202  1.0000
  N   N47       1.0  0.58665  0.05761  0.33943  1.0000
  C   C67       1.0  0.59729  0.08074  0.33910  1.0000
  C   C68       1.0  0.61203  0.07146  0.33589  1.0000
  N   N48       1.0  0.62497  0.06288  0.33281  1.0000
  N   N49       1.0  0.09390  0.02142  0.35921  1.0000
  C   C69       1.0  0.09208  0.49031  0.35824  1.0000
  C   C70       1.0  0.07822  0.47927  0.33755  1.0000
  N   N50       1.0  0.06595  0.46942  0.31928  1.0000
  N   N51       1.0  0.88862  0.48662  0.30533  1.0000
  C   C71       1.0  0.88604  0.01650  0.30127  1.0000
  C   C72       1.0  0.87137  0.02245  0.27788  1.0000
  N   N52       1.0  0.85842  0.02731  0.25699  1.0000
  N   N53       1.0  0.59385  0.27358  0.35474  1.0000
  C   C73       1.0  0.59187  0.24250  0.35480  1.0000
  C   C74       1.0  0.57784  0.23165  0.33687  1.0000
  N   N54       1.0  0.56544  0.22196  0.32098  1.0000
  N   N55       1.0  0.41339  0.23708  0.33823  1.0000
  C   C75       1.0  0.41503  0.26823  0.33703  1.0000
  C   C76       1.0  0.42892  0.27952  0.31810  1.0000
  N   N56       1.0  0.44121  0.28957  0.30143  1.0000
  C   C77       1.0  0.98691  0.25090  0.33576  1.0000
  C   C78       1.0  0.02052  0.25377  0.34751  1.0000
  N   N57       1.0  0.01285  0.23159  0.30088  1.0000
  C   C79       1.0  0.99674  0.22892  0.29346  1.0000
  C   C80       1.0  0.99151  0.20760  0.24094  1.0000
  N   N58       1.0  0.98702  0.18907  0.19303  1.0000
  C   C81       1.0  0.48660  0.00302  0.32751  1.0000
  C   C82       1.0  0.52017  0.00532  0.34203  1.0000
  N   N59       1.0  0.51255  0.48356  0.29352  1.0000
  C   C83       1.0  0.49645  0.48117  0.28475  1.0000
  C   C84       1.0  0.49126  0.96019  0.23087  1.0000
  N   N60       1.0  0.48675  0.94195  0.18206  1.0000
  C   C85       1.0  0.31402  0.11458  0.33887  1.0000
  N   N61       1.0  0.29946  0.12812  0.34844  1.0000
  C   C86       1.0  0.28639  0.11122  0.37130  1.0000
  N   N62       1.0  0.28799  0.08089  0.38067  1.0000
  C   C87       1.0  0.30223  0.06697  0.37087  1.0000
  N   N63       1.0  0.31498  0.08419  0.35010  1.0000
  C   C88       1.0  0.69453  0.39461  0.32423  1.0000
  N   N64       1.0  0.70901  0.38055  0.33530  1.0000
  C   C89       1.0  0.72298  0.39679  0.33130  1.0000
  N   N65       1.0  0.72191  0.42702  0.31821  1.0000
  C   C90       1.0  0.70798  0.44160  0.30783  1.0000
  N   N66       1.0  0.69450  0.42508  0.31205  1.0000
  C   C91       1.0  0.69213  0.11441  0.32139  1.0000
  N   N67       1.0  0.70647  0.12931  0.32502  1.0000
  C   C92       1.0  0.72043  0.11312  0.32444  1.0000
  N   N68       1.0  0.71986  0.08252  0.32348  1.0000
  C   C93       1.0  0.70588  0.06743  0.32368  1.0000
  N   N69       1.0  0.69236  0.08377  0.32231  1.0000
  C   C94       1.0  0.31388  0.39531  0.33394  1.0000
  N   N70       1.0  0.29935  0.38106  0.33364  1.0000
  C   C95       1.0  0.28561  0.39664  0.35337  1.0000
  N   N71       1.0  0.28698  0.42642  0.37375  1.0000
  C   C96       1.0  0.30109  0.44092  0.37703  1.0000
  N   N72       1.0  0.31430  0.42509  0.35558  1.0000
  C   C97       1.0  0.81587  0.36139  0.36130  1.0000
  N   N73       1.0  0.80149  0.37614  0.35748  1.0000
  C   C98       1.0  0.78745  0.36007  0.35688  1.0000
  N   N74       1.0  0.78830  0.32947  0.35791  1.0000
  C   C99       1.0  0.80223  0.31440  0.35803  1.0000
  N   N75       1.0  0.81574  0.33074  0.35990  1.0000
  C   C100      1.0  0.19422  0.14120  0.33381  1.0000
  N   N76       1.0  0.20845  0.12614  0.33966  1.0000
  C   C101      1.0  0.22243  0.14194  0.33276  1.0000
  N   N77       1.0  0.22194  0.17238  0.32363  1.0000
  C   C102      1.0  0.20808  0.18771  0.31885  1.0000
  N   N78       1.0  0.19439  0.17175  0.32423  1.0000
  C   C103      1.0  0.19261  0.36107  0.33196  1.0000
  N   N79       1.0  0.20707  0.37560  0.33564  1.0000
  C   C104      1.0  0.22105  0.35934  0.33638  1.0000
  N   N80       1.0  0.22010  0.32873  0.33552  1.0000
  C   C105      1.0  0.20609  0.31382  0.33562  1.0000
  N   N81       1.0  0.19266  0.33042  0.33358  1.0000
  C   C106      1.0  0.81236  0.14267  0.33448  1.0000
  N   N82       1.0  0.79812  0.12756  0.34057  1.0000
  C   C107      1.0  0.78451  0.14292  0.36341  1.0000
  N   N83       1.0  0.78532  0.17319  0.37640  1.0000
  C   C108      1.0  0.79919  0.18852  0.37204  1.0000
  N   N84       1.0  0.81245  0.17281  0.35080  1.0000
  C   C109      1.0  0.10249  0.12170  0.34607  1.0000
  N   N85       1.0  0.09836  0.09148  0.35750  1.0000
  C   C110      1.0  0.10968  0.06877  0.36649  1.0000
  N   N86       1.0  0.12509  0.07806  0.36012  1.0000
  C   C111      1.0  0.12994  0.10656  0.34625  1.0000
  N   N87       1.0  0.11837  0.12754  0.33979  1.0000
  C   C112      1.0  0.90647  0.38581  0.34123  1.0000
  N   N88       1.0  0.91113  0.41586  0.33483  1.0000
  C   C113      1.0  0.90020  0.43923  0.32761  1.0000
  N   N89       1.0  0.88454  0.43077  0.32835  1.0000
  C   C114      1.0  0.87918  0.40231  0.33591  1.0000
  N   N90       1.0  0.89048  0.38077  0.34290  1.0000
  C   C115      1.0  0.90356  0.12219  0.33010  1.0000
  N   N91       1.0  0.90800  0.09193  0.32779  1.0000
  C   C116      1.0  0.89693  0.06871  0.32493  1.0000
  N   N92       1.0  0.88147  0.07774  0.32865  1.0000
  C   C117      1.0  0.87625  0.10636  0.33191  1.0000
  N   N93       1.0  0.88760  0.12794  0.33066  1.0000
  C   C118      1.0  0.10208  0.38600  0.34800  1.0000
  N   N94       1.0  0.09732  0.41592  0.35565  1.0000
  C   C119      1.0  0.10813  0.43937  0.36491  1.0000
  N   N95       1.0  0.12386  0.43124  0.36438  1.0000
  C   C120      1.0  0.12931  0.40281  0.35506  1.0000
  N   N96       1.0  0.11808  0.38112  0.34671  1.0000
  C   C121      1.0  0.60254  0.37366  0.34479  1.0000
  N   N97       1.0  0.59850  0.34334  0.35397  1.0000
  C   C122      1.0  0.60990  0.32068  0.35927  1.0000
  N   N98       1.0  0.62528  0.33004  0.35053  1.0000
  C   C123      1.0  0.63004  0.35870  0.33770  1.0000
  N   N99       1.0  0.61837  0.37964  0.33597  1.0000
  C   C124      1.0  0.40501  0.13639  0.33175  1.0000
  N   N100      1.0  0.40910  0.16671  0.34070  1.0000
  C   C125      1.0  0.39773  0.18950  0.34401  1.0000
  N   N101      1.0  0.38241  0.18019  0.33294  1.0000
  C   C126      1.0  0.37762  0.15161  0.31941  1.0000
  N   N102      1.0  0.38921  0.13051  0.32060  1.0000
  C   C127      1.0  0.40451  0.37232  0.32560  1.0000
  N   N103      1.0  0.40940  0.34248  0.33326  1.0000
  C   C128      1.0  0.39868  0.31888  0.34139  1.0000
  N   N104      1.0  0.38294  0.32682  0.34006  1.0000
  C   C129      1.0  0.37734  0.35516  0.33055  1.0000
  N   N105      1.0  0.38848  0.37709  0.32338  1.0000
  C   C130      1.0  0.60153  0.13777  0.34641  1.0000
  N   N106      1.0  0.59680  0.16776  0.35337  1.0000
  C   C131      1.0  0.60766  0.19122  0.36122  1.0000
  N   N107      1.0  0.62335  0.18296  0.36009  1.0000
  C   C132      1.0  0.62875  0.15452  0.35165  1.0000
  N   N108      1.0  0.61752  0.13283  0.34440  1.0000
  C   C133      1.0  0.06212  0.28101  0.34257  1.0000
  N   N109      1.0  0.04591  0.28017  0.34613  1.0000
  C   C134      1.0  0.03749  0.25375  0.34665  1.0000
  N   N110      1.0  0.04576  0.22716  0.34321  1.0000
  C   C135      1.0  0.06199  0.22612  0.34068  1.0000
  N   N111      1.0  0.06968  0.25352  0.34022  1.0000
  C   C136      1.0  0.94501  0.22504  0.33567  1.0000
  N   N112      1.0  0.96125  0.22523  0.33381  1.0000
  C   C137      1.0  0.96994  0.25134  0.33548  1.0000
  N   N113      1.0  0.96193  0.27820  0.33969  1.0000
  C   C138      1.0  0.94571  0.27985  0.34094  1.0000
  N   N114      1.0  0.93774  0.25278  0.33895  1.0000
  C   C139      1.0  0.56176  0.03252  0.34210  1.0000
  N   N115      1.0  0.54554  0.03159  0.34360  1.0000
  C   C140      1.0  0.53714  0.00515  0.34265  1.0000
  N   N116      1.0  0.54545  0.47858  0.33963  1.0000
  C   C141      1.0  0.56171  0.47763  0.33954  1.0000
  N   N117      1.0  0.56936  0.00507  0.34061  1.0000
  C   C142      1.0  0.44483  0.47676  0.32516  1.0000
  N   N118      1.0  0.46105  0.47728  0.32451  1.0000
  C   C143      1.0  0.46963  0.50350  0.32633  1.0000
  N   N119      1.0  0.46149  0.03026  0.32994  1.0000
  C   C144      1.0  0.44525  0.03161  0.33009  1.0000
  N   N120      1.0  0.43741  0.50438  0.32762  1.0000
  N   N121      1.0  0.24332  0.12014  0.41738  1.0000
  C   C145      1.0  0.25893  0.11458  0.43567  1.0000
  C   C146      1.0  0.26242  0.10458  0.51550  1.0000
  N   N122      1.0  0.26555  0.09577  0.58591  1.0000
  N   N123      1.0  0.75975  0.35310  0.38497  1.0000
  C   C147      1.0  0.74386  0.35875  0.38078  1.0000
  C   C148      1.0  0.73440  0.33884  0.41661  1.0000
  N   N124      1.0  0.72632  0.32094  0.44922  1.0000
  C   C149      1.0  0.76876  0.13178  0.36055  1.0000
  C   C150      1.0  0.73605  0.12470  0.32729  1.0000
  N   N125      1.0  0.74155  0.13337  0.40908  1.0000
  C   C151      1.0  0.75720  0.13806  0.42788  1.0000
  C   C152      1.0  0.76074  0.14677  0.50899  1.0000
  N   N126      1.0  0.76392  0.15438  0.58053  1.0000
  C   C153      1.0  0.23688  0.37084  0.33835  1.0000
  C   C154      1.0  0.26965  0.38567  0.34809  1.0000
  N   N127      1.0  0.25785  0.40354  0.38318  1.0000
  C   C155      1.0  0.24194  0.39783  0.38052  1.0000
  C   C156      1.0  0.23253  0.41664  0.42178  1.0000
  N   N128      1.0  0.22425  0.43317  0.45887  1.0000
  C   C157      1.0  0.30173  0.47246  0.38684  1.0000
  C   C158      1.0  0.30329  0.03532  0.37670  1.0000
  N   N129      1.0  0.29140  0.02098  0.42197  1.0000
  C   C159      1.0  0.29005  0.49059  0.42967  1.0000
  C   C160      1.0  0.27802  0.48045  0.47602  1.0000
  N   N130      1.0  0.26741  0.47149  0.51700  1.0000
  C   C161      1.0  0.70552  0.03578  0.31953  1.0000
  C   C162      1.0  0.70755  0.47323  0.30331  1.0000
  N   N131      1.0  0.69443  0.48685  0.33847  1.0000
  C   C163      1.0  0.69263  0.01713  0.34677  1.0000
  C   C164      1.0  0.67962  0.02641  0.38578  1.0000
  N   N132      1.0  0.66818  0.03460  0.42064  1.0000
  C   C165      1.0  0.79973  0.22023  0.37664  1.0000
  C   C166      1.0  0.80238  0.28279  0.36210  1.0000
  N   N133      1.0  0.78926  0.26948  0.39831  1.0000
  C   C167      1.0  0.78728  0.23930  0.40741  1.0000
  C   C168      1.0  0.77402  0.23061  0.44470  1.0000
  N   N134      1.0  0.76225  0.22333  0.47787  1.0000
  C   C169      1.0  0.20571  0.28213  0.33172  1.0000
  C   C170      1.0  0.20785  0.21945  0.31621  1.0000
  N   N135      1.0  0.19459  0.23317  0.34962  1.0000
  C   C171      1.0  0.19276  0.26347  0.35777  1.0000
  C   C172      1.0  0.17957  0.27284  0.39459  1.0000
  N   N136      1.0  0.16797  0.28113  0.42755  1.0000
  N   N137      1.0  0.35054  0.16104  0.36007  1.0000
  C   C173      1.0  0.33463  0.15512  0.36560  1.0000
  C   C174      1.0  0.32621  0.17165  0.42011  1.0000
  N   N138      1.0  0.31876  0.18619  0.46845  1.0000
  N   N139      1.0  0.65754  0.35044  0.37572  1.0000
  C   C175      1.0  0.67350  0.35641  0.37547  1.0000
  C   C176      1.0  0.68239  0.34080  0.42981  1.0000
  N   N140      1.0  0.68995  0.32686  0.47906  1.0000
  C   C177      1.0  0.64517  0.14768  0.34324  1.0000
  C   C178      1.0  0.67666  0.12750  0.31803  1.0000
  N   N141      1.0  0.67325  0.15187  0.37063  1.0000
  C   C179      1.0  0.65826  0.16315  0.38297  1.0000
  C   C180      1.0  0.65672  0.18593  0.43757  1.0000
  N   N142      1.0  0.65534  0.20600  0.48604  1.0000
  C   C181      1.0  0.36078  0.36178  0.32633  1.0000
  C   C182      1.0  0.32895  0.38196  0.31626  1.0000
  N   N143      1.0  0.33307  0.35663  0.36288  1.0000
  C   C183      1.0  0.34817  0.34527  0.36737  1.0000
  C   C184      1.0  0.35026  0.32168  0.41825  1.0000
  N   N144      1.0  0.35207  0.30099  0.46388  1.0000
  N   N145      1.0  0.85923  0.37124  0.39600  1.0000
  C   C185      1.0  0.84438  0.36049  0.41050  1.0000
  C   C186      1.0  0.84357  0.33749  0.46513  1.0000
  N   N146      1.0  0.84287  0.31712  0.51297  1.0000
  N   N147      1.0  0.15689  0.10084  0.39606  1.0000
  C   C187      1.0  0.17284  0.10672  0.39681  1.0000
  C   C188      1.0  0.18133  0.09504  0.46116  1.0000
  N   N148      1.0  0.18879  0.08501  0.51864  1.0000
  C   C189      1.0  0.14575  0.39576  0.34797  1.0000
  C   C190      1.0  0.17721  0.37452  0.32689  1.0000
  N   N149      1.0  0.17381  0.39943  0.37733  1.0000
  C   C191      1.0  0.15886  0.41119  0.38762  1.0000
  C   C192      1.0  0.15735  0.43449  0.44028  1.0000
  N   N150      1.0  0.15602  0.45503  0.48702  1.0000
  C   C193      1.0  0.85974  0.11275  0.32986  1.0000
  C   C194      1.0  0.82758  0.12995  0.31758  1.0000
  N   N151      1.0  0.83231  0.10646  0.37026  1.0000
  C   C195      1.0  0.84764  0.09649  0.37618  1.0000
  C   C196      1.0  0.85044  0.07467  0.43271  1.0000
  N   N152      1.0  0.85296  0.05550  0.48288  1.0000
  C   C197      1.0  0.09228  0.14770  0.34210  1.0000
  C   C198      1.0  0.07080  0.19850  0.34006  1.0000
  N   N153      1.0  0.08688  0.20131  0.33657  1.0000
  C   C199      1.0  0.09766  0.17848  0.33661  1.0000
  C   C200      1.0  0.11228  0.18847  0.33505  1.0000
  N   N154      1.0  0.12506  0.19792  0.33430  1.0000
  C   C201      1.0  0.91632  0.35935  0.34428  1.0000
  C   C202      1.0  0.93719  0.30776  0.34315  1.0000
  N   N155      1.0  0.92107  0.30553  0.34636  1.0000
  C   C203      1.0  0.91055  0.32880  0.34771  1.0000
  C   C204      1.0  0.89579  0.31959  0.35075  1.0000
  N   N156      1.0  0.88285  0.31106  0.35340  1.0000
  N   N157      1.0  0.93002  0.14430  0.33248  1.0000
  C   C205      1.0  0.94105  0.16720  0.33379  1.0000
  C   C206      1.0  0.95591  0.15896  0.33767  1.0000
  N   N158      1.0  0.96896  0.15120  0.34232  1.0000
  N   N159      1.0  0.07596  0.36251  0.34520  1.0000
  C   C207      1.0  0.06528  0.33904  0.34407  1.0000
  C   C208      1.0  0.05030  0.34658  0.34315  1.0000
  N   N160      1.0  0.03714  0.35382  0.34088  1.0000
  C   C209      1.0  0.59223  0.39953  0.34385  1.0000
  C   C210      1.0  0.57060  0.45010  0.33986  1.0000
  N   N161      1.0  0.58668  0.45311  0.34400  1.0000
  C   C211      1.0  0.59753  0.43039  0.34576  1.0000
  C   C212      1.0  0.61204  0.44036  0.35603  1.0000
  N   N162      1.0  0.62470  0.44971  0.36652  1.0000
  C   C213      1.0  0.41520  0.11034  0.33355  1.0000
  C   C214      1.0  0.43654  0.05933  0.33214  1.0000
  N   N163      1.0  0.42044  0.05666  0.33531  1.0000
  C   C215      1.0  0.40973  0.07959  0.33623  1.0000
  C   C216      1.0  0.39517  0.06992  0.34683  1.0000
  N   N164      1.0  0.38249  0.06074  0.35800  1.0000
  N   N165      1.0  0.43068  0.39552  0.32668  1.0000
  C   C217      1.0  0.44145  0.41885  0.32671  1.0000
  C   C218      1.0  0.45637  0.41122  0.33326  1.0000
  N   N166      1.0  0.46950  0.40408  0.33991  1.0000
  N   N167      1.0  0.57544  0.11412  0.34449  1.0000
  C   C219      1.0  0.56480  0.09058  0.34368  1.0000
  C   C220      1.0  0.54981  0.09800  0.34296  1.0000
  N   N168      1.0  0.53663  0.10512  0.34101  1.0000
  C   C221      1.0  0.10789  0.03662  0.37618  1.0000
  C   C222      1.0  0.10563  0.47137  0.37132  1.0000
  N   N169      1.0  0.11898  0.48715  0.39269  1.0000
  C   C223      1.0  0.12100  0.01723  0.39809  1.0000
  C   C224      1.0  0.13537  0.02423  0.42459  1.0000
  N   N170      1.0  0.14809  0.02999  0.44773  1.0000
  C   C225      1.0  0.90232  0.47139  0.32272  1.0000
  C   C226      1.0  0.89905  0.03655  0.31925  1.0000
  N   N171      1.0  0.91339  0.02207  0.33257  1.0000
  C   C227      1.0  0.91565  0.49105  0.33335  1.0000
  C   C228      1.0  0.92983  0.48068  0.34966  1.0000
  N   N172      1.0  0.94239  0.47144  0.36398  1.0000
  C   C229      1.0  0.60802  0.28855  0.36880  1.0000
  C   C230      1.0  0.60536  0.22332  0.36648  1.0000
  N   N173      1.0  0.61890  0.23897  0.38492  1.0000
  C   C231      1.0  0.62114  0.26901  0.38871  1.0000
  C   C232      1.0  0.63568  0.27582  0.41272  1.0000
  N   N174      1.0  0.64853  0.28131  0.43395  1.0000
  C   C233      1.0  0.39940  0.22167  0.35365  1.0000
  C   C234      1.0  0.40133  0.28693  0.34830  1.0000
  N   N175      1.0  0.38801  0.27094  0.36877  1.0000
  C   C235      1.0  0.38615  0.24083  0.37426  1.0000
  C   C236      1.0  0.37186  0.23350  0.40132  1.0000
  N   N176      1.0  0.35922  0.22758  0.42551  1.0000
  N   N177      1.0  0.99459  0.27304  0.38249  1.0000
  C   C237      1.0  0.01069  0.27568  0.39009  1.0000
  C   C238      1.0  0.01590  0.29692  0.44295  1.0000
  N   N178      1.0  0.02037  0.31533  0.49130  1.0000
  N   N179      1.0  0.49422  0.02470  0.37629  1.0000
  C   C239      1.0  0.51031  0.02704  0.38529  1.0000
  C   C240      1.0  0.51547  0.04773  0.44021  1.0000
  N   N180      1.0  0.51992  0.06560  0.49038  1.0000
  C   C241      1.0  0.23796  0.63001  0.33644  1.0000
  C   C242      1.0  0.27053  0.62150  0.36924  1.0000
  N   N181      1.0  0.26515  0.63119  0.28823  1.0000
  C   C243      1.0  0.24956  0.63631  0.26939  1.0000
  C   C244      1.0  0.24617  0.64563  0.18865  1.0000
  N   N182      1.0  0.24309  0.65372  0.11743  1.0000
  C   C245      1.0  0.77164  0.87157  0.35410  1.0000
  C   C246      1.0  0.73891  0.88606  0.34008  1.0000
  N   N183      1.0  0.75085  0.90451  0.30933  1.0000
  C   C247      1.0  0.76675  0.89905  0.31431  1.0000
  C   C248      1.0  0.77629  0.91848  0.27663  1.0000
  N   N184      1.0  0.78468  0.93558  0.24269  1.0000
  N   N185      1.0  0.76326  0.62277  0.27901  1.0000
  C   C249      1.0  0.74760  0.61808  0.26020  1.0000
  C   C250      1.0  0.74409  0.60839  0.18003  1.0000
  N   N186      1.0  0.74093  0.59979  0.10944  1.0000
  N   N187      1.0  0.24863  0.85296  0.30311  1.0000
  C   C251      1.0  0.26452  0.85884  0.30499  1.0000
  C   C252      1.0  0.27386  0.83965  0.26480  1.0000
  N   N188      1.0  0.28207  0.82274  0.22867  1.0000
  N   N189      1.0  0.31360  0.98679  0.34157  1.0000
  C   C253      1.0  0.31516  0.51716  0.33539  1.0000
  C   C254      1.0  0.32663  0.52682  0.28384  1.0000
  N   N190      1.0  0.33666  0.53517  0.23744  1.0000
  N   N191      1.0  0.71860  0.52216  0.28397  1.0000
  C   C255      1.0  0.72030  0.99194  0.27441  1.0000
  C   C256      1.0  0.73344  0.98265  0.23680  1.0000
  N   N192      1.0  0.74501  0.97451  0.20319  1.0000
  N   N193      1.0  0.81286  0.73367  0.34063  1.0000
  C   C257      1.0  0.81498  0.76387  0.33298  1.0000
  C   C258      1.0  0.82794  0.77288  0.29282  1.0000
  N   N194      1.0  0.83932  0.78084  0.25689  1.0000
  N   N195      1.0  0.21892  0.76843  0.29798  1.0000
  C   C259      1.0  0.22068  0.73821  0.28881  1.0000
  C   C260      1.0  0.23401  0.72915  0.25296  1.0000
  N   N196      1.0  0.24581  0.72157  0.22088  1.0000
  C   C261      1.0  0.36124  0.64439  0.31183  1.0000
  C   C262      1.0  0.32875  0.62907  0.32115  1.0000
  N   N197      1.0  0.33944  0.61295  0.27151  1.0000
  C   C263      1.0  0.35512  0.61955  0.26259  1.0000
  C   C264      1.0  0.36340  0.60227  0.20937  1.0000
  N   N198      1.0  0.37063  0.58713  0.16163  1.0000
  C   C265      1.0  0.64639  0.86612  0.32774  1.0000
  C   C266      1.0  0.67907  0.88125  0.32405  1.0000
  N   N199      1.0  0.66784  0.89611  0.27463  1.0000
  C   C267      1.0  0.65206  0.88988  0.27259  1.0000
  C   C268      1.0  0.64342  0.90599  0.21793  1.0000
  N   N200      1.0  0.63585  0.92010  0.16909  1.0000
  N   N201      1.0  0.64870  0.62391  0.28927  1.0000
  C   C269      1.0  0.66356  0.61342  0.27353  1.0000
  C   C270      1.0  0.66439  0.59073  0.21773  1.0000
  N   N202      1.0  0.66511  0.57066  0.16881  1.0000
  N   N203      1.0  0.35657  0.88685  0.27913  1.0000
  C   C271      1.0  0.34148  0.89741  0.27092  1.0000
  C   C272      1.0  0.33975  0.92181  0.22269  1.0000
  N   N204      1.0  0.33823  0.94336  0.18029  1.0000
  C   C273      1.0  0.86276  0.89534  0.34337  1.0000
  C   C274      1.0  0.83130  0.87464  0.36604  1.0000
  N   N205      1.0  0.83472  0.89933  0.31473  1.0000
  C   C275      1.0  0.84969  0.91086  0.30371  1.0000
  C   C276      1.0  0.85122  0.93390  0.25006  1.0000
  N   N206      1.0  0.85257  0.95417  0.20233  1.0000
  C   C277      1.0  0.14629  0.61356  0.33766  1.0000
  C   C278      1.0  0.17885  0.62802  0.33432  1.0000
  N   N207      1.0  0.16821  0.64021  0.27547  1.0000
  C   C279      1.0  0.15243  0.63391  0.27295  1.0000
  C   C280      1.0  0.14417  0.64649  0.20906  1.0000
  N   N208      1.0  0.13690  0.65734  0.15212  1.0000
  N   N209      1.0  0.14929  0.87149  0.29600  1.0000
  C   C281      1.0  0.16411  0.86048  0.28220  1.0000
  C   C282      1.0  0.16488  0.83737  0.22793  1.0000
  N   N210      1.0  0.16553  0.81692  0.18038  1.0000
  N   N211      1.0  0.85500  0.63606  0.27689  1.0000
  C   C283      1.0  0.83965  0.64516  0.26768  1.0000
  C   C284      1.0  0.83721  0.66793  0.21377  1.0000
  N   N212      1.0  0.83505  0.68803  0.16633  1.0000
  N   N213      1.0  0.07606  0.64463  0.34568  1.0000
  C   C285      1.0  0.06526  0.66798  0.34426  1.0000
  C   C286      1.0  0.05027  0.66062  0.34846  1.0000
  N   N214      1.0  0.03702  0.65407  0.35210  1.0000
  N   N215      1.0  0.93257  0.86182  0.34157  1.0000
  C   C287      1.0  0.94309  0.83804  0.34161  1.0000
  C   C288      1.0  0.95817  0.84485  0.33859  1.0000
  N   N216      1.0  0.97149  0.85091  0.33606  1.0000
  C   C289      1.0  0.91385  0.64803  0.33129  1.0000
  C   C290      1.0  0.93581  0.69792  0.33431  1.0000
  N   N217      1.0  0.91972  0.70143  0.33352  1.0000
  C   C291      1.0  0.90871  0.67896  0.33213  1.0000
  C   C292      1.0  0.89410  0.68906  0.33160  1.0000
  N   N218      1.0  0.88128  0.69827  0.33122  1.0000
  C   C293      1.0  0.09217  0.85967  0.34348  1.0000
  C   C294      1.0  0.07095  0.80860  0.34200  1.0000
  N   N219      1.0  0.08707  0.80596  0.33918  1.0000
  C   C295      1.0  0.09775  0.82903  0.33912  1.0000
  C   C296      1.0  0.11249  0.81971  0.33578  1.0000
  N   N220      1.0  0.12541  0.81108  0.33266  1.0000
  N   N221      1.0  0.57601  0.89624  0.34116  1.0000
  C   C297      1.0  0.56515  0.91950  0.33908  1.0000
  C   C298      1.0  0.55018  0.91195  0.33583  1.0000
  N   N222      1.0  0.53695  0.90523  0.33280  1.0000
  N   N223      1.0  0.43144  0.61331  0.33268  1.0000
  C   C299      1.0  0.44217  0.58982  0.33223  1.0000
  C   C300      1.0  0.45720  0.59703  0.33075  1.0000
  N   N224      1.0  0.47048  0.60343  0.32957  1.0000
  C   C301      1.0  0.41449  0.89858  0.32260  1.0000
  C   C302      1.0  0.43587  0.94935  0.32391  1.0000
  N   N225      1.0  0.41976  0.95221  0.31996  1.0000
  C   C303      1.0  0.40901  0.92926  0.31863  1.0000
  C   C304      1.0  0.39429  0.93865  0.31516  1.0000
  N   N226      1.0  0.38137  0.94730  0.31226  1.0000
  C   C305      1.0  0.59166  0.61137  0.34278  1.0000
  C   C306      1.0  0.57053  0.56016  0.34202  1.0000
  N   N227      1.0  0.58665  0.55761  0.33943  1.0000
  C   C307      1.0  0.59729  0.58074  0.33910  1.0000
  C   C308      1.0  0.61203  0.57146  0.33589  1.0000
  N   N228      1.0  0.62497  0.56288  0.33281  1.0000
  N   N229      1.0  0.09390  0.52142  0.35921  1.0000
  C   C309      1.0  0.09208  0.99031  0.35824  1.0000
  C   C310      1.0  0.07822  0.97927  0.33755  1.0000
  N   N230      1.0  0.06595  0.96942  0.31928  1.0000
  N   N231      1.0  0.88862  0.98662  0.30533  1.0000
  C   C311      1.0  0.88604  0.51650  0.30127  1.0000
  C   C312      1.0  0.87137  0.52245  0.27788  1.0000
  N   N232      1.0  0.85842  0.52731  0.25699  1.0000
  N   N233      1.0  0.59385  0.77358  0.35474  1.0000
  C   C313      1.0  0.59187  0.74250  0.35480  1.0000
  C   C314      1.0  0.57784  0.73165  0.33687  1.0000
  N   N234      1.0  0.56544  0.72196  0.32098  1.0000
  N   N235      1.0  0.41339  0.73708  0.33823  1.0000
  C   C315      1.0  0.41503  0.76823  0.33703  1.0000
  C   C316      1.0  0.42892  0.77952  0.31810  1.0000
  N   N236      1.0  0.44121  0.78957  0.30143  1.0000
  C   C317      1.0  0.98691  0.75090  0.33576  1.0000
  C   C318      1.0  0.02052  0.75377  0.34751  1.0000
  N   N237      1.0  0.01285  0.73159  0.30088  1.0000
  C   C319      1.0  0.99674  0.72892  0.29346  1.0000
  C   C320      1.0  0.99151  0.70760  0.24094  1.0000
  N   N238      1.0  0.98702  0.68907  0.19303  1.0000
  C   C321      1.0  0.48660  0.50302  0.32751  1.0000
  C   C322      1.0  0.52017  0.50532  0.34203  1.0000
  N   N239      1.0  0.51255  0.98356  0.29352  1.0000
  C   C323      1.0  0.49645  0.98117  0.28475  1.0000
  C   C324      1.0  0.49126  0.46020  0.23087  1.0000
  N   N240      1.0  0.48675  0.44195  0.18206  1.0000
  C   C325      1.0  0.31402  0.61458  0.33887  1.0000
  N   N241      1.0  0.29946  0.62812  0.34844  1.0000
  C   C326      1.0  0.28639  0.61122  0.37130  1.0000
  N   N242      1.0  0.28799  0.58090  0.38067  1.0000
  C   C327      1.0  0.30223  0.56697  0.37087  1.0000
  N   N243      1.0  0.31498  0.58419  0.35010  1.0000
  C   C328      1.0  0.69453  0.89461  0.32423  1.0000
  N   N244      1.0  0.70901  0.88055  0.33530  1.0000
  C   C329      1.0  0.72298  0.89679  0.33130  1.0000
  N   N245      1.0  0.72191  0.92702  0.31821  1.0000
  C   C330      1.0  0.70798  0.94160  0.30783  1.0000
  N   N246      1.0  0.69450  0.92508  0.31205  1.0000
  C   C331      1.0  0.69213  0.61441  0.32139  1.0000
  N   N247      1.0  0.70647  0.62931  0.32502  1.0000
  C   C332      1.0  0.72043  0.61312  0.32444  1.0000
  N   N248      1.0  0.71986  0.58252  0.32348  1.0000
  C   C333      1.0  0.70588  0.56743  0.32368  1.0000
  N   N249      1.0  0.69236  0.58377  0.32231  1.0000
  C   C334      1.0  0.31388  0.89531  0.33394  1.0000
  N   N250      1.0  0.29935  0.88106  0.33364  1.0000
  C   C335      1.0  0.28561  0.89664  0.35337  1.0000
  N   N251      1.0  0.28698  0.92642  0.37375  1.0000
  C   C336      1.0  0.30109  0.94092  0.37703  1.0000
  N   N252      1.0  0.31430  0.92509  0.35558  1.0000
  C   C337      1.0  0.81587  0.86139  0.36130  1.0000
  N   N253      1.0  0.80149  0.87614  0.35748  1.0000
  C   C338      1.0  0.78745  0.86007  0.35688  1.0000
  N   N254      1.0  0.78830  0.82947  0.35791  1.0000
  C   C339      1.0  0.80223  0.81440  0.35803  1.0000
  N   N255      1.0  0.81574  0.83074  0.35990  1.0000
  C   C340      1.0  0.19422  0.64120  0.33381  1.0000
  N   N256      1.0  0.20845  0.62614  0.33966  1.0000
  C   C341      1.0  0.22243  0.64194  0.33276  1.0000
  N   N257      1.0  0.22194  0.67238  0.32363  1.0000
  C   C342      1.0  0.20808  0.68771  0.31885  1.0000
  N   N258      1.0  0.19439  0.67175  0.32423  1.0000
  C   C343      1.0  0.19261  0.86107  0.33196  1.0000
  N   N259      1.0  0.20707  0.87560  0.33564  1.0000
  C   C344      1.0  0.22105  0.85934  0.33638  1.0000
  N   N260      1.0  0.22010  0.82873  0.33552  1.0000
  C   C345      1.0  0.20609  0.81382  0.33562  1.0000
  N   N261      1.0  0.19266  0.83042  0.33358  1.0000
  C   C346      1.0  0.81236  0.64267  0.33448  1.0000
  N   N262      1.0  0.79812  0.62756  0.34057  1.0000
  C   C347      1.0  0.78451  0.64292  0.36341  1.0000
  N   N263      1.0  0.78532  0.67319  0.37640  1.0000
  C   C348      1.0  0.79919  0.68852  0.37204  1.0000
  N   N264      1.0  0.81245  0.67281  0.35080  1.0000
  C   C349      1.0  0.10249  0.62170  0.34607  1.0000
  N   N265      1.0  0.09836  0.59148  0.35750  1.0000
  C   C350      1.0  0.10968  0.56877  0.36649  1.0000
  N   N266      1.0  0.12509  0.57806  0.36012  1.0000
  C   C351      1.0  0.12994  0.60656  0.34625  1.0000
  N   N267      1.0  0.11837  0.62754  0.33979  1.0000
  C   C352      1.0  0.90647  0.88581  0.34123  1.0000
  N   N268      1.0  0.91113  0.91586  0.33483  1.0000
  C   C353      1.0  0.90020  0.93923  0.32761  1.0000
  N   N269      1.0  0.88454  0.93077  0.32835  1.0000
  C   C354      1.0  0.87918  0.90231  0.33591  1.0000
  N   N270      1.0  0.89048  0.88077  0.34290  1.0000
  C   C355      1.0  0.90356  0.62219  0.33010  1.0000
  N   N271      1.0  0.90800  0.59193  0.32779  1.0000
  C   C356      1.0  0.89693  0.56872  0.32493  1.0000
  N   N272      1.0  0.88147  0.57774  0.32865  1.0000
  C   C357      1.0  0.87625  0.60636  0.33191  1.0000
  N   N273      1.0  0.88760  0.62794  0.33066  1.0000
  C   C358      1.0  0.10208  0.88600  0.34800  1.0000
  N   N274      1.0  0.09732  0.91592  0.35565  1.0000
  C   C359      1.0  0.10813  0.93937  0.36491  1.0000
  N   N275      1.0  0.12386  0.93124  0.36438  1.0000
  C   C360      1.0  0.12931  0.90281  0.35506  1.0000
  N   N276      1.0  0.11808  0.88112  0.34671  1.0000
  C   C361      1.0  0.60254  0.87366  0.34479  1.0000
  N   N277      1.0  0.59850  0.84334  0.35397  1.0000
  C   C362      1.0  0.60990  0.82068  0.35927  1.0000
  N   N278      1.0  0.62528  0.83004  0.35053  1.0000
  C   C363      1.0  0.63004  0.85870  0.33770  1.0000
  N   N279      1.0  0.61837  0.87964  0.33597  1.0000
  C   C364      1.0  0.40501  0.63639  0.33175  1.0000
  N   N280      1.0  0.40910  0.66671  0.34070  1.0000
  C   C365      1.0  0.39773  0.68950  0.34401  1.0000
  N   N281      1.0  0.38241  0.68020  0.33294  1.0000
  C   C366      1.0  0.37762  0.65161  0.31941  1.0000
  N   N282      1.0  0.38921  0.63051  0.32060  1.0000
  C   C367      1.0  0.40451  0.87232  0.32560  1.0000
  N   N283      1.0  0.40940  0.84248  0.33326  1.0000
  C   C368      1.0  0.39868  0.81888  0.34139  1.0000
  N   N284      1.0  0.38294  0.82682  0.34006  1.0000
  C   C369      1.0  0.37734  0.85516  0.33055  1.0000
  N   N285      1.0  0.38848  0.87709  0.32338  1.0000
  C   C370      1.0  0.60153  0.63777  0.34641  1.0000
  N   N286      1.0  0.59680  0.66776  0.35337  1.0000
  C   C371      1.0  0.60766  0.69122  0.36122  1.0000
  N   N287      1.0  0.62335  0.68297  0.36009  1.0000
  C   C372      1.0  0.62875  0.65452  0.35165  1.0000
  N   N288      1.0  0.61752  0.63283  0.34440  1.0000
  C   C373      1.0  0.06212  0.78101  0.34257  1.0000
  N   N289      1.0  0.04591  0.78017  0.34613  1.0000
  C   C374      1.0  0.03749  0.75375  0.34665  1.0000
  N   N290      1.0  0.04576  0.72716  0.34321  1.0000
  C   C375      1.0  0.06199  0.72612  0.34068  1.0000
  N   N291      1.0  0.06968  0.75352  0.34022  1.0000
  C   C376      1.0  0.94501  0.72504  0.33567  1.0000
  N   N292      1.0  0.96125  0.72523  0.33381  1.0000
  C   C377      1.0  0.96994  0.75134  0.33548  1.0000
  N   N293      1.0  0.96193  0.77820  0.33969  1.0000
  C   C378      1.0  0.94571  0.77985  0.34094  1.0000
  N   N294      1.0  0.93774  0.75278  0.33895  1.0000
  C   C379      1.0  0.56176  0.53252  0.34210  1.0000
  N   N295      1.0  0.54554  0.53159  0.34360  1.0000
  C   C380      1.0  0.53714  0.50515  0.34265  1.0000
  N   N296      1.0  0.54545  0.97858  0.33963  1.0000
  C   C381      1.0  0.56171  0.97763  0.33954  1.0000
  N   N297      1.0  0.56936  0.50507  0.34061  1.0000
  C   C382      1.0  0.44483  0.97676  0.32516  1.0000
  N   N298      1.0  0.46105  0.97728  0.32451  1.0000
  C   C383      1.0  0.46963  0.00351  0.32633  1.0000
  N   N299      1.0  0.46149  0.53026  0.32994  1.0000
  C   C384      1.0  0.44525  0.53160  0.33009  1.0000
  N   N300      1.0  0.43741  0.00438  0.32762  1.0000
  N   N301      1.0  0.24332  0.62014  0.41738  1.0000
  C   C385      1.0  0.25893  0.61458  0.43567  1.0000
  C   C386      1.0  0.26242  0.60458  0.51550  1.0000
  N   N302      1.0  0.26555  0.59577  0.58591  1.0000
  N   N303      1.0  0.75975  0.85310  0.38497  1.0000
  C   C387      1.0  0.74386  0.85875  0.38078  1.0000
  C   C388      1.0  0.73440  0.83884  0.41661  1.0000
  N   N304      1.0  0.72632  0.82095  0.44922  1.0000
  C   C389      1.0  0.76876  0.63178  0.36055  1.0000
  C   C390      1.0  0.73605  0.62470  0.32729  1.0000
  N   N305      1.0  0.74155  0.63337  0.40908  1.0000
  C   C391      1.0  0.75720  0.63806  0.42788  1.0000
  C   C392      1.0  0.76074  0.64677  0.50899  1.0000
  N   N306      1.0  0.76392  0.65439  0.58053  1.0000
  C   C393      1.0  0.23688  0.87084  0.33835  1.0000
  C   C394      1.0  0.26965  0.88567  0.34809  1.0000
  N   N307      1.0  0.25785  0.90354  0.38318  1.0000
  C   C395      1.0  0.24194  0.89783  0.38052  1.0000
  C   C396      1.0  0.23253  0.91664  0.42178  1.0000
  N   N308      1.0  0.22425  0.93317  0.45887  1.0000
  C   C397      1.0  0.30173  0.97245  0.38684  1.0000
  C   C398      1.0  0.30329  0.53532  0.37670  1.0000
  N   N309      1.0  0.29140  0.52098  0.42197  1.0000
  C   C399      1.0  0.29005  0.99059  0.42967  1.0000
  C   C400      1.0  0.27802  0.98045  0.47602  1.0000
  N   N310      1.0  0.26741  0.97149  0.51700  1.0000
  C   C401      1.0  0.70552  0.53578  0.31953  1.0000
  C   C402      1.0  0.70755  0.97323  0.30331  1.0000
  N   N311      1.0  0.69443  0.98685  0.33847  1.0000
  C   C403      1.0  0.69263  0.51713  0.34677  1.0000
  C   C404      1.0  0.67962  0.52641  0.38578  1.0000
  N   N312      1.0  0.66818  0.53460  0.42064  1.0000
  C   C405      1.0  0.79973  0.72023  0.37664  1.0000
  C   C406      1.0  0.80238  0.78279  0.36210  1.0000
  N   N313      1.0  0.78926  0.76948  0.39831  1.0000
  C   C407      1.0  0.78728  0.73930  0.40741  1.0000
  C   C408      1.0  0.77402  0.73061  0.44470  1.0000
  N   N314      1.0  0.76225  0.72333  0.47787  1.0000
  C   C409      1.0  0.20571  0.78213  0.33172  1.0000
  C   C410      1.0  0.20785  0.71945  0.31621  1.0000
  N   N315      1.0  0.19459  0.73317  0.34962  1.0000
  C   C411      1.0  0.19276  0.76347  0.35777  1.0000
  C   C412      1.0  0.17957  0.77284  0.39459  1.0000
  N   N316      1.0  0.16797  0.78113  0.42755  1.0000
  N   N317      1.0  0.35054  0.66104  0.36007  1.0000
  C   C413      1.0  0.33463  0.65512  0.36560  1.0000
  C   C414      1.0  0.32621  0.67165  0.42011  1.0000
  N   N318      1.0  0.31876  0.68619  0.46845  1.0000
  N   N319      1.0  0.65754  0.85044  0.37572  1.0000
  C   C415      1.0  0.67350  0.85641  0.37547  1.0000
  C   C416      1.0  0.68239  0.84080  0.42981  1.0000
  N   N320      1.0  0.68995  0.82686  0.47906  1.0000
  C   C417      1.0  0.64517  0.64768  0.34324  1.0000
  C   C418      1.0  0.67666  0.62750  0.31803  1.0000
  N   N321      1.0  0.67325  0.65187  0.37063  1.0000
  C   C419      1.0  0.65826  0.66315  0.38297  1.0000
  C   C420      1.0  0.65672  0.68593  0.43757  1.0000
  N   N322      1.0  0.65534  0.70600  0.48604  1.0000
  C   C421      1.0  0.36078  0.86178  0.32633  1.0000
  C   C422      1.0  0.32895  0.88196  0.31626  1.0000
  N   N323      1.0  0.33307  0.85663  0.36288  1.0000
  C   C423      1.0  0.34817  0.84527  0.36737  1.0000
  C   C424      1.0  0.35026  0.82169  0.41825  1.0000
  N   N324      1.0  0.35207  0.80099  0.46388  1.0000
  N   N325      1.0  0.85923  0.87124  0.39600  1.0000
  C   C425      1.0  0.84438  0.86049  0.41050  1.0000
  C   C426      1.0  0.84357  0.83749  0.46513  1.0000
  N   N326      1.0  0.84287  0.81712  0.51297  1.0000
  N   N327      1.0  0.15689  0.60084  0.39606  1.0000
  C   C427      1.0  0.17284  0.60672  0.39681  1.0000
  C   C428      1.0  0.18133  0.59504  0.46116  1.0000
  N   N328      1.0  0.18879  0.58502  0.51864  1.0000
  C   C429      1.0  0.14575  0.89576  0.34797  1.0000
  C   C430      1.0  0.17721  0.87452  0.32689  1.0000
  N   N329      1.0  0.17381  0.89943  0.37733  1.0000
  C   C431      1.0  0.15886  0.91119  0.38762  1.0000
  C   C432      1.0  0.15735  0.93449  0.44028  1.0000
  N   N330      1.0  0.15602  0.95503  0.48702  1.0000
  C   C433      1.0  0.85974  0.61275  0.32986  1.0000
  C   C434      1.0  0.82758  0.62995  0.31758  1.0000
  N   N331      1.0  0.83231  0.60646  0.37026  1.0000
  C   C435      1.0  0.84764  0.59649  0.37618  1.0000
  C   C436      1.0  0.85044  0.57468  0.43271  1.0000
  N   N332      1.0  0.85296  0.55550  0.48288  1.0000
  C   C437      1.0  0.09228  0.64770  0.34210  1.0000
  C   C438      1.0  0.07080  0.69850  0.34006  1.0000
  N   N333      1.0  0.08688  0.70132  0.33657  1.0000
  C   C439      1.0  0.09766  0.67848  0.33661  1.0000
  C   C440      1.0  0.11228  0.68847  0.33505  1.0000
  N   N334      1.0  0.12506  0.69792  0.33430  1.0000
  C   C441      1.0  0.91632  0.85935  0.34428  1.0000
  C   C442      1.0  0.93719  0.80776  0.34315  1.0000
  N   N335      1.0  0.92107  0.80554  0.34636  1.0000
  C   C443      1.0  0.91055  0.82881  0.34771  1.0000
  C   C444      1.0  0.89579  0.81959  0.35075  1.0000
  N   N336      1.0  0.88285  0.81106  0.35340  1.0000
  N   N337      1.0  0.93002  0.64430  0.33248  1.0000
  C   C445      1.0  0.94105  0.66720  0.33379  1.0000
  C   C446      1.0  0.95591  0.65896  0.33767  1.0000
  N   N338      1.0  0.96896  0.65120  0.34232  1.0000
  N   N339      1.0  0.07596  0.86252  0.34520  1.0000
  C   C447      1.0  0.06528  0.83904  0.34407  1.0000
  C   C448      1.0  0.05030  0.84658  0.34315  1.0000
  N   N340      1.0  0.03714  0.85382  0.34088  1.0000
  C   C449      1.0  0.59223  0.89953  0.34385  1.0000
  C   C450      1.0  0.57060  0.95010  0.33986  1.0000
  N   N341      1.0  0.58668  0.95310  0.34400  1.0000
  C   C451      1.0  0.59753  0.93039  0.34576  1.0000
  C   C452      1.0  0.61204  0.94036  0.35603  1.0000
  N   N342      1.0  0.62470  0.94971  0.36652  1.0000
  C   C453      1.0  0.41520  0.61035  0.33355  1.0000
  C   C454      1.0  0.43654  0.55933  0.33214  1.0000
  N   N343      1.0  0.42044  0.55666  0.33531  1.0000
  C   C455      1.0  0.40973  0.57960  0.33623  1.0000
  C   C456      1.0  0.39517  0.56992  0.34683  1.0000
  N   N344      1.0  0.38249  0.56074  0.35800  1.0000
  N   N345      1.0  0.43068  0.89553  0.32668  1.0000
  C   C457      1.0  0.44145  0.91885  0.32671  1.0000
  C   C458      1.0  0.45637  0.91122  0.33326  1.0000
  N   N346      1.0  0.46950  0.90408  0.33991  1.0000
  N   N347      1.0  0.57544  0.61412  0.34449  1.0000
  C   C459      1.0  0.56480  0.59058  0.34368  1.0000
  C   C460      1.0  0.54981  0.59800  0.34296  1.0000
  N   N348      1.0  0.53663  0.60512  0.34101  1.0000
  C   C461      1.0  0.10789  0.53662  0.37618  1.0000
  C   C462      1.0  0.10563  0.97137  0.37132  1.0000
  N   N349      1.0  0.11898  0.98715  0.39269  1.0000
  C   C463      1.0  0.12100  0.51723  0.39809  1.0000
  C   C464      1.0  0.13537  0.52424  0.42459  1.0000
  N   N350      1.0  0.14809  0.52999  0.44773  1.0000
  C   C465      1.0  0.90232  0.97139  0.32272  1.0000
  C   C466      1.0  0.89905  0.53655  0.31925  1.0000
  N   N351      1.0  0.91339  0.52207  0.33257  1.0000
  C   C467      1.0  0.91565  0.99105  0.33335  1.0000
  C   C468      1.0  0.92983  0.98068  0.34966  1.0000
  N   N352      1.0  0.94239  0.97144  0.36398  1.0000
  C   C469      1.0  0.60802  0.78855  0.36880  1.0000
  C   C470      1.0  0.60536  0.72332  0.36648  1.0000
  N   N353      1.0  0.61890  0.73897  0.38492  1.0000
  C   C471      1.0  0.62114  0.76901  0.38871  1.0000
  C   C472      1.0  0.63568  0.77582  0.41272  1.0000
  N   N354      1.0  0.64853  0.78131  0.43395  1.0000
  C   C473      1.0  0.39940  0.72167  0.35365  1.0000
  C   C474      1.0  0.40133  0.78693  0.34830  1.0000
  N   N355      1.0  0.38801  0.77095  0.36877  1.0000
  C   C475      1.0  0.38615  0.74083  0.37426  1.0000
  C   C476      1.0  0.37186  0.73350  0.40132  1.0000
  N   N356      1.0  0.35922  0.72758  0.42551  1.0000
  N   N357      1.0  0.99459  0.77304  0.38249  1.0000
  C   C477      1.0  0.01069  0.77568  0.39009  1.0000
  C   C478      1.0  0.01590  0.79693  0.44295  1.0000
  N   N358      1.0  0.02037  0.81534  0.49130  1.0000
  N   N359      1.0  0.49422  0.52470  0.37629  1.0000
  C   C479      1.0  0.51031  0.52704  0.38529  1.0000
  C   C480      1.0  0.51547  0.54773  0.44021  1.0000
  N   N360      1.0  0.51992  0.56561  0.49038  1.0000
