data_image0
_chemical_formula_structural       C3NC2NH2CH2C3NC2NH2CH2C3NC2NH2CH2C3NC2NH2CH2C3NC2NH2CH2C3NC2NH2CH2C3H2C2HCH2CH3CH2C3H2C2HCH2CH3CH2C3H2C2HCH2CH3CH2C3H2C2HCH2CH3CH2C3H2C2HCH2CH3CH2C3H2C2HCH2CH3CH2C3NC2NCH3CH2C3NC2NCH3CH2C3NC2NCH3CH2C3NC2NCH3CH2C3NC2NCH3CH2C3NC2NCH3CH2C6H3NHNHNHC6H3NHNHNHC6H3NHNHNHC6H3NHNHNHC6H3NHNHNHC6H3NHNHNHC6H3NHNHNHC6H3NHNHNHC6H3NHNHNHC6H3NHNHNHC6H3NHNHNHC6H3NHNHNHC3H2C2HCH2CH3CH2C3H2C2HCH2CH3CH2C3H2C2HCH2CH3CH2C3H2C2HCH2CH3CH2C3H2C2HCH2CH3CH2C3H2C2HCH2CH3CH2C3NC2NH2CH2C3NC2NH2CH2C3NC2NH2CH2C3NC2NH2CH2C3NC2NH2CH2C3NC2NH2CH2C3H2C2H2CH3CH2C3H2C2H2CH3CH2C3H2C2H2CH3CH2C3H2C2H2CH3CH2C3H2C2H2CH3CH2C3H2C2H2CH3CH2
_chemical_formula_sum              "C324 N72 H324"
_cell_length_a       58.6637
_cell_length_b       58.6638
_cell_length_c       15.0246
_cell_angle_alpha    90
_cell_angle_beta     90
_cell_angle_gamma    120

_space_group_name_H-M_alt    "P 1"
_space_group_IT_number       1

loop_
  _space_group_symop_operation_xyz
  'x, y, z'

loop_
  _atom_site_type_symbol
  _atom_site_label
  _atom_site_symmetry_multiplicity
  _atom_site_fract_x
  _atom_site_fract_y
  _atom_site_fract_z
  _atom_site_occupancy
  C   C1        1.0  0.20988  0.44656  0.21676  1.0000
  C   C2        1.0  0.23264  0.44385  0.21866  1.0000
  C   C3        1.0  0.23859  0.43375  0.29533  1.0000
  N   N1        1.0  0.24822  0.45119  0.14493  1.0000
  C   C4        1.0  0.24309  0.46033  0.06889  1.0000
  C   C5        1.0  0.22029  0.46273  0.06650  1.0000
  N   N2        1.0  0.20490  0.45561  0.14014  1.0000
  H   H1        1.0  0.27958  0.48634  0.01129  1.0000
  H   H2        1.0  0.20571  0.48578  0.00879  1.0000
  C   C6        1.0  0.26384  0.43370  0.30656  1.0000
  H   H3        1.0  0.27704  0.44300  0.25004  1.0000
  H   H4        1.0  0.25914  0.41319  0.30906  1.0000
  C   C7        1.0  0.56992  0.78143  0.21673  1.0000
  C   C8        1.0  0.57264  0.80691  0.21861  1.0000
  C   C9        1.0  0.58276  0.82297  0.29525  1.0000
  N   N3        1.0  0.56530  0.81515  0.14488  1.0000
  C   C10       1.0  0.55615  0.80087  0.06885  1.0000
  C   C11       1.0  0.55374  0.77567  0.06648  1.0000
  N   N4        1.0  0.56086  0.76740  0.14012  1.0000
  H   H5        1.0  0.53015  0.81136  0.01121  1.0000
  H   H6        1.0  0.53067  0.73804  0.00880  1.0000
  C   C12       1.0  0.58280  0.84826  0.30650  1.0000
  H   H7        1.0  0.57349  0.85215  0.25002  1.0000
  H   H8        1.0  0.60331  0.86408  0.30896  1.0000
  C   C13       1.0  0.23506  0.80671  0.21668  1.0000
  C   C14       1.0  0.20960  0.78391  0.21863  1.0000
  C   C15       1.0  0.19354  0.77794  0.29529  1.0000
  N   N5        1.0  0.20136  0.76832  0.14495  1.0000
  C   C16       1.0  0.21563  0.77343  0.06890  1.0000
  C   C17       1.0  0.24083  0.79624  0.06647  1.0000
  N   N6        1.0  0.24908  0.81166  0.14006  1.0000
  H   H9        1.0  0.20514  0.73693  0.01138  1.0000
  H   H10       1.0  0.27845  0.81079  0.00878  1.0000
  C   C18       1.0  0.16826  0.75268  0.30652  1.0000
  H   H11       1.0  0.16437  0.73949  0.25000  1.0000
  H   H12       1.0  0.15243  0.75736  0.30903  1.0000
  C   C19       1.0  0.80001  0.57650  0.21674  1.0000
  C   C20       1.0  0.77725  0.57921  0.21863  1.0000
  C   C21       1.0  0.77130  0.58932  0.29529  1.0000
  N   N7        1.0  0.76167  0.57188  0.14491  1.0000
  C   C22       1.0  0.76679  0.56272  0.06887  1.0000
  C   C23       1.0  0.78959  0.56032  0.06648  1.0000
  N   N8        1.0  0.80498  0.56744  0.14012  1.0000
  H   H13       1.0  0.73030  0.53673  0.01127  1.0000
  H   H14       1.0  0.80415  0.53726  0.00880  1.0000
  C   C24       1.0  0.74606  0.58936  0.30654  1.0000
  H   H15       1.0  0.73286  0.58008  0.25000  1.0000
  H   H16       1.0  0.75075  0.60987  0.30912  1.0000
  C   C25       1.0  0.43997  0.24153  0.21694  1.0000
  C   C26       1.0  0.43726  0.21605  0.21883  1.0000
  C   C27       1.0  0.42714  0.19999  0.29548  1.0000
  N   N9        1.0  0.44459  0.20781  0.14509  1.0000
  C   C28       1.0  0.45374  0.22209  0.06905  1.0000
  C   C29       1.0  0.45614  0.24730  0.06669  1.0000
  N   N10       1.0  0.44902  0.25556  0.14034  1.0000
  H   H17       1.0  0.47974  0.21162  0.01141  1.0000
  H   H18       1.0  0.47918  0.28493  0.00902  1.0000
  C   C30       1.0  0.42711  0.17470  0.30678  1.0000
  H   H19       1.0  0.43643  0.17082  0.25033  1.0000
  H   H20       1.0  0.40660  0.15888  0.30925  1.0000
  C   C31       1.0  0.77486  0.21647  0.21674  1.0000
  C   C32       1.0  0.80034  0.23923  0.21861  1.0000
  C   C33       1.0  0.81640  0.24517  0.29526  1.0000
  N   N11       1.0  0.80858  0.25480  0.14488  1.0000
  C   C34       1.0  0.79430  0.24968  0.06885  1.0000
  C   C35       1.0  0.76910  0.22688  0.06648  1.0000
  N   N12       1.0  0.76083  0.21150  0.14013  1.0000
  H   H21       1.0  0.80479  0.28617  0.01121  1.0000
  H   H22       1.0  0.73147  0.21233  0.00882  1.0000
  C   C36       1.0  0.84169  0.27042  0.30650  1.0000
  H   H23       1.0  0.84559  0.28362  0.24998  1.0000
  H   H24       1.0  0.85750  0.26573  0.30906  1.0000
  C   C37       1.0  0.15315  0.61551  0.38111  1.0000
  C   C38       1.0  0.16539  0.58610  0.30475  1.0000
  C   C39       1.0  0.16391  0.60925  0.30712  1.0000
  H   H25       1.0  0.17000  0.62118  0.25217  1.0000
  H   H26       1.0  0.17249  0.58201  0.24841  1.0000
  C   C40       1.0  0.11998  0.54487  0.00914  1.0000
  C   C41       1.0  0.11635  0.55599  0.09850  1.0000
  H   H27       1.0  0.13408  0.53811  0.01966  1.0000
  C   C42       1.0  0.10362  0.57334  0.08469  1.0000
  H   H28       1.0  0.13556  0.56783  0.13007  1.0000
  H   H29       1.0  0.10405  0.53971  0.14313  1.0000
  C   C43       1.0  0.11990  0.59622  0.01888  1.0000
  H   H30       1.0  0.10211  0.58138  0.14863  1.0000
  H   H31       1.0  0.08369  0.56112  0.05854  1.0000
  H   H32       1.0  0.13725  0.61165  0.05285  1.0000
  C   C44       1.0  0.14986  0.63916  0.37186  1.0000
  H   H33       1.0  0.13966  0.63727  0.30880  1.0000
  H   H34       1.0  0.16963  0.65624  0.36649  1.0000
  C   C45       1.0  0.40097  0.55574  0.38109  1.0000
  C   C46       1.0  0.43040  0.59737  0.30466  1.0000
  C   C47       1.0  0.40723  0.57277  0.30712  1.0000
  H   H35       1.0  0.39528  0.56693  0.25217  1.0000
  H   H36       1.0  0.43446  0.60859  0.24840  1.0000
  C   C48       1.0  0.47162  0.59322  0.00909  1.0000
  C   C49       1.0  0.46050  0.57848  0.09846  1.0000
  H   H37       1.0  0.47838  0.61409  0.01959  1.0000
  C   C50       1.0  0.44315  0.54840  0.08467  1.0000
  H   H38       1.0  0.44865  0.58584  0.13002  1.0000
  H   H39       1.0  0.47678  0.58246  0.14310  1.0000
  C   C51       1.0  0.42028  0.54179  0.01885  1.0000
  H   H40       1.0  0.43511  0.53885  0.14862  1.0000
  H   H41       1.0  0.45538  0.54070  0.05854  1.0000
  H   H42       1.0  0.40484  0.54371  0.05281  1.0000
  C   C52       1.0  0.37732  0.52882  0.37187  1.0000
  H   H43       1.0  0.37919  0.52050  0.30878  1.0000
  H   H44       1.0  0.36023  0.53150  0.36660  1.0000
  C   C53       1.0  0.46079  0.86323  0.38123  1.0000
  C   C54       1.0  0.41907  0.85071  0.30494  1.0000
  C   C55       1.0  0.44375  0.85233  0.30734  1.0000
  H   H45       1.0  0.44962  0.84621  0.25251  1.0000
  H   H46       1.0  0.40786  0.84349  0.24866  1.0000
  C   C56       1.0  0.42321  0.89645  0.00882  1.0000
  C   C57       1.0  0.43797  0.90016  0.09820  1.0000
  H   H47       1.0  0.40235  0.88233  0.01939  1.0000
  C   C58       1.0  0.46805  0.91291  0.08441  1.0000
  H   H48       1.0  0.43063  0.88098  0.12999  1.0000
  H   H49       1.0  0.43399  0.91249  0.14265  1.0000
  C   C59       1.0  0.47469  0.89663  0.01874  1.0000
  H   H50       1.0  0.47761  0.91446  0.14839  1.0000
  H   H51       1.0  0.47574  0.93282  0.05817  1.0000
  H   H52       1.0  0.47279  0.87930  0.05281  1.0000
  C   C60       1.0  0.48775  0.86660  0.37200  1.0000
  H   H53       1.0  0.49604  0.87682  0.30895  1.0000
  H   H54       1.0  0.48513  0.84686  0.36662  1.0000
  C   C61       1.0  0.85677  0.40757  0.38105  1.0000
  C   C62       1.0  0.84454  0.43698  0.30467  1.0000
  C   C63       1.0  0.84599  0.41382  0.30709  1.0000
  H   H55       1.0  0.83989  0.40188  0.25215  1.0000
  H   H56       1.0  0.83739  0.44105  0.24841  1.0000
  C   C64       1.0  0.88991  0.47819  0.00911  1.0000
  C   C65       1.0  0.89353  0.46707  0.09847  1.0000
  H   H57       1.0  0.87580  0.48495  0.01962  1.0000
  C   C66       1.0  0.90627  0.44973  0.08467  1.0000
  H   H58       1.0  0.87432  0.45522  0.13002  1.0000
  H   H59       1.0  0.90582  0.48335  0.14312  1.0000
  C   C67       1.0  0.89001  0.42685  0.01884  1.0000
  H   H60       1.0  0.90778  0.44168  0.14862  1.0000
  H   H61       1.0  0.92620  0.46196  0.05855  1.0000
  H   H62       1.0  0.87266  0.41142  0.05279  1.0000
  C   C68       1.0  0.86003  0.38391  0.37185  1.0000
  H   H63       1.0  0.87021  0.38577  0.30875  1.0000
  H   H64       1.0  0.84026  0.36683  0.36658  1.0000
  C   C69       1.0  0.60890  0.46729  0.38106  1.0000
  C   C70       1.0  0.57949  0.42564  0.30470  1.0000
  C   C71       1.0  0.60264  0.45026  0.30708  1.0000
  H   H65       1.0  0.61457  0.45610  0.25211  1.0000
  H   H66       1.0  0.57540  0.41444  0.24837  1.0000
  C   C72       1.0  0.53828  0.42983  0.00911  1.0000
  C   C73       1.0  0.54940  0.44457  0.09846  1.0000
  H   H67       1.0  0.53151  0.40896  0.01963  1.0000
  C   C74       1.0  0.56675  0.47465  0.08465  1.0000
  H   H68       1.0  0.56124  0.43721  0.13003  1.0000
  H   H69       1.0  0.53312  0.44059  0.14311  1.0000
  C   C75       1.0  0.58962  0.48125  0.01883  1.0000
  H   H70       1.0  0.57479  0.48421  0.14859  1.0000
  H   H71       1.0  0.55452  0.48235  0.05851  1.0000
  H   H72       1.0  0.60505  0.47934  0.05279  1.0000
  C   C76       1.0  0.63255  0.49422  0.37181  1.0000
  H   H73       1.0  0.63067  0.50253  0.30874  1.0000
  H   H74       1.0  0.64964  0.49154  0.36648  1.0000
  C   C77       1.0  0.54926  0.15982  0.38125  1.0000
  C   C78       1.0  0.59085  0.17196  0.30469  1.0000
  C   C79       1.0  0.56627  0.17056  0.30721  1.0000
  H   H75       1.0  0.56042  0.17666  0.25228  1.0000
  H   H76       1.0  0.60207  0.17910  0.24840  1.0000
  C   C80       1.0  0.58668  0.12653  0.00910  1.0000
  C   C81       1.0  0.57194  0.12291  0.09847  1.0000
  H   H77       1.0  0.60755  0.14061  0.01963  1.0000
  C   C82       1.0  0.54186  0.11021  0.08466  1.0000
  H   H78       1.0  0.57932  0.14211  0.13007  1.0000
  H   H79       1.0  0.57590  0.11059  0.14308  1.0000
  C   C83       1.0  0.53528  0.12651  0.01891  1.0000
  H   H80       1.0  0.53231  0.10869  0.14862  1.0000
  H   H81       1.0  0.53414  0.09029  0.05847  1.0000
  H   H82       1.0  0.53721  0.14386  0.05293  1.0000
  C   C84       1.0  0.52234  0.15656  0.37213  1.0000
  H   H83       1.0  0.51399  0.14635  0.30911  1.0000
  H   H84       1.0  0.52502  0.17633  0.36681  1.0000
  C   C85       1.0  0.01838  0.39073  0.23199  1.0000
  C   C86       1.0  0.99141  0.37095  0.24005  1.0000
  C   C87       1.0  0.97717  0.36813  0.31939  1.0000
  N   N13       1.0  0.97952  0.35499  0.16892  1.0000
  C   C88       1.0  0.99165  0.35683  0.09018  1.0000
  C   C89       1.0  0.01843  0.37640  0.08176  1.0000
  N   N14       1.0  0.03022  0.39237  0.15262  1.0000
  C   C90       1.0  0.97675  0.33810  0.01773  1.0000
  H   H85       1.0  0.95714  0.33588  0.01302  1.0000
  H   H86       1.0  0.97439  0.31894  0.03501  1.0000
  H   H87       1.0  0.05305  0.38318  0.01556  1.0000
  C   C91       1.0  0.94861  0.34806  0.32539  1.0000
  H   H88       1.0  0.94583  0.32862  0.30955  1.0000
  H   H89       1.0  0.93857  0.35304  0.27402  1.0000
  C   C92       1.0  0.62576  0.64577  0.23203  1.0000
  C   C93       1.0  0.64553  0.63857  0.24007  1.0000
  C   C94       1.0  0.64835  0.62715  0.31940  1.0000
  N   N15       1.0  0.66149  0.64264  0.16893  1.0000
  C   C95       1.0  0.65965  0.65293  0.09020  1.0000
  C   C96       1.0  0.64009  0.66015  0.08179  1.0000
  N   N16       1.0  0.62412  0.65597  0.15265  1.0000
  C   C97       1.0  0.67837  0.65675  0.01774  1.0000
  H   H90       1.0  0.68059  0.63936  0.01302  1.0000
  H   H91       1.0  0.69754  0.67355  0.03500  1.0000
  H   H92       1.0  0.63332  0.68800  0.01561  1.0000
  C   C98       1.0  0.66841  0.61864  0.32539  1.0000
  H   H93       1.0  0.68785  0.63530  0.30955  1.0000
  H   H94       1.0  0.66343  0.60363  0.27402  1.0000
  C   C99       1.0  0.37259  0.99847  0.23083  1.0000
  C   C100      1.0  0.37948  0.02535  0.23905  1.0000
  C   C101      1.0  0.39097  0.03965  0.31823  1.0000
  N   N17       1.0  0.37491  0.03704  0.16840  1.0000
  C   C102      1.0  0.36433  0.02477  0.09008  1.0000
  C   C103      1.0  0.35724  0.99802  0.08175  1.0000
  N   N18       1.0  0.36199  0.98645  0.15200  1.0000
  C   C104      1.0  0.36016  0.03950  0.01784  1.0000
  H   H95       1.0  0.37747  0.05915  0.01255  1.0000
  H   H96       1.0  0.34336  0.04178  0.03581  1.0000
  H   H97       1.0  0.32893  0.96331  0.01728  1.0000
  C   C105      1.0  0.39852  0.06795  0.32511  1.0000
  H   H98       1.0  0.38145  0.07007  0.30947  1.0000
  H   H99       1.0  0.41345  0.07850  0.27392  1.0000
  C   C106      1.0  0.99152  0.63235  0.23208  1.0000
  C   C107      1.0  0.01850  0.65212  0.24011  1.0000
  C   C108      1.0  0.03273  0.65494  0.31945  1.0000
  N   N19       1.0  0.03038  0.66808  0.16898  1.0000
  C   C109      1.0  0.01825  0.66624  0.09025  1.0000
  C   C110      1.0  0.99147  0.64667  0.08184  1.0000
  N   N20       1.0  0.97968  0.63070  0.15270  1.0000
  C   C111      1.0  0.03315  0.68496  0.01780  1.0000
  H   H100      1.0  0.05276  0.68718  0.01307  1.0000
  H   H101      1.0  0.03552  0.70412  0.03508  1.0000
  H   H102      1.0  0.95686  0.63990  0.01566  1.0000
  C   C112      1.0  0.06130  0.67500  0.32544  1.0000
  H   H103      1.0  0.06408  0.69444  0.30958  1.0000
  H   H104      1.0  0.07134  0.67003  0.27407  1.0000
  C   C113      1.0  0.38414  0.37728  0.23198  1.0000
  C   C114      1.0  0.36437  0.38448  0.24001  1.0000
  C   C115      1.0  0.36155  0.39590  0.31935  1.0000
  N   N21       1.0  0.34841  0.38041  0.16888  1.0000
  C   C116      1.0  0.35026  0.37012  0.09015  1.0000
  C   C117      1.0  0.36982  0.36290  0.08174  1.0000
  N   N22       1.0  0.38578  0.36708  0.15260  1.0000
  C   C118      1.0  0.33153  0.36630  0.01770  1.0000
  H   H105      1.0  0.32931  0.38369  0.01298  1.0000
  H   H106      1.0  0.31237  0.34950  0.03497  1.0000
  H   H107      1.0  0.37659  0.33506  0.01554  1.0000
  C   C119      1.0  0.34149  0.40441  0.32533  1.0000
  H   H108      1.0  0.32205  0.38775  0.30947  1.0000
  H   H109      1.0  0.34647  0.41942  0.27398  1.0000
  C   C120      1.0  0.63920  0.02496  0.23203  1.0000
  C   C121      1.0  0.63200  0.99799  0.24005  1.0000
  C   C122      1.0  0.62059  0.98375  0.31940  1.0000
  N   N23       1.0  0.63607  0.98610  0.16892  1.0000
  C   C123      1.0  0.64636  0.99824  0.09019  1.0000
  C   C124      1.0  0.65358  0.02502  0.08179  1.0000
  N   N24       1.0  0.64940  0.03681  0.15265  1.0000
  C   C125      1.0  0.65018  0.98333  0.01772  1.0000
  H   H110      1.0  0.63279  0.96373  0.01300  1.0000
  H   H111      1.0  0.66697  0.98097  0.03499  1.0000
  H   H112      1.0  0.68142  0.05964  0.01561  1.0000
  C   C126      1.0  0.61209  0.95519  0.32539  1.0000
  H   H113      1.0  0.62875  0.95241  0.30947  1.0000
  H   H114      1.0  0.59706  0.94515  0.27406  1.0000
  C   C127      1.0  0.13446  0.50221  0.26623  1.0000
  C   C128      1.0  0.10852  0.48127  0.25205  1.0000
  C   C129      1.0  0.10305  0.45527  0.23664  1.0000
  C   C130      1.0  0.12446  0.45066  0.23137  1.0000
  C   C131      1.0  0.15059  0.47096  0.24543  1.0000
  C   C132      1.0  0.15527  0.49673  0.26119  1.0000
  H   H115      1.0  0.12090  0.43212  0.21721  1.0000
  H   H116      1.0  0.17421  0.51180  0.26809  1.0000
  H   H117      1.0  0.09327  0.48502  0.25283  1.0000
  N   N25       1.0  0.13991  0.52852  0.27945  1.0000
  H   H118      1.0  0.12279  0.52927  0.27625  1.0000
  N   N26       1.0  0.17149  0.46542  0.23736  1.0000
  H   H119      1.0  0.18935  0.48251  0.24210  1.0000
  N   N27       1.0  0.07653  0.43454  0.22540  1.0000
  H   H120      1.0  0.07648  0.41768  0.20698  1.0000
  C   C133      1.0  0.51428  0.65037  0.26619  1.0000
  C   C134      1.0  0.53523  0.64537  0.25205  1.0000
  C   C135      1.0  0.56122  0.66591  0.23666  1.0000
  C   C136      1.0  0.56583  0.69192  0.23139  1.0000
  C   C137      1.0  0.54552  0.69775  0.24541  1.0000
  C   C138      1.0  0.51975  0.67666  0.26113  1.0000
  H   H121      1.0  0.58437  0.70691  0.21724  1.0000
  H   H122      1.0  0.50467  0.68051  0.26805  1.0000
  H   H123      1.0  0.53148  0.62637  0.25284  1.0000
  N   N28       1.0  0.48797  0.62950  0.27942  1.0000
  H   H124      1.0  0.48723  0.61164  0.27624  1.0000
  N   N29       1.0  0.55105  0.72418  0.23734  1.0000
  H   H125      1.0  0.53396  0.72495  0.24205  1.0000
  N   N30       1.0  0.58195  0.66012  0.22544  1.0000
  H   H126      1.0  0.59882  0.67693  0.20703  1.0000
  C   C139      1.0  0.36614  0.88155  0.26553  1.0000
  C   C140      1.0  0.37147  0.90758  0.25106  1.0000
  C   C141      1.0  0.35114  0.91343  0.23700  1.0000
  C   C142      1.0  0.32497  0.89224  0.23253  1.0000
  C   C143      1.0  0.31884  0.86598  0.24595  1.0000
  C   C144      1.0  0.33973  0.86097  0.26123  1.0000
  H   H127      1.0  0.31011  0.89603  0.21887  1.0000
  H   H128      1.0  0.33567  0.84196  0.26807  1.0000
  H   H129      1.0  0.39057  0.92261  0.25092  1.0000
  N   N31       1.0  0.38680  0.87581  0.27844  1.0000
  H   H130      1.0  0.40476  0.89277  0.27410  1.0000
  N   N32       1.0  0.29233  0.84523  0.23736  1.0000
  H   H131      1.0  0.29142  0.82730  0.24156  1.0000
  N   N33       1.0  0.35733  0.94008  0.22566  1.0000
  H   H132      1.0  0.34044  0.94044  0.21066  1.0000
  C   C145      1.0  0.87544  0.52087  0.26624  1.0000
  C   C146      1.0  0.90139  0.54181  0.25210  1.0000
  C   C147      1.0  0.90685  0.56781  0.23671  1.0000
  C   C148      1.0  0.88544  0.57242  0.23140  1.0000
  C   C149      1.0  0.85930  0.55211  0.24538  1.0000
  C   C150      1.0  0.85462  0.52634  0.26114  1.0000
  H   H133      1.0  0.88899  0.59096  0.21725  1.0000
  H   H134      1.0  0.83569  0.51126  0.26803  1.0000
  H   H135      1.0  0.91663  0.53806  0.25290  1.0000
  N   N34       1.0  0.87000  0.49456  0.27945  1.0000
  H   H136      1.0  0.88712  0.49382  0.27628  1.0000
  N   N35       1.0  0.83840  0.55765  0.23731  1.0000
  H   H137      1.0  0.82054  0.54055  0.24199  1.0000
  N   N36       1.0  0.93337  0.58854  0.22550  1.0000
  H   H138      1.0  0.93342  0.60541  0.20708  1.0000
  C   C151      1.0  0.49559  0.37261  0.26624  1.0000
  C   C152      1.0  0.47465  0.37762  0.25206  1.0000
  C   C153      1.0  0.44865  0.35708  0.23674  1.0000
  C   C154      1.0  0.44403  0.33106  0.23154  1.0000
  C   C155      1.0  0.46434  0.32523  0.24556  1.0000
  C   C156      1.0  0.49011  0.34632  0.26126  1.0000
  H   H139      1.0  0.42549  0.31607  0.21743  1.0000
  H   H140      1.0  0.50519  0.34247  0.26817  1.0000
  H   H141      1.0  0.47840  0.39662  0.25278  1.0000
  N   N37       1.0  0.52190  0.39349  0.27941  1.0000
  H   H142      1.0  0.52265  0.41135  0.27612  1.0000
  N   N38       1.0  0.45881  0.29879  0.23750  1.0000
  H   H143      1.0  0.47590  0.29803  0.24220  1.0000
  N   N39       1.0  0.42792  0.36288  0.22547  1.0000
  H   H144      1.0  0.41105  0.34607  0.20711  1.0000
  C   C157      1.0  0.64381  0.14104  0.26612  1.0000
  C   C158      1.0  0.63880  0.11509  0.25201  1.0000
  C   C159      1.0  0.65935  0.10963  0.23666  1.0000
  C   C160      1.0  0.68536  0.13104  0.23137  1.0000
  C   C161      1.0  0.69118  0.15718  0.24538  1.0000
  C   C162      1.0  0.67010  0.16185  0.26106  1.0000
  H   H145      1.0  0.70035  0.12749  0.21726  1.0000
  H   H146      1.0  0.67395  0.18079  0.26794  1.0000
  H   H147      1.0  0.61981  0.09984  0.25282  1.0000
  N   N40       1.0  0.62294  0.14647  0.27938  1.0000
  H   H148      1.0  0.60508  0.12935  0.27625  1.0000
  N   N41       1.0  0.71762  0.17807  0.23730  1.0000
  H   H149      1.0  0.71838  0.19593  0.24197  1.0000
  N   N42       1.0  0.65355  0.08311  0.22546  1.0000
  H   H150      1.0  0.67037  0.08306  0.20707  1.0000
  C   C163      1.0  0.47657  0.13699  0.42768  1.0000
  C   C164      1.0  0.45488  0.11104  0.42756  1.0000
  C   C165      1.0  0.42904  0.10609  0.41560  1.0000
  C   C166      1.0  0.42452  0.12731  0.40332  1.0000
  C   C167      1.0  0.44570  0.15348  0.40191  1.0000
  C   C168      1.0  0.47148  0.15795  0.41662  1.0000
  H   H151      1.0  0.40564  0.12352  0.39537  1.0000
  H   H152      1.0  0.48685  0.17685  0.41926  1.0000
  H   H153      1.0  0.45788  0.09543  0.43624  1.0000
  N   N43       1.0  0.50269  0.14201  0.44341  1.0000
  H   H154      1.0  0.50213  0.12437  0.45192  1.0000
  N   N44       1.0  0.44073  0.17469  0.39066  1.0000
  H   H155      1.0  0.45805  0.19233  0.39506  1.0000
  N   N45       1.0  0.40864  0.07969  0.41423  1.0000
  H   H156      1.0  0.39372  0.07662  0.45708  1.0000
  C   C169      1.0  0.65881  0.54002  0.42701  1.0000
  C   C170      1.0  0.65462  0.56176  0.42667  1.0000
  C   C171      1.0  0.67558  0.58759  0.41475  1.0000
  C   C172      1.0  0.70128  0.59202  0.40272  1.0000
  C   C173      1.0  0.70620  0.57080  0.40141  1.0000
  C   C174      1.0  0.68484  0.54504  0.41611  1.0000
  H   H157      1.0  0.71643  0.61089  0.39500  1.0000
  H   H158      1.0  0.68833  0.52965  0.41895  1.0000
  H   H159      1.0  0.63604  0.55882  0.43540  1.0000
  N   N46       1.0  0.63768  0.51392  0.44295  1.0000
  H   H160      1.0  0.62061  0.51450  0.45146  1.0000
  N   N47       1.0  0.73237  0.57570  0.39031  1.0000
  H   H161      1.0  0.73263  0.55835  0.39456  1.0000
  N   N48       1.0  0.66971  0.60810  0.41405  1.0000
  H   H162      1.0  0.68157  0.62284  0.45746  1.0000
  C   C175      1.0  0.87959  0.35766  0.42705  1.0000
  C   C176      1.0  0.90551  0.36185  0.42669  1.0000
  C   C177      1.0  0.91039  0.34089  0.41475  1.0000
  C   C178      1.0  0.88911  0.31519  0.40271  1.0000
  C   C179      1.0  0.86297  0.31027  0.40141  1.0000
  C   C180      1.0  0.85857  0.33162  0.41613  1.0000
  H   H163      1.0  0.89284  0.30004  0.39498  1.0000
  H   H164      1.0  0.83969  0.32814  0.41896  1.0000
  H   H165      1.0  0.92116  0.38043  0.43542  1.0000
  N   N49       1.0  0.87462  0.37878  0.44297  1.0000
  H   H166      1.0  0.89227  0.39586  0.45145  1.0000
  N   N50       1.0  0.84170  0.28410  0.39029  1.0000
  H   H167      1.0  0.82409  0.28384  0.39455  1.0000
  N   N51       1.0  0.93676  0.34676  0.41405  1.0000
  H   H168      1.0  0.93964  0.33490  0.45745  1.0000
  C   C181      1.0  0.53352  0.88618  0.42729  1.0000
  C   C182      1.0  0.55526  0.91211  0.42685  1.0000
  C   C183      1.0  0.58108  0.91698  0.41484  1.0000
  C   C184      1.0  0.58551  0.89571  0.40276  1.0000
  C   C185      1.0  0.56429  0.86956  0.40154  1.0000
  C   C186      1.0  0.53854  0.86516  0.41637  1.0000
  H   H169      1.0  0.60438  0.89943  0.39494  1.0000
  H   H170      1.0  0.52315  0.84628  0.41926  1.0000
  H   H171      1.0  0.55231  0.92775  0.43558  1.0000
  N   N52       1.0  0.50742  0.88120  0.44318  1.0000
  H   H172      1.0  0.50799  0.89885  0.45161  1.0000
  N   N53       1.0  0.56918  0.84829  0.39035  1.0000
  H   H173      1.0  0.55183  0.83068  0.39468  1.0000
  N   N54       1.0  0.60158  0.94335  0.41408  1.0000
  H   H174      1.0  0.61634  0.94624  0.45742  1.0000
  C   C187      1.0  0.35107  0.48301  0.42706  1.0000
  C   C188      1.0  0.35526  0.46127  0.42667  1.0000
  C   C189      1.0  0.33431  0.43545  0.41472  1.0000
  C   C190      1.0  0.30860  0.43101  0.40271  1.0000
  C   C191      1.0  0.30368  0.45224  0.40147  1.0000
  C   C192      1.0  0.32504  0.47799  0.41618  1.0000
  H   H175      1.0  0.29345  0.41214  0.39496  1.0000
  H   H176      1.0  0.32155  0.49339  0.41904  1.0000
  H   H177      1.0  0.37385  0.46422  0.43539  1.0000
  N   N55       1.0  0.37220  0.50911  0.44299  1.0000
  H   H178      1.0  0.38927  0.50853  0.45147  1.0000
  N   N56       1.0  0.27751  0.44734  0.39036  1.0000
  H   H179      1.0  0.27725  0.46469  0.39468  1.0000
  N   N57       1.0  0.34018  0.41494  0.41400  1.0000
  H   H180      1.0  0.32832  0.40020  0.45740  1.0000
  C   C193      1.0  0.13034  0.66543  0.42706  1.0000
  C   C194      1.0  0.10441  0.66124  0.42673  1.0000
  C   C195      1.0  0.09953  0.68219  0.41478  1.0000
  C   C196      1.0  0.12081  0.70790  0.40271  1.0000
  C   C197      1.0  0.14695  0.71282  0.40141  1.0000
  C   C198      1.0  0.15135  0.69146  0.41612  1.0000
  H   H181      1.0  0.11708  0.72305  0.39496  1.0000
  H   H182      1.0  0.17023  0.69495  0.41894  1.0000
  H   H183      1.0  0.08877  0.64266  0.43548  1.0000
  N   N58       1.0  0.13531  0.64430  0.44300  1.0000
  H   H184      1.0  0.11765  0.62723  0.45155  1.0000
  N   N59       1.0  0.16822  0.73899  0.39030  1.0000
  H   H185      1.0  0.18584  0.73926  0.39459  1.0000
  N   N60       1.0  0.07316  0.67632  0.41409  1.0000
  H   H186      1.0  0.07028  0.68818  0.45749  1.0000
  C   C199      1.0  0.19346  0.44038  0.29289  1.0000
  C   C200      1.0  0.22036  0.42461  0.36631  1.0000
  C   C201      1.0  0.19845  0.42823  0.36566  1.0000
  H   H187      1.0  0.18671  0.42288  0.42102  1.0000
  H   H188      1.0  0.22386  0.41680  0.42209  1.0000
  C   C202      1.0  0.26171  0.46814  0.65983  1.0000
  C   C203      1.0  0.25064  0.47234  0.57130  1.0000
  H   H189      1.0  0.26705  0.45297  0.64901  1.0000
  C   C204      1.0  0.23518  0.48703  0.58608  1.0000
  H   H190      1.0  0.23750  0.45320  0.54119  1.0000
  H   H191      1.0  0.26684  0.48356  0.52511  1.0000
  C   C205      1.0  0.21252  0.47237  0.65411  1.0000
  H   H192      1.0  0.22708  0.48890  0.52274  1.0000
  H   H193      1.0  0.24870  0.50687  0.61068  1.0000
  H   H194      1.0  0.19605  0.45547  0.62179  1.0000
  C   C206      1.0  0.17155  0.44627  0.30238  1.0000
  H   H195      1.0  0.17245  0.45419  0.36919  1.0000
  H   H196      1.0  0.15321  0.42748  0.29749  1.0000
  C   C207      1.0  0.57609  0.77119  0.29287  1.0000
  C   C208      1.0  0.59188  0.81387  0.36626  1.0000
  C   C209      1.0  0.58827  0.78834  0.36560  1.0000
  H   H197      1.0  0.59359  0.78194  0.42100  1.0000
  H   H198      1.0  0.59970  0.82518  0.42201  1.0000
  C   C210      1.0  0.54835  0.81169  0.65977  1.0000
  C   C211      1.0  0.54415  0.79641  0.57126  1.0000
  H   H199      1.0  0.56353  0.83220  0.64894  1.0000
  C   C212      1.0  0.52944  0.76626  0.58605  1.0000
  H   H200      1.0  0.56328  0.80240  0.54116  1.0000
  H   H201      1.0  0.53293  0.80140  0.52505  1.0000
  C   C213      1.0  0.54409  0.75825  0.65410  1.0000
  H   H202      1.0  0.52757  0.75628  0.52271  1.0000
  H   H203      1.0  0.50960  0.75995  0.61064  1.0000
  H   H204      1.0  0.56098  0.75867  0.62179  1.0000
  C   C214      1.0  0.57019  0.74339  0.30240  1.0000
  H   H205      1.0  0.56225  0.73638  0.36919  1.0000
  H   H206      1.0  0.58898  0.74383  0.29759  1.0000
  C   C215      1.0  0.24528  0.82316  0.29275  1.0000
  C   C216      1.0  0.20262  0.79619  0.36624  1.0000
  C   C217      1.0  0.22812  0.81813  0.36553  1.0000
  H   H207      1.0  0.23451  0.82986  0.42093  1.0000
  H   H208      1.0  0.19133  0.79265  0.42208  1.0000
  C   C218      1.0  0.20481  0.75480  0.65988  1.0000
  C   C219      1.0  0.22008  0.76586  0.57134  1.0000
  H   H209      1.0  0.18430  0.74946  0.64907  1.0000
  C   C220      1.0  0.25023  0.78131  0.58610  1.0000
  H   H210      1.0  0.21408  0.77899  0.54119  1.0000
  H   H211      1.0  0.21509  0.74964  0.52517  1.0000
  C   C221      1.0  0.25823  0.80398  0.65408  1.0000
  H   H212      1.0  0.26020  0.78939  0.52275  1.0000
  H   H213      1.0  0.25654  0.76779  0.61074  1.0000
  H   H214      1.0  0.25782  0.82045  0.62170  1.0000
  C   C222      1.0  0.27308  0.84511  0.30230  1.0000
  H   H215      1.0  0.28008  0.84420  0.36911  1.0000
  H   H216      1.0  0.27263  0.86345  0.29739  1.0000
  C   C223      1.0  0.81643  0.58268  0.29286  1.0000
  C   C224      1.0  0.78952  0.59843  0.36632  1.0000
  C   C225      1.0  0.81145  0.59485  0.36560  1.0000
  H   H217      1.0  0.82318  0.60017  0.42101  1.0000
  H   H218      1.0  0.78603  0.60626  0.42206  1.0000
  C   C226      1.0  0.74818  0.55493  0.65980  1.0000
  C   C227      1.0  0.75925  0.55072  0.57128  1.0000
  H   H219      1.0  0.74284  0.57010  0.64897  1.0000
  C   C228      1.0  0.77469  0.53602  0.58607  1.0000
  H   H220      1.0  0.77239  0.56986  0.54117  1.0000
  H   H221      1.0  0.74304  0.53950  0.52508  1.0000
  C   C229      1.0  0.79735  0.55067  0.65410  1.0000
  H   H222      1.0  0.78279  0.53414  0.52273  1.0000
  H   H223      1.0  0.76117  0.51618  0.61067  1.0000
  H   H224      1.0  0.81383  0.56757  0.62177  1.0000
  C   C230      1.0  0.83833  0.57677  0.30238  1.0000
  H   H225      1.0  0.83740  0.56883  0.36916  1.0000
  H   H226      1.0  0.85668  0.59556  0.29760  1.0000
  C   C231      1.0  0.43379  0.25177  0.29306  1.0000
  C   C232      1.0  0.41800  0.20909  0.36645  1.0000
  C   C233      1.0  0.42163  0.23462  0.36581  1.0000
  H   H227      1.0  0.41628  0.24102  0.42116  1.0000
  H   H228      1.0  0.41018  0.19779  0.42223  1.0000
  C   C234      1.0  0.46154  0.21129  0.65996  1.0000
  C   C235      1.0  0.46575  0.22657  0.57145  1.0000
  H   H229      1.0  0.44637  0.19078  0.64911  1.0000
  C   C236      1.0  0.48044  0.25672  0.58626  1.0000
  H   H230      1.0  0.44661  0.22058  0.54134  1.0000
  H   H231      1.0  0.47697  0.22160  0.52526  1.0000
  C   C237      1.0  0.46578  0.26471  0.65432  1.0000
  H   H232      1.0  0.48231  0.26670  0.52294  1.0000
  H   H233      1.0  0.50028  0.26304  0.61086  1.0000
  H   H234      1.0  0.44887  0.26428  0.62201  1.0000
  C   C238      1.0  0.43968  0.27957  0.30254  1.0000
  H   H235      1.0  0.44760  0.28660  0.36933  1.0000
  H   H236      1.0  0.42088  0.27912  0.29769  1.0000
  C   C239      1.0  0.76462  0.20006  0.29287  1.0000
  C   C240      1.0  0.80729  0.22695  0.36628  1.0000
  C   C241      1.0  0.78177  0.20504  0.36561  1.0000
  H   H237      1.0  0.77537  0.19331  0.42102  1.0000
  H   H238      1.0  0.81861  0.23045  0.42203  1.0000
  C   C242      1.0  0.80512  0.26829  0.65977  1.0000
  C   C243      1.0  0.78984  0.25721  0.57126  1.0000
  H   H239      1.0  0.82563  0.27362  0.64894  1.0000
  C   C244      1.0  0.75969  0.24177  0.58606  1.0000
  H   H240      1.0  0.79582  0.24406  0.54116  1.0000
  H   H241      1.0  0.79483  0.27342  0.52504  1.0000
  C   C245      1.0  0.75168  0.21912  0.65411  1.0000
  H   H242      1.0  0.74971  0.23367  0.52273  1.0000
  H   H243      1.0  0.75338  0.25531  0.61064  1.0000
  H   H244      1.0  0.75209  0.20264  0.62180  1.0000
  C   C246      1.0  0.73682  0.17816  0.30241  1.0000
  H   H245      1.0  0.72980  0.17909  0.36918  1.0000
  H   H246      1.0  0.73726  0.15981  0.29765  1.0000
  C   C247      1.0  0.14562  0.59848  0.45612  1.0000
  C   C248      1.0  0.14615  0.57450  0.45236  1.0000
  C   C249      1.0  0.15531  0.56771  0.37513  1.0000
  N   N61       1.0  0.13768  0.55849  0.52500  1.0000
  C   C250      1.0  0.12923  0.56411  0.60163  1.0000
  C   C251      1.0  0.12887  0.58800  0.60589  1.0000
  N   N62       1.0  0.13723  0.60389  0.53340  1.0000
  H   H247      1.0  0.10124  0.52788  0.65608  1.0000
  H   H248      1.0  0.10777  0.60459  0.66468  1.0000
  C   C252      1.0  0.15387  0.54173  0.36335  1.0000
  H   H249      1.0  0.14405  0.52860  0.41959  1.0000
  H   H250      1.0  0.17403  0.54539  0.36093  1.0000
  C   C253      1.0  0.41801  0.56524  0.45608  1.0000
  C   C254      1.0  0.44199  0.58975  0.45232  1.0000
  C   C255      1.0  0.44878  0.60570  0.37508  1.0000
  N   N63       1.0  0.45800  0.59730  0.52494  1.0000
  C   C256      1.0  0.45238  0.58323  0.60158  1.0000
  C   C257      1.0  0.42850  0.55899  0.60585  1.0000
  N   N64       1.0  0.41260  0.55144  0.53337  1.0000
  H   H251      1.0  0.48861  0.59146  0.65605  1.0000
  H   H252      1.0  0.41190  0.52129  0.66467  1.0000
  C   C258      1.0  0.47475  0.63024  0.36329  1.0000
  H   H253      1.0  0.48788  0.63357  0.41955  1.0000
  H   H254      1.0  0.47108  0.64675  0.36085  1.0000
  C   C259      1.0  0.45124  0.87076  0.45612  1.0000
  C   C260      1.0  0.42669  0.87013  0.45231  1.0000
  C   C261      1.0  0.41072  0.86081  0.37515  1.0000
  N   N65       1.0  0.41912  0.87862  0.52482  1.0000
  C   C262      1.0  0.43321  0.88718  0.60140  1.0000
  C   C263      1.0  0.45749  0.88760  0.60574  1.0000
  N   N66       1.0  0.46506  0.87924  0.53336  1.0000
  H   H255      1.0  0.42493  0.91517  0.65560  1.0000
  H   H256      1.0  0.49519  0.90877  0.66454  1.0000
  C   C264      1.0  0.38616  0.86220  0.36306  1.0000
  H   H257      1.0  0.38294  0.87224  0.41881  1.0000
  H   H258      1.0  0.36963  0.84203  0.36144  1.0000
  C   C265      1.0  0.86429  0.42460  0.45606  1.0000
  C   C266      1.0  0.86376  0.44857  0.45232  1.0000
  C   C267      1.0  0.85460  0.45536  0.37508  1.0000
  N   N67       1.0  0.87221  0.46458  0.52496  1.0000
  C   C268      1.0  0.88067  0.45896  0.60159  1.0000
  C   C269      1.0  0.88103  0.43507  0.60585  1.0000
  N   N68       1.0  0.87268  0.41918  0.53336  1.0000
  H   H259      1.0  0.90865  0.49519  0.65609  1.0000
  H   H260      1.0  0.90214  0.41849  0.66465  1.0000
  C   C270      1.0  0.85603  0.48133  0.36331  1.0000
  H   H261      1.0  0.86582  0.49446  0.41957  1.0000
  H   H262      1.0  0.83586  0.47767  0.36085  1.0000
  C   C271      1.0  0.59187  0.45779  0.45606  1.0000
  C   C272      1.0  0.56789  0.43328  0.45232  1.0000
  C   C273      1.0  0.56110  0.41733  0.37509  1.0000
  N   N69       1.0  0.55188  0.42573  0.52496  1.0000
  C   C274      1.0  0.55751  0.43981  0.60159  1.0000
  C   C275      1.0  0.58140  0.46405  0.60584  1.0000
  N   N70       1.0  0.59729  0.47159  0.53335  1.0000
  H   H263      1.0  0.52128  0.43158  0.65607  1.0000
  H   H264      1.0  0.59800  0.50176  0.66463  1.0000
  C   C276      1.0  0.53513  0.39278  0.36333  1.0000
  H   H265      1.0  0.52199  0.38947  0.41956  1.0000
  H   H266      1.0  0.53879  0.37627  0.36098  1.0000
  C   C277      1.0  0.55877  0.15227  0.45621  1.0000
  C   C278      1.0  0.58325  0.15276  0.45238  1.0000
  C   C279      1.0  0.59918  0.16190  0.37510  1.0000
  N   N71       1.0  0.59079  0.14427  0.52498  1.0000
  C   C280      1.0  0.57672  0.13582  0.60163  1.0000
  C   C281      1.0  0.55250  0.13551  0.60595  1.0000
  N   N72       1.0  0.54498  0.14390  0.53352  1.0000
  H   H267      1.0  0.58490  0.10778  0.65601  1.0000
  H   H268      1.0  0.51478  0.11440  0.66466  1.0000
  C   C282      1.0  0.62371  0.16045  0.36327  1.0000
  H   H269      1.0  0.62703  0.15064  0.41951  1.0000
  H   H270      1.0  0.64022  0.18061  0.36081  1.0000
  C   C283      1.0  0.03191  0.40760  0.30481  1.0000
  C   C284      1.0  0.99058  0.38583  0.38971  1.0000
  C   C285      1.0  0.01737  0.40464  0.38328  1.0000
  H   H271      1.0  0.02618  0.41667  0.43694  1.0000
  H   H272      1.0  0.98101  0.38551  0.44684  1.0000
  C   C286      1.0  0.99027  0.34687  0.59215  1.0000
  C   C287      1.0  0.02023  0.35729  0.59836  1.0000
  H   H273      1.0  0.98717  0.36253  0.56669  1.0000
  H   H274      1.0  0.98125  0.33038  0.54553  1.0000
  C   C288      1.0  0.03370  0.38044  0.66549  1.0000
  H   H275      1.0  0.02918  0.36382  0.53269  1.0000
  H   H276      1.0  0.02338  0.34124  0.61964  1.0000
  H   H277      1.0  0.03666  0.39852  0.63397  1.0000
  C   C289      1.0  0.06032  0.42847  0.30763  1.0000
  H   H278      1.0  0.06968  0.42309  0.36034  1.0000
  H   H279      1.0  0.06072  0.44653  0.32847  1.0000
  C   C290      1.0  0.60889  0.64244  0.30485  1.0000
  C   C291      1.0  0.63065  0.62286  0.38973  1.0000
  C   C292      1.0  0.61186  0.63087  0.38334  1.0000
  H   H280      1.0  0.59982  0.62763  0.43698  1.0000
  H   H281      1.0  0.63097  0.61360  0.44686  1.0000
  C   C293      1.0  0.66960  0.66150  0.59217  1.0000
  C   C294      1.0  0.65920  0.68106  0.59839  1.0000
  H   H282      1.0  0.65394  0.64275  0.56672  1.0000
  H   H283      1.0  0.68609  0.66898  0.54553  1.0000
  C   C295      1.0  0.63605  0.67138  0.66553  1.0000
  H   H284      1.0  0.65266  0.68348  0.53271  1.0000
  H   H285      1.0  0.67525  0.70025  0.61966  1.0000
  H   H286      1.0  0.61796  0.65628  0.63402  1.0000
  C   C296      1.0  0.58803  0.64999  0.30767  1.0000
  H   H287      1.0  0.59342  0.66473  0.36038  1.0000
  H   H288      1.0  0.56997  0.63233  0.32853  1.0000
  C   C297      1.0  0.37658  0.98519  0.30302  1.0000
  C   C298      1.0  0.39607  0.02656  0.38770  1.0000
  C   C299      1.0  0.38867  0.99993  0.38071  1.0000
  H   H289      1.0  0.39237  0.99129  0.43380  1.0000
  H   H290      1.0  0.40525  0.03618  0.44488  1.0000
  C   C300      1.0  0.35519  0.02588  0.59233  1.0000
  C   C301      1.0  0.33566  0.99594  0.59936  1.0000
  H   H291      1.0  0.37385  0.02896  0.56587  1.0000
  H   H292      1.0  0.34750  0.03481  0.54610  1.0000
  C   C302      1.0  0.34554  0.98256  0.66615  1.0000
  H   H293      1.0  0.33301  0.98686  0.53377  1.0000
  H   H294      1.0  0.31654  0.99284  0.62132  1.0000
  H   H295      1.0  0.36041  0.97937  0.63389  1.0000
  C   C303      1.0  0.36908  0.95680  0.30606  1.0000
  H   H296      1.0  0.35531  0.94774  0.36167  1.0000
  H   H297      1.0  0.38707  0.95652  0.32268  1.0000
  C   C304      1.0  0.97799  0.61548  0.30491  1.0000
  C   C305      1.0  0.01933  0.63724  0.38978  1.0000
  C   C306      1.0  0.99253  0.61845  0.38339  1.0000
  H   H298      1.0  0.98373  0.60641  0.43704  1.0000
  H   H299      1.0  0.02890  0.63756  0.44691  1.0000
  C   C307      1.0  0.01963  0.67619  0.59223  1.0000
  C   C308      1.0  0.98967  0.66578  0.59845  1.0000
  H   H300      1.0  0.02272  0.66053  0.56676  1.0000
  H   H301      1.0  0.02865  0.69269  0.54560  1.0000
  C   C309      1.0  0.97620  0.64263  0.66557  1.0000
  H   H302      1.0  0.98071  0.65926  0.53277  1.0000
  H   H303      1.0  0.98653  0.68184  0.61973  1.0000
  H   H304      1.0  0.97323  0.62455  0.63406  1.0000
  C   C310      1.0  0.94958  0.59462  0.30773  1.0000
  H   H305      1.0  0.94022  0.60000  0.36043  1.0000
  H   H306      1.0  0.94917  0.57655  0.32858  1.0000
  C   C311      1.0  0.40101  0.38061  0.30480  1.0000
  C   C312      1.0  0.37926  0.40020  0.38967  1.0000
  C   C313      1.0  0.39805  0.39220  0.38326  1.0000
  H   H307      1.0  0.41008  0.39542  0.43692  1.0000
  H   H308      1.0  0.37894  0.40945  0.44680  1.0000
  C   C314      1.0  0.34030  0.36155  0.59212  1.0000
  C   C315      1.0  0.35070  0.34200  0.59834  1.0000
  H   H309      1.0  0.35596  0.38030  0.56666  1.0000
  H   H310      1.0  0.32380  0.35407  0.54549  1.0000
  C   C316      1.0  0.37385  0.35167  0.66547  1.0000
  H   H311      1.0  0.35724  0.33957  0.53266  1.0000
  H   H312      1.0  0.33465  0.32280  0.61961  1.0000
  H   H313      1.0  0.39193  0.36678  0.63396  1.0000
  C   C317      1.0  0.42186  0.37306  0.30765  1.0000
  H   H314      1.0  0.41649  0.35834  0.36042  1.0000
  H   H315      1.0  0.43994  0.39072  0.32842  1.0000
  C   C318      1.0  0.63586  0.03849  0.30486  1.0000
  C   C319      1.0  0.61629  0.99716  0.38972  1.0000
  C   C320      1.0  0.62429  0.02395  0.38333  1.0000
  H   H316      1.0  0.62106  0.03275  0.43698  1.0000
  H   H317      1.0  0.60703  0.98759  0.44685  1.0000
  C   C321      1.0  0.65493  0.99686  0.59216  1.0000
  C   C322      1.0  0.67448  0.02682  0.59839  1.0000
  H   H318      1.0  0.63618  0.99377  0.56670  1.0000
  H   H319      1.0  0.66241  0.98784  0.54552  1.0000
  C   C323      1.0  0.66481  0.04029  0.66552  1.0000
  H   H320      1.0  0.67692  0.03578  0.53271  1.0000
  H   H321      1.0  0.69368  0.02996  0.61966  1.0000
  H   H322      1.0  0.64970  0.04327  0.63402  1.0000
  C   C324      1.0  0.64341  0.06690  0.30769  1.0000
  H   H323      1.0  0.65815  0.07626  0.36040  1.0000
  H   H324      1.0  0.62576  0.06731  0.32853  1.0000
