data_image0
_chemical_formula_structural       C4HOCHC2HC2H2C2OHCHC4HOCHC2HC2H2C2OHCHC3HOCOHC2HCH3C2H2CHC2OHC3HOCOHC2HCH3C2H2CHC2OHC5HC6H2C3H2C4HC3HOHC3HOHC5HC6H2C3H2C4HC3HOHC3HOHC4OHC3OHCOC3H2C3H2C2H3C2H2C3HOHC3HOHC4OHC3OHCOC3H2C3H2C2H3C2H2C3HOHC3HOHC4HOC4OHC4HOC4OHC4HOC4OHC3H2C3H2C3H2C3H2C3H2C3H2C4H4C4H4C4H4C3HOHC3HOHC3HOHC3HOHC3HOHC3HOHC4HOC4OHC4HOC4OHC4HOC4OHC3H2C3H2C3H2C3H2C3H2C3H2C4H4C4H4C4H4C3HOHC3HOHC3HOHC3HOHC3HOHC3HOH
_chemical_formula_sum              "C288 H168 O48"
_cell_length_a       46.7017
_cell_length_b       46.7017
_cell_length_c       14.8188
_cell_angle_alpha    90
_cell_angle_beta     90
_cell_angle_gamma    120

_space_group_name_H-M_alt    "P 1"
_space_group_IT_number       1

loop_
  _space_group_symop_operation_xyz
  'x, y, z'

loop_
  _atom_site_type_symbol
  _atom_site_label
  _atom_site_symmetry_multiplicity
  _atom_site_fract_x
  _atom_site_fract_y
  _atom_site_fract_z
  _atom_site_occupancy
  C   C1        1.0  0.02714  0.26510  0.34412  1.0000
  C   C2        1.0  0.04637  0.30053  0.34369  1.0000
  C   C3        1.0  0.08137  0.31855  0.34264  1.0000
  C   C4        1.0  0.09862  0.30089  0.34327  1.0000
  H   H1        1.0  0.03530  0.31452  0.34346  1.0000
  O   O1        1.0  0.13241  0.31779  0.34376  1.0000
  C   C5        1.0  0.11626  0.25054  0.25997  1.0000
  H   H2        1.0  0.10856  0.25569  0.20055  1.0000
  C   C6        1.0  0.09990  0.35360  0.34105  1.0000
  C   C7        1.0  0.11634  0.36889  0.25970  1.0000
  H   H3        1.0  0.10876  0.35608  0.20020  1.0000
  C   C8        1.0  0.08141  0.26597  0.34260  1.0000
  C   C9        1.0  0.04641  0.24894  0.34381  1.0000
  H   H4        1.0  0.13892  0.32108  0.40770  1.0000
  H   H5        1.0  0.03537  0.22389  0.34382  1.0000
  C   C10       1.0  0.10000  0.24950  0.34165  1.0000
  C   C11       1.0  0.11457  0.24702  0.42330  1.0000
  O   O2        1.0  0.10348  0.25097  0.50480  1.0000
  H   H6        1.0  0.08246  0.23051  0.51607  1.0000
  C   C12       1.0  0.11444  0.37045  0.42253  1.0000
  H   H7        1.0  0.10534  0.35857  0.48276  1.0000
  C   C13       1.0  0.02714  0.76511  0.34412  1.0000
  C   C14       1.0  0.04637  0.80054  0.34369  1.0000
  C   C15       1.0  0.08137  0.81855  0.34264  1.0000
  C   C16       1.0  0.09862  0.80089  0.34327  1.0000
  H   H8        1.0  0.03530  0.81452  0.34346  1.0000
  O   O3        1.0  0.13241  0.81779  0.34376  1.0000
  C   C17       1.0  0.11626  0.75054  0.25997  1.0000
  H   H9        1.0  0.10856  0.75570  0.20055  1.0000
  C   C18       1.0  0.09990  0.85360  0.34105  1.0000
  C   C19       1.0  0.11634  0.86889  0.25970  1.0000
  H   H10       1.0  0.10876  0.85608  0.20020  1.0000
  C   C20       1.0  0.08141  0.76597  0.34260  1.0000
  C   C21       1.0  0.04641  0.74894  0.34381  1.0000
  H   H11       1.0  0.13892  0.82108  0.40770  1.0000
  H   H12       1.0  0.03537  0.72388  0.34382  1.0000
  C   C22       1.0  0.10000  0.74950  0.34165  1.0000
  C   C23       1.0  0.11457  0.74702  0.42330  1.0000
  O   O4        1.0  0.10347  0.75097  0.50480  1.0000
  H   H13       1.0  0.08246  0.73051  0.51607  1.0000
  C   C24       1.0  0.11444  0.87045  0.42253  1.0000
  H   H14       1.0  0.10534  0.85857  0.48276  1.0000
  C   C25       1.0  0.21473  0.24885  0.34366  1.0000
  C   C26       1.0  0.19671  0.26582  0.34271  1.0000
  C   C27       1.0  0.21438  0.30074  0.34333  1.0000
  H   H15       1.0  0.20074  0.22378  0.34337  1.0000
  O   O5        1.0  0.19747  0.31763  0.34361  1.0000
  C   C28       1.0  0.21451  0.41670  0.34318  1.0000
  O   O6        1.0  0.19763  0.38291  0.34345  1.0000
  H   H16       1.0  0.22686  0.03224  0.34299  1.0000
  C   C29       1.0  0.16165  0.24931  0.34098  1.0000
  C   C30       1.0  0.14638  0.25042  0.25959  1.0000
  H   H17       1.0  0.15919  0.25561  0.20008  1.0000
  C   C31       1.0  0.14652  0.39906  0.26001  1.0000
  H   H18       1.0  0.15942  0.40677  0.20065  1.0000
  H   H19       1.0  0.19414  0.32086  0.40751  1.0000
  H   H20       1.0  0.22693  0.19767  0.34360  1.0000
  C   C32       1.0  0.19680  0.43391  0.34264  1.0000
  C   C33       1.0  0.21477  0.46891  0.34391  1.0000
  H   H21       1.0  0.19432  0.37634  0.40735  1.0000
  H   H22       1.0  0.20074  0.47994  0.34415  1.0000
  C   C34       1.0  0.14491  0.24717  0.42252  1.0000
  H   H23       1.0  0.15676  0.24980  0.48274  1.0000
  C   C35       1.0  0.16174  0.41531  0.34169  1.0000
  C   C36       1.0  0.14470  0.40073  0.42332  1.0000
  O   O7        1.0  0.15975  0.41190  0.50477  1.0000
  H   H24       1.0  0.16007  0.43280  0.51615  1.0000
  C   C37       1.0  0.21473  0.74884  0.34365  1.0000
  C   C38       1.0  0.19671  0.76582  0.34271  1.0000
  C   C39       1.0  0.21437  0.80074  0.34333  1.0000
  H   H25       1.0  0.20074  0.72378  0.34337  1.0000
  O   O8        1.0  0.19747  0.81763  0.34361  1.0000
  C   C40       1.0  0.21451  0.91670  0.34318  1.0000
  O   O9        1.0  0.19763  0.88291  0.34345  1.0000
  H   H26       1.0  0.22686  0.53224  0.34299  1.0000
  C   C41       1.0  0.16165  0.74931  0.34098  1.0000
  C   C42       1.0  0.14638  0.75042  0.25959  1.0000
  H   H27       1.0  0.15919  0.75561  0.20008  1.0000
  C   C43       1.0  0.14652  0.89906  0.26001  1.0000
  H   H28       1.0  0.15942  0.90677  0.20065  1.0000
  H   H29       1.0  0.19414  0.82086  0.40751  1.0000
  H   H30       1.0  0.22693  0.69767  0.34360  1.0000
  C   C44       1.0  0.19680  0.93391  0.34264  1.0000
  C   C45       1.0  0.21477  0.96891  0.34391  1.0000
  H   H31       1.0  0.19432  0.87634  0.40735  1.0000
  H   H32       1.0  0.20074  0.97994  0.34415  1.0000
  C   C46       1.0  0.14491  0.74716  0.42252  1.0000
  H   H33       1.0  0.15675  0.74980  0.48274  1.0000
  C   C47       1.0  0.16174  0.91531  0.34169  1.0000
  C   C48       1.0  0.14470  0.90073  0.42332  1.0000
  O   O10       1.0  0.15975  0.91190  0.50477  1.0000
  H   H34       1.0  0.16007  0.93280  0.51615  1.0000
  C   C49       1.0  0.25016  0.26505  0.34400  1.0000
  C   C50       1.0  0.26815  0.24712  0.34399  1.0000
  C   C51       1.0  0.25020  0.48818  0.34402  1.0000
  C   C52       1.0  0.26641  0.46896  0.34339  1.0000
  C   C53       1.0  0.24943  0.43396  0.34259  1.0000
  H   H35       1.0  0.29147  0.48003  0.34285  1.0000
  C   C54       1.0  0.26813  0.02409  0.34405  1.0000
  C   C55       1.0  0.26890  0.07832  0.34279  1.0000
  C   C56       1.0  0.25192  0.04332  0.34353  1.0000
  C   C57       1.0  0.26594  0.41543  0.34052  1.0000
  C   C58       1.0  0.26498  0.39904  0.25933  1.0000
  C   C59       1.0  0.26492  0.36884  0.25975  1.0000
  H   H36       1.0  0.26003  0.35606  0.20026  1.0000
  H   H37       1.0  0.26008  0.40680  0.19963  1.0000
  C   C60       1.0  0.25239  0.09686  0.34106  1.0000
  C   C61       1.0  0.25347  0.11319  0.25960  1.0000
  C   C62       1.0  0.25352  0.14339  0.25974  1.0000
  H   H38       1.0  0.25847  0.15617  0.20023  1.0000
  H   H39       1.0  0.25841  0.10540  0.20001  1.0000
  C   C63       1.0  0.24929  0.31845  0.34268  1.0000
  C   C64       1.0  0.26632  0.30048  0.34364  1.0000
  C   C65       1.0  0.25199  0.21169  0.34368  1.0000
  C   C66       1.0  0.26902  0.19373  0.34259  1.0000
  H   H40       1.0  0.29138  0.31450  0.34352  1.0000
  C   C67       1.0  0.26574  0.35349  0.34137  1.0000
  C   C68       1.0  0.26799  0.37048  0.42303  1.0000
  C   C69       1.0  0.26792  0.40072  0.42212  1.0000
  H   H41       1.0  0.26512  0.40982  0.48234  1.0000
  O   O11       1.0  0.26393  0.35544  0.50457  1.0000
  H   H42       1.0  0.28440  0.35494  0.51619  1.0000
  C   C70       1.0  0.25256  0.15866  0.34133  1.0000
  C   C71       1.0  0.25024  0.14178  0.42322  1.0000
  C   C72       1.0  0.25035  0.11156  0.42253  1.0000
  H   H43       1.0  0.25304  0.10242  0.48281  1.0000
  O   O12       1.0  0.25413  0.15687  0.50461  1.0000
  H   H44       1.0  0.23358  0.15726  0.51588  1.0000
  C   C73       1.0  0.25016  0.76505  0.34400  1.0000
  C   C74       1.0  0.26815  0.74712  0.34399  1.0000
  C   C75       1.0  0.25019  0.98817  0.34402  1.0000
  C   C76       1.0  0.26641  0.96896  0.34339  1.0000
  C   C77       1.0  0.24943  0.93396  0.34259  1.0000
  H   H45       1.0  0.29146  0.98003  0.34285  1.0000
  C   C78       1.0  0.26813  0.52409  0.34405  1.0000
  C   C79       1.0  0.26890  0.57832  0.34279  1.0000
  C   C80       1.0  0.25192  0.54332  0.34353  1.0000
  C   C81       1.0  0.26594  0.91543  0.34052  1.0000
  C   C82       1.0  0.26498  0.89904  0.25933  1.0000
  C   C83       1.0  0.26492  0.86884  0.25975  1.0000
  H   H46       1.0  0.26003  0.85606  0.20026  1.0000
  H   H47       1.0  0.26008  0.90680  0.19963  1.0000
  C   C84       1.0  0.25239  0.59686  0.34106  1.0000
  C   C85       1.0  0.25347  0.61319  0.25960  1.0000
  C   C86       1.0  0.25352  0.64338  0.25974  1.0000
  H   H48       1.0  0.25847  0.65617  0.20023  1.0000
  H   H49       1.0  0.25841  0.60539  0.20001  1.0000
  C   C87       1.0  0.24929  0.81844  0.34268  1.0000
  C   C88       1.0  0.26632  0.80048  0.34364  1.0000
  C   C89       1.0  0.25199  0.71169  0.34368  1.0000
  C   C90       1.0  0.26902  0.69372  0.34259  1.0000
  H   H50       1.0  0.29138  0.81450  0.34352  1.0000
  C   C91       1.0  0.26574  0.85349  0.34137  1.0000
  C   C92       1.0  0.26799  0.87048  0.42303  1.0000
  C   C93       1.0  0.26792  0.90072  0.42212  1.0000
  H   H51       1.0  0.26511  0.90982  0.48234  1.0000
  O   O13       1.0  0.26393  0.85544  0.50457  1.0000
  H   H52       1.0  0.28440  0.85494  0.51619  1.0000
  C   C94       1.0  0.25256  0.65866  0.34133  1.0000
  C   C95       1.0  0.25024  0.64178  0.42322  1.0000
  C   C96       1.0  0.25035  0.61157  0.42253  1.0000
  H   H53       1.0  0.25304  0.60242  0.48281  1.0000
  O   O14       1.0  0.25413  0.65687  0.50461  1.0000
  H   H54       1.0  0.23358  0.65726  0.51588  1.0000
  C   C97       1.0  0.49123  0.24713  0.34411  1.0000
  C   C98       1.0  0.41975  0.21135  0.34313  1.0000
  C   C99       1.0  0.43700  0.19368  0.34262  1.0000
  C   C100      1.0  0.47200  0.21169  0.34377  1.0000
  O   O15       1.0  0.38596  0.19446  0.34345  1.0000
  H   H55       1.0  0.48307  0.19770  0.34361  1.0000
  C   C101      1.0  0.30393  0.21143  0.34321  1.0000
  C   C102      1.0  0.32160  0.24635  0.34265  1.0000
  C   C103      1.0  0.30358  0.26333  0.34358  1.0000
  O   O16       1.0  0.32084  0.19454  0.34352  1.0000
  H   H56       1.0  0.31757  0.28839  0.34333  1.0000
  C   C104      1.0  0.30383  0.09557  0.34356  1.0000
  O   O17       1.0  0.32071  0.12936  0.34404  1.0000
  C   C105      1.0  0.35663  0.26285  0.34094  1.0000
  C   C106      1.0  0.37200  0.26181  0.25959  1.0000
  C   C107      1.0  0.40219  0.26184  0.25967  1.0000
  H   H57       1.0  0.40991  0.25676  0.20017  1.0000
  H   H58       1.0  0.35923  0.25680  0.20005  1.0000
  C   C108      1.0  0.41846  0.15863  0.34108  1.0000
  C   C109      1.0  0.40200  0.14333  0.25977  1.0000
  C   C110      1.0  0.37180  0.11318  0.26011  1.0000
  H   H59       1.0  0.35889  0.10547  0.20078  1.0000
  H   H60       1.0  0.40958  0.15612  0.20023  1.0000
  C   C111      1.0  0.47196  0.26329  0.34369  1.0000
  C   C112      1.0  0.43697  0.24627  0.34255  1.0000
  H   H61       1.0  0.37941  0.19113  0.40735  1.0000
  H   H62       1.0  0.48300  0.28835  0.34362  1.0000
  H   H63       1.0  0.32415  0.19130  0.40743  1.0000
  C   C113      1.0  0.30356  0.04336  0.34389  1.0000
  C   C114      1.0  0.32153  0.07835  0.34283  1.0000
  H   H64       1.0  0.32399  0.13587  0.40798  1.0000
  H   H65       1.0  0.31758  0.03232  0.34399  1.0000
  C   C115      1.0  0.41838  0.26274  0.34127  1.0000
  C   C116      1.0  0.40382  0.26509  0.42308  1.0000
  C   C117      1.0  0.37348  0.26495  0.42234  1.0000
  H   H66       1.0  0.36160  0.26219  0.48258  1.0000
  O   O18       1.0  0.41489  0.26108  0.50455  1.0000
  H   H67       1.0  0.43592  0.28152  0.51587  1.0000
  C   C118      1.0  0.35659  0.09694  0.34183  1.0000
  C   C119      1.0  0.37364  0.11152  0.42344  1.0000
  C   C120      1.0  0.40388  0.14182  0.42258  1.0000
  H   H68       1.0  0.41308  0.15369  0.48276  1.0000
  O   O19       1.0  0.35862  0.10036  0.50492  1.0000
  H   H69       1.0  0.35824  0.07943  0.51621  1.0000
  C   C121      1.0  0.49123  0.74713  0.34411  1.0000
  C   C122      1.0  0.41975  0.71135  0.34313  1.0000
  C   C123      1.0  0.43700  0.69368  0.34262  1.0000
  C   C124      1.0  0.47200  0.71169  0.34377  1.0000
  O   O20       1.0  0.38596  0.69446  0.34345  1.0000
  H   H70       1.0  0.48307  0.69771  0.34361  1.0000
  C   C125      1.0  0.30393  0.71143  0.34321  1.0000
  C   C126      1.0  0.32160  0.74635  0.34265  1.0000
  C   C127      1.0  0.30358  0.76333  0.34358  1.0000
  O   O21       1.0  0.32084  0.69454  0.34352  1.0000
  H   H71       1.0  0.31756  0.78839  0.34333  1.0000
  C   C128      1.0  0.30382  0.59557  0.34356  1.0000
  O   O22       1.0  0.32071  0.62935  0.34404  1.0000
  C   C129      1.0  0.35663  0.76285  0.34094  1.0000
  C   C130      1.0  0.37200  0.76181  0.25959  1.0000
  C   C131      1.0  0.40219  0.76184  0.25967  1.0000
  H   H72       1.0  0.40991  0.75676  0.20017  1.0000
  H   H73       1.0  0.35923  0.75680  0.20005  1.0000
  C   C132      1.0  0.41846  0.65863  0.34108  1.0000
  C   C133      1.0  0.40200  0.64333  0.25977  1.0000
  C   C134      1.0  0.37180  0.61318  0.26011  1.0000
  H   H74       1.0  0.35889  0.60547  0.20078  1.0000
  H   H75       1.0  0.40958  0.65612  0.20023  1.0000
  C   C135      1.0  0.47196  0.76329  0.34369  1.0000
  C   C136      1.0  0.43697  0.74627  0.34255  1.0000
  H   H76       1.0  0.37941  0.69113  0.40735  1.0000
  H   H77       1.0  0.48300  0.78835  0.34362  1.0000
  H   H78       1.0  0.32415  0.69130  0.40743  1.0000
  C   C137      1.0  0.30355  0.54336  0.34389  1.0000
  C   C138      1.0  0.32153  0.57835  0.34283  1.0000
  H   H79       1.0  0.32399  0.63587  0.40798  1.0000
  H   H80       1.0  0.31758  0.53232  0.34399  1.0000
  C   C139      1.0  0.41837  0.76274  0.34127  1.0000
  C   C140      1.0  0.40381  0.76509  0.42308  1.0000
  C   C141      1.0  0.37348  0.76495  0.42234  1.0000
  H   H81       1.0  0.36161  0.76219  0.48258  1.0000
  O   O23       1.0  0.41489  0.76108  0.50455  1.0000
  H   H82       1.0  0.43592  0.78153  0.51587  1.0000
  C   C142      1.0  0.35659  0.59694  0.34183  1.0000
  C   C143      1.0  0.37364  0.61153  0.42344  1.0000
  C   C144      1.0  0.40388  0.64182  0.42258  1.0000
  H   H83       1.0  0.41308  0.65369  0.48276  1.0000
  O   O24       1.0  0.35862  0.60036  0.50492  1.0000
  H   H84       1.0  0.35824  0.57943  0.51621  1.0000
  C   C145      1.0  0.52714  0.26510  0.34412  1.0000
  C   C146      1.0  0.54637  0.30053  0.34369  1.0000
  C   C147      1.0  0.58137  0.31855  0.34264  1.0000
  C   C148      1.0  0.59862  0.30089  0.34327  1.0000
  H   H85       1.0  0.53530  0.31452  0.34346  1.0000
  O   O25       1.0  0.63241  0.31779  0.34376  1.0000
  C   C149      1.0  0.99123  0.24713  0.34411  1.0000
  C   C150      1.0  0.91975  0.21135  0.34313  1.0000
  C   C151      1.0  0.93700  0.19368  0.34262  1.0000
  C   C152      1.0  0.97200  0.21169  0.34377  1.0000
  O   O26       1.0  0.88596  0.19446  0.34345  1.0000
  H   H86       1.0  0.98307  0.19770  0.34361  1.0000
  C   C153      1.0  0.75016  0.26505  0.34400  1.0000
  C   C154      1.0  0.71473  0.24885  0.34366  1.0000
  C   C155      1.0  0.69671  0.26582  0.34271  1.0000
  C   C156      1.0  0.71437  0.30074  0.34333  1.0000
  H   H87       1.0  0.70074  0.22378  0.34337  1.0000
  O   O27       1.0  0.69747  0.31763  0.34361  1.0000
  C   C157      1.0  0.76815  0.24712  0.34399  1.0000
  C   C158      1.0  0.80394  0.21143  0.34321  1.0000
  C   C159      1.0  0.82160  0.24635  0.34265  1.0000
  C   C160      1.0  0.80358  0.26333  0.34358  1.0000
  O   O28       1.0  0.82084  0.19454  0.34352  1.0000
  H   H88       1.0  0.81756  0.28839  0.34333  1.0000
  C   C161      1.0  0.75019  0.48818  0.34402  1.0000
  C   C162      1.0  0.76641  0.46896  0.34339  1.0000
  C   C163      1.0  0.74943  0.43396  0.34259  1.0000
  C   C164      1.0  0.71451  0.41670  0.34318  1.0000
  H   H89       1.0  0.79147  0.48003  0.34285  1.0000
  O   O29       1.0  0.69763  0.38291  0.34345  1.0000
  C   C165      1.0  0.76813  0.02409  0.34405  1.0000
  C   C166      1.0  0.80383  0.09557  0.34356  1.0000
  C   C167      1.0  0.76890  0.07832  0.34279  1.0000
  C   C168      1.0  0.75192  0.04332  0.34353  1.0000
  O   O30       1.0  0.82071  0.12936  0.34404  1.0000
  H   H90       1.0  0.72686  0.03224  0.34299  1.0000
  C   C169      1.0  0.66165  0.24931  0.34098  1.0000
  C   C170      1.0  0.64638  0.25042  0.25959  1.0000
  C   C171      1.0  0.61626  0.25054  0.25997  1.0000
  H   H91       1.0  0.60856  0.25569  0.20055  1.0000
  H   H92       1.0  0.65919  0.25561  0.20008  1.0000
  C   C172      1.0  0.76594  0.41543  0.34052  1.0000
  C   C173      1.0  0.76498  0.39904  0.25933  1.0000
  C   C174      1.0  0.76492  0.36884  0.25975  1.0000
  H   H93       1.0  0.76003  0.35606  0.20026  1.0000
  H   H94       1.0  0.76008  0.40680  0.19963  1.0000
  C   C175      1.0  0.59990  0.35360  0.34105  1.0000
  C   C176      1.0  0.61634  0.36889  0.25970  1.0000
  C   C177      1.0  0.64652  0.39906  0.26001  1.0000
  H   H95       1.0  0.65942  0.40677  0.20065  1.0000
  H   H96       1.0  0.60876  0.35608  0.20020  1.0000
  C   C178      1.0  0.85663  0.26285  0.34094  1.0000
  C   C179      1.0  0.87200  0.26181  0.25959  1.0000
  C   C180      1.0  0.90219  0.26184  0.25967  1.0000
  H   H97       1.0  0.90991  0.25676  0.20017  1.0000
  H   H98       1.0  0.85923  0.25680  0.20005  1.0000
  C   C181      1.0  0.75239  0.09686  0.34106  1.0000
  C   C182      1.0  0.75347  0.11319  0.25960  1.0000
  C   C183      1.0  0.75352  0.14339  0.25974  1.0000
  H   H99       1.0  0.75847  0.15617  0.20023  1.0000
  H   H100      1.0  0.75841  0.10540  0.20001  1.0000
  C   C184      1.0  0.91846  0.15863  0.34108  1.0000
  C   C185      1.0  0.90200  0.14333  0.25977  1.0000
  C   C186      1.0  0.87180  0.11318  0.26011  1.0000
  H   H101      1.0  0.85889  0.10547  0.20078  1.0000
  H   H102      1.0  0.90958  0.15612  0.20023  1.0000
  C   C187      1.0  0.58141  0.26597  0.34260  1.0000
  C   C188      1.0  0.54641  0.24894  0.34381  1.0000
  C   C189      1.0  0.97197  0.26329  0.34369  1.0000
  C   C190      1.0  0.93697  0.24627  0.34255  1.0000
  H   H103      1.0  0.63892  0.32108  0.40770  1.0000
  H   H104      1.0  0.87941  0.19113  0.40735  1.0000
  H   H105      1.0  0.53537  0.22389  0.34382  1.0000
  H   H106      1.0  0.98300  0.28835  0.34362  1.0000
  C   C191      1.0  0.74929  0.31845  0.34268  1.0000
  C   C192      1.0  0.76632  0.30048  0.34364  1.0000
  C   C193      1.0  0.75199  0.21169  0.34368  1.0000
  C   C194      1.0  0.76902  0.19373  0.34259  1.0000
  H   H107      1.0  0.69414  0.32086  0.40751  1.0000
  H   H108      1.0  0.82415  0.19130  0.40743  1.0000
  H   H109      1.0  0.79138  0.31450  0.34352  1.0000
  H   H110      1.0  0.72693  0.19767  0.34360  1.0000
  C   C195      1.0  0.69680  0.43391  0.34264  1.0000
  C   C196      1.0  0.71477  0.46891  0.34391  1.0000
  C   C197      1.0  0.80355  0.04336  0.34389  1.0000
  C   C198      1.0  0.82153  0.07835  0.34283  1.0000
  H   H111      1.0  0.69432  0.37634  0.40735  1.0000
  H   H112      1.0  0.82399  0.13587  0.40798  1.0000
  H   H113      1.0  0.70075  0.47994  0.34415  1.0000
  H   H114      1.0  0.81758  0.03232  0.34399  1.0000
  C   C199      1.0  0.60000  0.24950  0.34165  1.0000
  C   C200      1.0  0.61457  0.24702  0.42330  1.0000
  C   C201      1.0  0.64491  0.24717  0.42252  1.0000
  H   H115      1.0  0.65675  0.24980  0.48274  1.0000
  O   O31       1.0  0.60348  0.25097  0.50480  1.0000
  H   H116      1.0  0.58246  0.23051  0.51607  1.0000
  C   C202      1.0  0.76574  0.35349  0.34137  1.0000
  C   C203      1.0  0.76799  0.37048  0.42303  1.0000
  C   C204      1.0  0.76792  0.40072  0.42212  1.0000
  H   H117      1.0  0.76511  0.40982  0.48234  1.0000
  O   O32       1.0  0.76393  0.35544  0.50457  1.0000
  H   H118      1.0  0.78440  0.35494  0.51619  1.0000
  C   C205      1.0  0.66174  0.41531  0.34169  1.0000
  C   C206      1.0  0.64470  0.40073  0.42332  1.0000
  C   C207      1.0  0.61444  0.37045  0.42253  1.0000
  H   H119      1.0  0.60534  0.35857  0.48276  1.0000
  O   O33       1.0  0.65975  0.41190  0.50477  1.0000
  H   H120      1.0  0.66007  0.43280  0.51615  1.0000
  C   C208      1.0  0.91838  0.26274  0.34127  1.0000
  C   C209      1.0  0.90382  0.26509  0.42308  1.0000
  C   C210      1.0  0.87348  0.26495  0.42234  1.0000
  H   H121      1.0  0.86160  0.26219  0.48258  1.0000
  O   O34       1.0  0.91490  0.26108  0.50455  1.0000
  H   H122      1.0  0.93592  0.28152  0.51587  1.0000
  C   C211      1.0  0.75256  0.15866  0.34133  1.0000
  C   C212      1.0  0.75024  0.14178  0.42322  1.0000
  C   C213      1.0  0.75035  0.11156  0.42253  1.0000
  H   H123      1.0  0.75304  0.10242  0.48281  1.0000
  O   O35       1.0  0.75413  0.15687  0.50461  1.0000
  H   H124      1.0  0.73358  0.15726  0.51588  1.0000
  C   C214      1.0  0.85659  0.09694  0.34183  1.0000
  C   C215      1.0  0.87365  0.11152  0.42344  1.0000
  C   C216      1.0  0.90388  0.14182  0.42258  1.0000
  H   H125      1.0  0.91308  0.15369  0.48276  1.0000
  O   O36       1.0  0.85862  0.10036  0.50492  1.0000
  H   H126      1.0  0.85824  0.07943  0.51621  1.0000
  C   C217      1.0  0.52714  0.76511  0.34412  1.0000
  C   C218      1.0  0.54637  0.80054  0.34369  1.0000
  C   C219      1.0  0.58137  0.81855  0.34264  1.0000
  C   C220      1.0  0.59862  0.80089  0.34327  1.0000
  H   H127      1.0  0.53530  0.81452  0.34346  1.0000
  O   O37       1.0  0.63241  0.81779  0.34376  1.0000
  C   C221      1.0  0.99123  0.74713  0.34411  1.0000
  C   C222      1.0  0.91975  0.71135  0.34313  1.0000
  C   C223      1.0  0.93700  0.69368  0.34262  1.0000
  C   C224      1.0  0.97200  0.71169  0.34377  1.0000
  O   O38       1.0  0.88596  0.69446  0.34345  1.0000
  H   H128      1.0  0.98307  0.69771  0.34361  1.0000
  C   C225      1.0  0.75016  0.76505  0.34400  1.0000
  C   C226      1.0  0.71473  0.74884  0.34365  1.0000
  C   C227      1.0  0.69671  0.76582  0.34271  1.0000
  C   C228      1.0  0.71437  0.80074  0.34333  1.0000
  H   H129      1.0  0.70074  0.72378  0.34337  1.0000
  O   O39       1.0  0.69747  0.81763  0.34361  1.0000
  C   C229      1.0  0.76815  0.74712  0.34399  1.0000
  C   C230      1.0  0.80393  0.71143  0.34321  1.0000
  C   C231      1.0  0.82160  0.74635  0.34265  1.0000
  C   C232      1.0  0.80358  0.76333  0.34358  1.0000
  O   O40       1.0  0.82084  0.69454  0.34352  1.0000
  H   H130      1.0  0.81756  0.78839  0.34333  1.0000
  C   C233      1.0  0.75019  0.98817  0.34402  1.0000
  C   C234      1.0  0.76640  0.96896  0.34339  1.0000
  C   C235      1.0  0.74943  0.93396  0.34259  1.0000
  C   C236      1.0  0.71450  0.91670  0.34318  1.0000
  H   H131      1.0  0.79146  0.98003  0.34285  1.0000
  O   O41       1.0  0.69763  0.88291  0.34345  1.0000
  C   C237      1.0  0.76813  0.52409  0.34405  1.0000
  C   C238      1.0  0.80382  0.59557  0.34356  1.0000
  C   C239      1.0  0.76890  0.57832  0.34279  1.0000
  C   C240      1.0  0.75192  0.54332  0.34353  1.0000
  O   O42       1.0  0.82071  0.62935  0.34404  1.0000
  H   H132      1.0  0.72686  0.53224  0.34299  1.0000
  C   C241      1.0  0.66165  0.74931  0.34098  1.0000
  C   C242      1.0  0.64638  0.75042  0.25959  1.0000
  C   C243      1.0  0.61626  0.75054  0.25997  1.0000
  H   H133      1.0  0.60856  0.75570  0.20055  1.0000
  H   H134      1.0  0.65919  0.75561  0.20008  1.0000
  C   C244      1.0  0.76594  0.91543  0.34052  1.0000
  C   C245      1.0  0.76498  0.89904  0.25933  1.0000
  C   C246      1.0  0.76492  0.86884  0.25975  1.0000
  H   H135      1.0  0.76003  0.85606  0.20026  1.0000
  H   H136      1.0  0.76008  0.90680  0.19963  1.0000
  C   C247      1.0  0.59990  0.85360  0.34105  1.0000
  C   C248      1.0  0.61634  0.86889  0.25970  1.0000
  C   C249      1.0  0.64652  0.89906  0.26001  1.0000
  H   H137      1.0  0.65942  0.90677  0.20065  1.0000
  H   H138      1.0  0.60876  0.85608  0.20020  1.0000
  C   C250      1.0  0.85664  0.76285  0.34094  1.0000
  C   C251      1.0  0.87200  0.76181  0.25959  1.0000
  C   C252      1.0  0.90219  0.76184  0.25967  1.0000
  H   H139      1.0  0.90991  0.75676  0.20017  1.0000
  H   H140      1.0  0.85923  0.75680  0.20005  1.0000
  C   C253      1.0  0.75239  0.59686  0.34106  1.0000
  C   C254      1.0  0.75347  0.61319  0.25960  1.0000
  C   C255      1.0  0.75352  0.64338  0.25974  1.0000
  H   H141      1.0  0.75847  0.65617  0.20023  1.0000
  H   H142      1.0  0.75841  0.60539  0.20001  1.0000
  C   C256      1.0  0.91846  0.65863  0.34108  1.0000
  C   C257      1.0  0.90200  0.64333  0.25977  1.0000
  C   C258      1.0  0.87180  0.61318  0.26011  1.0000
  H   H143      1.0  0.85889  0.60547  0.20078  1.0000
  H   H144      1.0  0.90958  0.65612  0.20023  1.0000
  C   C259      1.0  0.58141  0.76597  0.34260  1.0000
  C   C260      1.0  0.54641  0.74894  0.34381  1.0000
  C   C261      1.0  0.97197  0.76329  0.34369  1.0000
  C   C262      1.0  0.93697  0.74627  0.34255  1.0000
  H   H145      1.0  0.63892  0.82108  0.40770  1.0000
  H   H146      1.0  0.87941  0.69113  0.40735  1.0000
  H   H147      1.0  0.53537  0.72388  0.34382  1.0000
  H   H148      1.0  0.98300  0.78835  0.34362  1.0000
  C   C263      1.0  0.74929  0.81844  0.34268  1.0000
  C   C264      1.0  0.76632  0.80048  0.34364  1.0000
  C   C265      1.0  0.75199  0.71169  0.34368  1.0000
  C   C266      1.0  0.76902  0.69372  0.34259  1.0000
  H   H149      1.0  0.69414  0.82086  0.40751  1.0000
  H   H150      1.0  0.82415  0.69130  0.40743  1.0000
  H   H151      1.0  0.79138  0.81450  0.34352  1.0000
  H   H152      1.0  0.72693  0.69767  0.34360  1.0000
  C   C267      1.0  0.69680  0.93391  0.34264  1.0000
  C   C268      1.0  0.71477  0.96891  0.34391  1.0000
  C   C269      1.0  0.80355  0.54336  0.34389  1.0000
  C   C270      1.0  0.82153  0.57835  0.34283  1.0000
  H   H153      1.0  0.69432  0.87634  0.40735  1.0000
  H   H154      1.0  0.82399  0.63587  0.40798  1.0000
  H   H155      1.0  0.70074  0.97994  0.34415  1.0000
  H   H156      1.0  0.81758  0.53232  0.34399  1.0000
  C   C271      1.0  0.60000  0.74950  0.34165  1.0000
  C   C272      1.0  0.61457  0.74702  0.42330  1.0000
  C   C273      1.0  0.64490  0.74716  0.42252  1.0000
  H   H157      1.0  0.65675  0.74980  0.48274  1.0000
  O   O43       1.0  0.60348  0.75097  0.50480  1.0000
  H   H158      1.0  0.58246  0.73051  0.51607  1.0000
  C   C274      1.0  0.76574  0.85349  0.34137  1.0000
  C   C275      1.0  0.76799  0.87048  0.42303  1.0000
  C   C276      1.0  0.76791  0.90072  0.42212  1.0000
  H   H159      1.0  0.76511  0.90982  0.48234  1.0000
  O   O44       1.0  0.76393  0.85544  0.50457  1.0000
  H   H160      1.0  0.78440  0.85494  0.51619  1.0000
  C   C277      1.0  0.66174  0.91531  0.34169  1.0000
  C   C278      1.0  0.64470  0.90073  0.42332  1.0000
  C   C279      1.0  0.61444  0.87045  0.42253  1.0000
  H   H161      1.0  0.60534  0.85857  0.48276  1.0000
  O   O45       1.0  0.65975  0.91190  0.50477  1.0000
  H   H162      1.0  0.66007  0.93280  0.51615  1.0000
  C   C280      1.0  0.91837  0.76274  0.34127  1.0000
  C   C281      1.0  0.90382  0.76509  0.42308  1.0000
  C   C282      1.0  0.87348  0.76495  0.42234  1.0000
  H   H163      1.0  0.86161  0.76219  0.48258  1.0000
  O   O46       1.0  0.91489  0.76108  0.50455  1.0000
  H   H164      1.0  0.93592  0.78153  0.51587  1.0000
  C   C283      1.0  0.75256  0.65866  0.34133  1.0000
  C   C284      1.0  0.75024  0.64178  0.42322  1.0000
  C   C285      1.0  0.75035  0.61157  0.42253  1.0000
  H   H165      1.0  0.75304  0.60242  0.48281  1.0000
  O   O47       1.0  0.75413  0.65687  0.50461  1.0000
  H   H166      1.0  0.73358  0.65726  0.51588  1.0000
  C   C286      1.0  0.85658  0.59694  0.34183  1.0000
  C   C287      1.0  0.87365  0.61153  0.42344  1.0000
  C   C288      1.0  0.90388  0.64182  0.42258  1.0000
  H   H167      1.0  0.91308  0.65369  0.48276  1.0000
  O   O48       1.0  0.85862  0.60036  0.50492  1.0000
  H   H168      1.0  0.85824  0.57943  0.51621  1.0000
