data_image0
_chemical_formula_structural       C2HC6H3CHC2HC6H3CHC2HC6H3CHC2HC6H3CHC2NC2HNHCHC2NC2HNHCHC2NC2HNHCHC2NC2HNHCHC2NC2HNHCHC2NC2HNHCHC2NC2HNHCHC2NC2HNHCHC2HC6H3CHC2HC6H3CHC2HC6H3CHC2HC6H3CHC2HC6H3CHC2HC6H3CHC2HC6H3CHC2HC6H3CHC2NC2HNHCHC2NC2HNHCHC2NC2HNHCHC2NC2HNHCHC2NC2HNHCHC2NC2HNHCHC2NC2HNHCHC2NC2HNHCHC2NC2HNHCHC2NC2HNHCHC6H3N3C6H3N3C6H3N3C6H3N3C6H3N3C6H3N3C6H3N3C6H3N3C6H3N3C6H3N3C6H3N3C6H3N3C6H3N3C6H3N3C6H3N3C6H3N3C6H3N3C6H3N3C6H3N3C6H3N3C2NC2HNHCHC2NC2HNHCHC2NC2HNHCHC2NC2HNHCHC2HC6H3CHC2HC6H3CHC2HC6H3CHC2HC6H3CHC2HC6H3CHC2HC6H3CHC2HC6H3CHC2HC6H3CHC2NC2HNHCHC2NC2HNHCHC2NC2HNHCHC2NC2HNHCHC2NC2HNHCHC2NC2HNHCHC2NC2HNHCHC2NC2HNHCHC2HC6H3CHC2HC6H3CHC2HC6H3CHC2HC6H3CHC2HC6H3CHC2HC6H3CHC2HC6H3CHC2HC6H3CHC2HC6H3CHC2HC6H3CH
_chemical_formula_sum              "C540 H300 N120"
_cell_length_a       87.2993
_cell_length_b       87.2993
_cell_length_c       15.014
_cell_angle_alpha    90
_cell_angle_beta     90
_cell_angle_gamma    90

_space_group_name_H-M_alt    "P 1"
_space_group_IT_number       1

loop_
  _space_group_symop_operation_xyz
  'x, y, z'

loop_
  _atom_site_type_symbol
  _atom_site_label
  _atom_site_symmetry_multiplicity
  _atom_site_fract_x
  _atom_site_fract_y
  _atom_site_fract_z
  _atom_site_occupancy
  C   C1        1.0  0.32007  0.04095  0.25168  1.0000
  C   C2        1.0  0.30457  0.03728  0.26811  1.0000
  H   H1        1.0  0.29736  0.03553  0.21523  1.0000
  C   C3        1.0  0.34510  0.04843  0.31169  1.0000
  C   C4        1.0  0.37548  0.05833  0.28698  1.0000
  C   C5        1.0  0.36619  0.05489  0.21245  1.0000
  C   C6        1.0  0.35094  0.04985  0.22373  1.0000
  C   C7        1.0  0.34133  0.04651  0.15062  1.0000
  C   C8        1.0  0.32603  0.04208  0.16449  1.0000
  H   H2        1.0  0.34532  0.04751  0.08678  1.0000
  H   H3        1.0  0.31920  0.03998  0.11043  1.0000
  H   H4        1.0  0.37053  0.05615  0.14942  1.0000
  C   C9        1.0  0.39020  0.06385  0.27577  1.0000
  H   H5        1.0  0.39233  0.07111  0.22615  1.0000
  C   C10       1.0  0.67910  0.95785  0.24927  1.0000
  C   C11       1.0  0.69456  0.96161  0.26603  1.0000
  H   H6        1.0  0.70181  0.96333  0.21330  1.0000
  C   C12       1.0  0.65405  0.95030  0.30883  1.0000
  C   C13       1.0  0.62374  0.94025  0.28365  1.0000
  C   C14       1.0  0.63308  0.94363  0.20922  1.0000
  C   C15       1.0  0.64830  0.94876  0.22075  1.0000
  C   C16       1.0  0.65795  0.95207  0.14780  1.0000
  C   C17       1.0  0.67322  0.95659  0.16195  1.0000
  H   H7        1.0  0.65402  0.95097  0.08389  1.0000
  H   H8        1.0  0.68009  0.95866  0.10801  1.0000
  H   H9        1.0  0.62879  0.94228  0.14614  1.0000
  C   C18       1.0  0.60904  0.93471  0.27243  1.0000
  H   H10       1.0  0.60699  0.92712  0.22440  1.0000
  C   C19       1.0  0.95812  0.32008  0.25166  1.0000
  C   C20       1.0  0.96179  0.30458  0.26809  1.0000
  H   H11       1.0  0.96354  0.29737  0.21520  1.0000
  C   C21       1.0  0.95064  0.34511  0.31167  1.0000
  C   C22       1.0  0.94074  0.37549  0.28696  1.0000
  C   C23       1.0  0.94418  0.36620  0.21243  1.0000
  C   C24       1.0  0.94922  0.35094  0.22371  1.0000
  C   C25       1.0  0.95256  0.34134  0.15060  1.0000
  C   C26       1.0  0.95699  0.32603  0.16446  1.0000
  H   H12       1.0  0.95156  0.34533  0.08676  1.0000
  H   H13       1.0  0.95908  0.31920  0.11040  1.0000
  H   H14       1.0  0.94291  0.37053  0.14940  1.0000
  C   C27       1.0  0.93522  0.39021  0.27575  1.0000
  H   H15       1.0  0.92796  0.39234  0.22613  1.0000
  C   C28       1.0  0.04122  0.67910  0.24929  1.0000
  C   C29       1.0  0.03745  0.69457  0.26605  1.0000
  H   H16       1.0  0.03573  0.70182  0.21332  1.0000
  C   C30       1.0  0.04876  0.65406  0.30885  1.0000
  C   C31       1.0  0.05882  0.62375  0.28367  1.0000
  C   C32       1.0  0.05543  0.63308  0.20924  1.0000
  C   C33       1.0  0.05031  0.64831  0.22078  1.0000
  C   C34       1.0  0.04700  0.65796  0.14783  1.0000
  C   C35       1.0  0.04247  0.67323  0.16197  1.0000
  H   H17       1.0  0.04809  0.65403  0.08391  1.0000
  H   H18       1.0  0.04040  0.68010  0.10804  1.0000
  H   H19       1.0  0.05678  0.62880  0.14616  1.0000
  C   C36       1.0  0.06436  0.60905  0.27244  1.0000
  H   H20       1.0  0.07195  0.60700  0.22442  1.0000
  C   C37       1.0  0.19986  0.53803  0.31123  1.0000
  C   C38       1.0  0.18967  0.54062  0.23972  1.0000
  N   N1        1.0  0.17445  0.54213  0.25493  1.0000
  C   C39       1.0  0.16810  0.54134  0.33745  1.0000
  C   C40       1.0  0.12753  0.54767  0.28537  1.0000
  H   H21       1.0  0.19355  0.54145  0.17561  1.0000
  N   N2        1.0  0.14287  0.54570  0.27815  1.0000
  H   H22       1.0  0.12132  0.54943  0.22852  1.0000
  C   C41       1.0  0.21546  0.53718  0.29591  1.0000
  H   H23       1.0  0.22000  0.54376  0.24857  1.0000
  C   C42       1.0  0.79896  0.46116  0.30792  1.0000
  C   C43       1.0  0.80910  0.45865  0.23610  1.0000
  N   N3        1.0  0.82433  0.45708  0.25096  1.0000
  C   C44       1.0  0.83072  0.45772  0.33341  1.0000
  C   C45       1.0  0.87128  0.45140  0.28054  1.0000
  H   H24       1.0  0.80519  0.45793  0.17201  1.0000
  N   N4        1.0  0.85594  0.45340  0.27356  1.0000
  H   H25       1.0  0.87747  0.44971  0.22358  1.0000
  C   C46       1.0  0.78335  0.46208  0.29301  1.0000
  H   H26       1.0  0.77875  0.45560  0.24539  1.0000
  C   C47       1.0  0.53801  0.79921  0.31126  1.0000
  C   C48       1.0  0.54060  0.80940  0.23975  1.0000
  N   N5        1.0  0.54211  0.82462  0.25496  1.0000
  C   C49       1.0  0.54132  0.83097  0.33748  1.0000
  C   C50       1.0  0.54766  0.87154  0.28539  1.0000
  H   H27       1.0  0.54143  0.80553  0.17563  1.0000
  N   N6        1.0  0.54568  0.85620  0.27817  1.0000
  H   H28       1.0  0.54942  0.87775  0.22854  1.0000
  C   C51       1.0  0.53715  0.78361  0.29593  1.0000
  H   H29       1.0  0.54373  0.77907  0.24858  1.0000
  C   C52       1.0  0.46114  0.20011  0.30790  1.0000
  C   C53       1.0  0.45863  0.18997  0.23607  1.0000
  N   N7        1.0  0.45706  0.17474  0.25094  1.0000
  C   C54       1.0  0.45771  0.16835  0.33339  1.0000
  C   C55       1.0  0.45139  0.12779  0.28052  1.0000
  H   H30       1.0  0.45791  0.19388  0.17199  1.0000
  N   N8        1.0  0.45339  0.14313  0.27354  1.0000
  H   H31       1.0  0.44969  0.12159  0.22356  1.0000
  C   C56       1.0  0.46205  0.21572  0.29298  1.0000
  H   H32       1.0  0.45557  0.22032  0.24538  1.0000
  C   C57       1.0  0.18764  0.14605  0.31103  1.0000
  C   C58       1.0  0.19126  0.13587  0.24106  1.0000
  N   N9        1.0  0.19576  0.12134  0.25925  1.0000
  C   C59       1.0  0.19705  0.11571  0.34333  1.0000
  C   C60       1.0  0.21261  0.07743  0.29895  1.0000
  H   H33       1.0  0.19077  0.13928  0.17596  1.0000
  N   N10       1.0  0.20650  0.09158  0.28876  1.0000
  H   H34       1.0  0.21583  0.07160  0.24295  1.0000
  C   C61       1.0  0.18412  0.16118  0.29304  1.0000
  H   H35       1.0  0.18989  0.16661  0.24532  1.0000
  C   C62       1.0  0.81143  0.85302  0.31122  1.0000
  C   C63       1.0  0.80782  0.86319  0.24118  1.0000
  N   N11       1.0  0.80330  0.87772  0.25928  1.0000
  C   C64       1.0  0.80199  0.88335  0.34333  1.0000
  C   C65       1.0  0.78643  0.92162  0.29868  1.0000
  H   H36       1.0  0.80832  0.85976  0.17609  1.0000
  N   N12       1.0  0.79254  0.90747  0.28859  1.0000
  H   H37       1.0  0.78322  0.92745  0.24263  1.0000
  C   C66       1.0  0.81495  0.83789  0.29331  1.0000
  H   H38       1.0  0.80920  0.83245  0.24553  1.0000
  C   C67       1.0  0.85303  0.18762  0.31114  1.0000
  C   C68       1.0  0.86321  0.19124  0.24116  1.0000
  N   N13       1.0  0.87773  0.19574  0.25933  1.0000
  C   C69       1.0  0.88336  0.19705  0.34341  1.0000
  C   C70       1.0  0.92164  0.21261  0.29899  1.0000
  H   H39       1.0  0.85979  0.19075  0.17606  1.0000
  N   N14       1.0  0.90749  0.20650  0.28881  1.0000
  H   H40       1.0  0.92747  0.21583  0.24298  1.0000
  C   C71       1.0  0.83790  0.18410  0.29316  1.0000
  H   H41       1.0  0.83246  0.18986  0.24542  1.0000
  C   C72       1.0  0.14606  0.81141  0.31111  1.0000
  C   C73       1.0  0.13588  0.80780  0.24109  1.0000
  N   N15       1.0  0.12136  0.80329  0.25920  1.0000
  C   C74       1.0  0.11572  0.80198  0.34325  1.0000
  C   C75       1.0  0.07744  0.78643  0.29864  1.0000
  H   H42       1.0  0.13931  0.80830  0.17600  1.0000
  N   N16       1.0  0.09160  0.79254  0.28854  1.0000
  H   H43       1.0  0.07162  0.78321  0.24260  1.0000
  C   C76       1.0  0.16119  0.81493  0.29319  1.0000
  H   H44       1.0  0.16663  0.80917  0.24543  1.0000
  C   C77       1.0  0.30636  0.62548  0.24543  1.0000
  C   C78       1.0  0.31122  0.64064  0.26230  1.0000
  H   H45       1.0  0.31334  0.64782  0.20973  1.0000
  C   C79       1.0  0.29733  0.60091  0.30473  1.0000
  C   C80       1.0  0.28404  0.57182  0.27906  1.0000
  C   C81       1.0  0.28826  0.58090  0.20490  1.0000
  C   C82       1.0  0.29495  0.59549  0.21660  1.0000
  C   C83       1.0  0.29868  0.60500  0.14370  1.0000
  C   C84       1.0  0.30439  0.61986  0.15800  1.0000
  H   H46       1.0  0.29695  0.60132  0.07976  1.0000
  H   H47       1.0  0.30669  0.62667  0.10415  1.0000
  H   H48       1.0  0.28589  0.57712  0.14173  1.0000
  C   C85       1.0  0.27526  0.55874  0.26718  1.0000
  H   H49       1.0  0.26816  0.55836  0.21520  1.0000
  C   C86       1.0  0.69268  0.37358  0.24557  1.0000
  C   C87       1.0  0.68786  0.35841  0.26239  1.0000
  H   H50       1.0  0.68575  0.35123  0.20980  1.0000
  C   C88       1.0  0.70165  0.39817  0.30493  1.0000
  C   C89       1.0  0.71484  0.42731  0.27928  1.0000
  C   C90       1.0  0.71064  0.41823  0.20511  1.0000
  C   C91       1.0  0.70400  0.40361  0.21680  1.0000
  C   C92       1.0  0.70029  0.39409  0.14388  1.0000
  C   C93       1.0  0.69463  0.37922  0.15816  1.0000
  H   H51       1.0  0.70200  0.39779  0.07995  1.0000
  H   H52       1.0  0.69235  0.37240  0.10429  1.0000
  H   H53       1.0  0.71299  0.42202  0.14195  1.0000
  C   C94       1.0  0.72357  0.44043  0.26734  1.0000
  H   H54       1.0  0.73063  0.44083  0.21517  1.0000
  C   C95       1.0  0.62546  0.69274  0.24528  1.0000
  C   C96       1.0  0.64062  0.68789  0.26213  1.0000
  H   H55       1.0  0.64780  0.68577  0.20955  1.0000
  C   C97       1.0  0.60089  0.70176  0.30461  1.0000
  C   C98       1.0  0.57178  0.71504  0.27898  1.0000
  C   C99       1.0  0.58086  0.71082  0.20481  1.0000
  C   C100      1.0  0.59546  0.70413  0.21648  1.0000
  C   C101      1.0  0.60497  0.70040  0.14358  1.0000
  C   C102      1.0  0.61983  0.69471  0.15786  1.0000
  H   H56       1.0  0.60128  0.70213  0.07964  1.0000
  H   H57       1.0  0.62664  0.69241  0.10400  1.0000
  H   H58       1.0  0.57708  0.71319  0.14165  1.0000
  C   C103      1.0  0.55870  0.72381  0.26712  1.0000
  H   H59       1.0  0.55832  0.73091  0.21513  1.0000
  C   C104      1.0  0.37355  0.30642  0.24572  1.0000
  C   C105      1.0  0.35839  0.31125  0.26257  1.0000
  H   H60       1.0  0.35121  0.31337  0.20999  1.0000
  C   C106      1.0  0.39814  0.29744  0.30505  1.0000
  C   C107      1.0  0.42728  0.28424  0.27936  1.0000
  C   C108      1.0  0.41819  0.28844  0.20521  1.0000
  C   C109      1.0  0.40358  0.29509  0.21691  1.0000
  C   C110      1.0  0.39406  0.29880  0.14401  1.0000
  C   C111      1.0  0.37918  0.30447  0.15830  1.0000
  H   H61       1.0  0.39775  0.29708  0.08007  1.0000
  H   H62       1.0  0.37237  0.30675  0.10445  1.0000
  H   H63       1.0  0.42197  0.28609  0.14203  1.0000
  C   C112      1.0  0.44039  0.27550  0.26740  1.0000
  H   H64       1.0  0.44079  0.26844  0.21524  1.0000
  C   C113      1.0  0.21604  0.91134  0.24893  1.0000
  C   C114      1.0  0.21395  0.89555  0.26535  1.0000
  H   H65       1.0  0.21255  0.88823  0.21261  1.0000
  C   C115      1.0  0.22116  0.93699  0.30857  1.0000
  C   C116      1.0  0.22842  0.96812  0.28280  1.0000
  C   C117      1.0  0.22537  0.95856  0.20878  1.0000
  C   C118      1.0  0.22168  0.94294  0.22055  1.0000
  C   C119      1.0  0.21904  0.93307  0.14767  1.0000
  C   C120      1.0  0.21619  0.91740  0.16175  1.0000
  H   H66       1.0  0.21944  0.93715  0.08379  1.0000
  H   H67       1.0  0.21459  0.91041  0.10782  1.0000
  H   H68       1.0  0.22628  0.96289  0.14554  1.0000
  C   C121      1.0  0.23386  0.98288  0.27025  1.0000
  H   H69       1.0  0.24030  0.98500  0.21684  1.0000
  C   C122      1.0  0.78304  0.08772  0.24883  1.0000
  C   C123      1.0  0.78513  0.10350  0.26534  1.0000
  H   H70       1.0  0.78655  0.11083  0.21265  1.0000
  C   C124      1.0  0.77789  0.06207  0.30830  1.0000
  C   C125      1.0  0.77064  0.03094  0.28231  1.0000
  C   C126      1.0  0.77370  0.04050  0.20836  1.0000
  C   C127      1.0  0.77739  0.05612  0.22025  1.0000
  C   C128      1.0  0.78006  0.06600  0.14743  1.0000
  C   C129      1.0  0.78290  0.08167  0.16162  1.0000
  H   H71       1.0  0.77966  0.06194  0.08353  1.0000
  H   H72       1.0  0.78452  0.08867  0.10774  1.0000
  H   H73       1.0  0.77281  0.03618  0.14509  1.0000
  C   C130      1.0  0.76521  0.01618  0.26963  1.0000
  H   H74       1.0  0.75879  0.01406  0.21612  1.0000
  C   C131      1.0  0.08772  0.21604  0.24893  1.0000
  C   C132      1.0  0.10351  0.21395  0.26536  1.0000
  H   H75       1.0  0.11083  0.21255  0.21263  1.0000
  C   C133      1.0  0.06208  0.22116  0.30856  1.0000
  C   C134      1.0  0.03094  0.22842  0.28278  1.0000
  C   C135      1.0  0.04050  0.22538  0.20877  1.0000
  C   C136      1.0  0.05612  0.22168  0.22055  1.0000
  C   C137      1.0  0.06599  0.21904  0.14766  1.0000
  C   C138      1.0  0.08166  0.21619  0.16176  1.0000
  H   H76       1.0  0.06191  0.21945  0.08379  1.0000
  H   H77       1.0  0.08865  0.21459  0.10783  1.0000
  H   H78       1.0  0.03617  0.22629  0.14552  1.0000
  C   C139      1.0  0.01619  0.23386  0.27023  1.0000
  H   H79       1.0  0.01406  0.24030  0.21681  1.0000
  C   C140      1.0  0.91134  0.78304  0.24882  1.0000
  C   C141      1.0  0.89556  0.78514  0.26532  1.0000
  H   H80       1.0  0.88823  0.78655  0.21263  1.0000
  C   C142      1.0  0.93700  0.77790  0.30830  1.0000
  C   C143      1.0  0.96813  0.77064  0.28233  1.0000
  C   C144      1.0  0.95856  0.77370  0.20838  1.0000
  C   C145      1.0  0.94294  0.77740  0.22025  1.0000
  C   C146      1.0  0.93306  0.78006  0.14743  1.0000
  C   C147      1.0  0.91739  0.78291  0.16161  1.0000
  H   H81       1.0  0.93713  0.77967  0.08353  1.0000
  H   H82       1.0  0.91040  0.78452  0.10773  1.0000
  H   H83       1.0  0.96288  0.77281  0.14510  1.0000
  C   C148      1.0  0.98288  0.76521  0.26965  1.0000
  H   H84       1.0  0.98500  0.75879  0.21616  1.0000
  C   C149      1.0  0.28393  0.39035  0.30827  1.0000
  C   C150      1.0  0.28130  0.40080  0.23810  1.0000
  N   N17       1.0  0.27926  0.41589  0.25561  1.0000
  C   C151      1.0  0.27959  0.42187  0.33919  1.0000
  C   C152      1.0  0.27032  0.46214  0.29416  1.0000
  H   H85       1.0  0.28073  0.39719  0.17337  1.0000
  N   N18       1.0  0.27376  0.44710  0.28414  1.0000
  H   H86       1.0  0.26775  0.46835  0.23840  1.0000
  C   C153      1.0  0.28513  0.37483  0.29113  1.0000
  H   H87       1.0  0.27848  0.37018  0.24450  1.0000
  C   C154      1.0  0.71509  0.60879  0.30868  1.0000
  C   C155      1.0  0.71770  0.59833  0.23854  1.0000
  N   N19       1.0  0.71972  0.58324  0.25611  1.0000
  C   C156      1.0  0.71940  0.57727  0.33971  1.0000
  C   C157      1.0  0.72860  0.53700  0.29474  1.0000
  H   H88       1.0  0.71827  0.60193  0.17380  1.0000
  N   N20       1.0  0.72517  0.55203  0.28471  1.0000
  H   H89       1.0  0.73115  0.53077  0.23898  1.0000
  C   C158      1.0  0.71390  0.62431  0.29146  1.0000
  H   H90       1.0  0.72057  0.62895  0.24490  1.0000
  C   C159      1.0  0.39033  0.71512  0.30830  1.0000
  C   C160      1.0  0.40077  0.71776  0.23814  1.0000
  N   N21       1.0  0.41587  0.71980  0.25565  1.0000
  C   C161      1.0  0.42185  0.71947  0.33923  1.0000
  C   C162      1.0  0.46211  0.72876  0.29420  1.0000
  H   H91       1.0  0.39716  0.71833  0.17340  1.0000
  N   N22       1.0  0.44707  0.72531  0.28419  1.0000
  H   H92       1.0  0.46832  0.73133  0.23845  1.0000
  C   C163      1.0  0.37481  0.71391  0.29115  1.0000
  H   H93       1.0  0.37016  0.72057  0.24455  1.0000
  C   C164      1.0  0.60876  0.28396  0.30866  1.0000
  C   C165      1.0  0.59831  0.28135  0.23851  1.0000
  N   N23       1.0  0.58321  0.27934  0.25607  1.0000
  C   C166      1.0  0.57724  0.27966  0.33968  1.0000
  C   C167      1.0  0.53696  0.27048  0.29470  1.0000
  H   H94       1.0  0.60191  0.28079  0.17376  1.0000
  N   N24       1.0  0.55200  0.27390  0.28467  1.0000
  H   H95       1.0  0.53074  0.26793  0.23893  1.0000
  C   C168      1.0  0.62428  0.28514  0.29145  1.0000
  H   H96       1.0  0.62892  0.27848  0.24485  1.0000
  C   C169      1.0  0.20625  0.23682  0.30774  1.0000
  C   C170      1.0  0.21390  0.24411  0.23649  1.0000
  N   N25       1.0  0.22413  0.25546  0.25256  1.0000
  C   C171      1.0  0.22765  0.26051  0.33571  1.0000
  C   C172      1.0  0.25751  0.28890  0.28636  1.0000
  H   H97       1.0  0.21207  0.24083  0.17195  1.0000
  N   N26       1.0  0.24629  0.27827  0.27795  1.0000
  H   H98       1.0  0.26274  0.29282  0.22985  1.0000
  C   C173      1.0  0.19674  0.22443  0.29168  1.0000
  H   H99       1.0  0.19940  0.21727  0.24233  1.0000
  C   C174      1.0  0.79283  0.76226  0.30790  1.0000
  C   C175      1.0  0.78516  0.75499  0.23662  1.0000
  N   N27       1.0  0.77492  0.74365  0.25266  1.0000
  C   C176      1.0  0.77141  0.73858  0.33578  1.0000
  C   C177      1.0  0.74151  0.71024  0.28634  1.0000
  H   H100      1.0  0.78700  0.75827  0.17210  1.0000
  N   N28       1.0  0.75274  0.72086  0.27796  1.0000
  H   H101      1.0  0.73628  0.70633  0.22982  1.0000
  C   C178      1.0  0.80235  0.77465  0.29187  1.0000
  H   H102      1.0  0.79969  0.78181  0.24254  1.0000
  C   C179      1.0  0.76226  0.20622  0.30778  1.0000
  C   C180      1.0  0.75498  0.21388  0.23651  1.0000
  N   N29       1.0  0.74364  0.22412  0.25255  1.0000
  C   C181      1.0  0.73858  0.22764  0.33569  1.0000
  C   C182      1.0  0.71022  0.25752  0.28627  1.0000
  H   H103      1.0  0.75826  0.21205  0.17197  1.0000
  N   N30       1.0  0.72084  0.24629  0.27788  1.0000
  H   H104      1.0  0.70630  0.26275  0.22975  1.0000
  C   C183      1.0  0.77465  0.19671  0.29174  1.0000
  H   H105      1.0  0.78181  0.19937  0.24238  1.0000
  C   C184      1.0  0.23682  0.79281  0.30787  1.0000
  C   C185      1.0  0.24410  0.78515  0.23661  1.0000
  N   N31       1.0  0.25545  0.77491  0.25267  1.0000
  C   C186      1.0  0.26050  0.77139  0.33581  1.0000
  C   C187      1.0  0.28887  0.74152  0.28643  1.0000
  H   H106      1.0  0.24082  0.78697  0.17207  1.0000
  N   N32       1.0  0.27825  0.75274  0.27803  1.0000
  H   H107      1.0  0.29279  0.73628  0.22992  1.0000
  C   C188      1.0  0.22443  0.80232  0.29181  1.0000
  H   H108      1.0  0.21727  0.79965  0.24249  1.0000
  C   C189      1.0  0.53214  0.97659  0.32229  1.0000
  C   C190      1.0  0.52509  0.98436  0.25072  1.0000
  N   N33       1.0  0.51258  0.99320  0.26516  1.0000
  C   C191      1.0  0.50623  0.99525  0.34693  1.0000
  C   C192      1.0  0.47411  0.02063  0.29247  1.0000
  H   H109      1.0  0.52913  0.98334  0.18704  1.0000
  N   N34       1.0  0.48665  0.01157  0.28633  1.0000
  H   H110      1.0  0.46987  0.02544  0.23547  1.0000
  C   C193      1.0  0.54479  0.96746  0.30736  1.0000
  H   H111      1.0  0.55267  0.97088  0.26374  1.0000
  C   C194      1.0  0.02248  0.53214  0.32230  1.0000
  C   C195      1.0  0.01471  0.52510  0.25072  1.0000
  N   N35       1.0  0.00587  0.51258  0.26516  1.0000
  C   C196      1.0  0.00383  0.50623  0.34693  1.0000
  C   C197      1.0  0.97844  0.47411  0.29246  1.0000
  H   H112      1.0  0.01573  0.52914  0.18705  1.0000
  N   N36       1.0  0.98750  0.48666  0.28633  1.0000
  H   H113      1.0  0.97363  0.46987  0.23547  1.0000
  C   C198      1.0  0.03161  0.54480  0.30737  1.0000
  H   H114      1.0  0.02819  0.55267  0.26374  1.0000
  C   C199      1.0  0.25955  0.02486  0.32922  1.0000
  C   C200      1.0  0.25340  0.00998  0.32455  1.0000
  C   C201      1.0  0.23738  0.00760  0.32735  1.0000
  C   C202      1.0  0.22748  0.02031  0.33561  1.0000
  C   C203      1.0  0.23347  0.03530  0.33975  1.0000
  C   C204      1.0  0.24948  0.03746  0.33479  1.0000
  H   H115      1.0  0.21588  0.01866  0.33790  1.0000
  H   H116      1.0  0.25386  0.04835  0.33411  1.0000
  H   H117      1.0  0.26064  0.00078  0.32021  1.0000
  N   N37       1.0  0.27457  0.02682  0.32253  1.0000
  N   N38       1.0  0.23166  0.99353  0.32805  1.0000
  N   N39       1.0  0.22424  0.04737  0.34019  1.0000
  C   C205      1.0  0.73950  0.97418  0.32796  1.0000
  C   C206      1.0  0.74565  0.98907  0.32340  1.0000
  C   C207      1.0  0.76167  0.99146  0.32665  1.0000
  C   C208      1.0  0.77156  0.97875  0.33513  1.0000
  C   C209      1.0  0.76558  0.96376  0.33908  1.0000
  C   C210      1.0  0.74957  0.96159  0.33373  1.0000
  H   H118      1.0  0.78317  0.98040  0.33768  1.0000
  H   H119      1.0  0.74520  0.95070  0.33297  1.0000
  H   H120      1.0  0.73840  0.99826  0.31894  1.0000
  N   N40       1.0  0.72449  0.97221  0.32089  1.0000
  N   N41       1.0  0.76737  0.00553  0.32746  1.0000
  N   N42       1.0  0.77481  0.95169  0.33973  1.0000
  C   C211      1.0  0.97421  0.25956  0.32918  1.0000
  C   C212      1.0  0.98908  0.25340  0.32452  1.0000
  C   C213      1.0  0.99146  0.23738  0.32733  1.0000
  C   C214      1.0  0.97875  0.22749  0.33560  1.0000
  C   C215      1.0  0.96376  0.23348  0.33975  1.0000
  C   C216      1.0  0.96160  0.24949  0.33477  1.0000
  H   H121      1.0  0.98040  0.21588  0.33790  1.0000
  H   H122      1.0  0.95072  0.25386  0.33409  1.0000
  H   H123      1.0  0.99828  0.26065  0.32017  1.0000
  N   N43       1.0  0.97224  0.27458  0.32250  1.0000
  N   N44       1.0  0.00553  0.23167  0.32804  1.0000
  N   N45       1.0  0.95169  0.22425  0.34019  1.0000
  C   C217      1.0  0.02488  0.73951  0.32799  1.0000
  C   C218      1.0  0.01000  0.74566  0.32344  1.0000
  C   C219      1.0  0.00761  0.76167  0.32667  1.0000
  C   C220      1.0  0.02032  0.77157  0.33514  1.0000
  C   C221      1.0  0.03531  0.76558  0.33909  1.0000
  C   C222      1.0  0.03748  0.74958  0.33375  1.0000
  H   H124      1.0  0.01866  0.78317  0.33769  1.0000
  H   H125      1.0  0.04836  0.74521  0.33299  1.0000
  H   H126      1.0  0.00080  0.73841  0.31897  1.0000
  N   N46       1.0  0.02686  0.72450  0.32092  1.0000
  N   N47       1.0  0.99353  0.76738  0.32747  1.0000
  N   N48       1.0  0.04738  0.77482  0.33973  1.0000
  C   C223      1.0  0.23910  0.52599  0.33506  1.0000
  C   C224      1.0  0.24504  0.51102  0.33955  1.0000
  C   C225      1.0  0.26102  0.50838  0.33748  1.0000
  C   C226      1.0  0.27112  0.52094  0.32996  1.0000
  C   C227      1.0  0.26536  0.53602  0.32595  1.0000
  C   C228      1.0  0.24938  0.53844  0.33026  1.0000
  H   H127      1.0  0.28270  0.51912  0.32795  1.0000
  H   H128      1.0  0.24520  0.54940  0.33091  1.0000
  H   H129      1.0  0.23766  0.50192  0.34307  1.0000
  N   N49       1.0  0.22405  0.52797  0.34030  1.0000
  N   N50       1.0  0.26654  0.49422  0.33642  1.0000
  N   N51       1.0  0.27478  0.54795  0.32552  1.0000
  C   C229      1.0  0.75976  0.47317  0.33391  1.0000
  C   C230      1.0  0.75382  0.48814  0.33899  1.0000
  C   C231      1.0  0.73783  0.49076  0.33774  1.0000
  C   C232      1.0  0.72773  0.47819  0.33059  1.0000
  C   C233      1.0  0.73350  0.46312  0.32615  1.0000
  C   C234      1.0  0.74948  0.46072  0.32957  1.0000
  H   H130      1.0  0.71615  0.48001  0.32914  1.0000
  H   H131      1.0  0.75368  0.44976  0.32981  1.0000
  H   H132      1.0  0.76120  0.49724  0.34221  1.0000
  N   N52       1.0  0.77482  0.47119  0.33844  1.0000
  N   N53       1.0  0.73231  0.50492  0.33698  1.0000
  N   N54       1.0  0.72409  0.45119  0.32587  1.0000
  C   C235      1.0  0.52597  0.75998  0.33509  1.0000
  C   C236      1.0  0.51099  0.75404  0.33959  1.0000
  C   C237      1.0  0.50835  0.73806  0.33752  1.0000
  C   C238      1.0  0.52091  0.72796  0.32998  1.0000
  C   C239      1.0  0.53599  0.73371  0.32596  1.0000
  C   C240      1.0  0.53841  0.74969  0.33028  1.0000
  H   H133      1.0  0.51908  0.71638  0.32797  1.0000
  H   H134      1.0  0.54937  0.75387  0.33091  1.0000
  H   H135      1.0  0.50189  0.76142  0.34313  1.0000
  N   N55       1.0  0.52794  0.77503  0.34033  1.0000
  N   N56       1.0  0.49419  0.73254  0.33646  1.0000
  N   N57       1.0  0.54791  0.72429  0.32549  1.0000
  C   C241      1.0  0.47314  0.23931  0.33388  1.0000
  C   C242      1.0  0.48811  0.24526  0.33894  1.0000
  C   C243      1.0  0.49073  0.26124  0.33770  1.0000
  C   C244      1.0  0.47816  0.27134  0.33057  1.0000
  C   C245      1.0  0.46309  0.26558  0.32614  1.0000
  C   C246      1.0  0.46069  0.24959  0.32956  1.0000
  H   H136      1.0  0.47998  0.28293  0.32913  1.0000
  H   H137      1.0  0.44973  0.24539  0.32981  1.0000
  H   H138      1.0  0.49721  0.23788  0.34214  1.0000
  N   N58       1.0  0.47117  0.22426  0.33841  1.0000
  N   N59       1.0  0.50489  0.26676  0.33693  1.0000
  N   N60       1.0  0.45115  0.27498  0.32589  1.0000
  C   C247      1.0  0.17495  0.21032  0.33369  1.0000
  C   C248      1.0  0.15910  0.21342  0.33359  1.0000
  C   C249      1.0  0.14830  0.20135  0.33192  1.0000
  C   C250      1.0  0.15353  0.18607  0.33042  1.0000
  C   C251      1.0  0.16932  0.18274  0.33150  1.0000
  C   C252      1.0  0.17995  0.19493  0.33425  1.0000
  H   H139      1.0  0.14576  0.17728  0.32931  1.0000
  H   H140      1.0  0.19142  0.19259  0.33861  1.0000
  H   H141      1.0  0.15540  0.22455  0.33321  1.0000
  N   N61       1.0  0.18473  0.22192  0.33913  1.0000
  N   N62       1.0  0.13336  0.20382  0.32647  1.0000
  N   N63       1.0  0.17370  0.16824  0.33738  1.0000
  C   C253      1.0  0.82413  0.78875  0.33393  1.0000
  C   C254      1.0  0.83998  0.78565  0.33384  1.0000
  C   C255      1.0  0.85077  0.79772  0.33208  1.0000
  C   C256      1.0  0.84555  0.81300  0.33069  1.0000
  C   C257      1.0  0.82975  0.81633  0.33191  1.0000
  C   C258      1.0  0.81912  0.80414  0.33463  1.0000
  H   H142      1.0  0.85332  0.82180  0.32956  1.0000
  H   H143      1.0  0.80766  0.80648  0.33898  1.0000
  H   H144      1.0  0.84368  0.77452  0.33333  1.0000
  N   N64       1.0  0.81435  0.77715  0.33936  1.0000
  N   N65       1.0  0.86572  0.79525  0.32658  1.0000
  N   N66       1.0  0.82537  0.83083  0.33775  1.0000
  C   C259      1.0  0.78875  0.17493  0.33385  1.0000
  C   C260      1.0  0.78565  0.15909  0.33375  1.0000
  C   C261      1.0  0.79772  0.14829  0.33210  1.0000
  C   C262      1.0  0.81300  0.15351  0.33060  1.0000
  C   C263      1.0  0.81633  0.16930  0.33168  1.0000
  C   C264      1.0  0.80414  0.17993  0.33441  1.0000
  H   H145      1.0  0.82180  0.14573  0.32948  1.0000
  H   H146      1.0  0.80649  0.19140  0.33876  1.0000
  H   H147      1.0  0.77452  0.15538  0.33335  1.0000
  N   N67       1.0  0.77716  0.18471  0.33925  1.0000
  N   N68       1.0  0.79525  0.13334  0.32661  1.0000
  N   N69       1.0  0.83084  0.17368  0.33754  1.0000
  C   C265      1.0  0.21033  0.82411  0.33378  1.0000
  C   C266      1.0  0.21343  0.83995  0.33368  1.0000
  C   C267      1.0  0.20135  0.85075  0.33190  1.0000
  C   C268      1.0  0.18608  0.84553  0.33051  1.0000
  C   C269      1.0  0.18275  0.82973  0.33174  1.0000
  C   C270      1.0  0.19494  0.81910  0.33447  1.0000
  H   H148      1.0  0.17728  0.85330  0.32938  1.0000
  H   H149      1.0  0.19260  0.80764  0.33883  1.0000
  H   H150      1.0  0.22456  0.84366  0.33319  1.0000
  N   N70       1.0  0.22193  0.81433  0.33924  1.0000
  N   N71       1.0  0.20382  0.86570  0.32645  1.0000
  N   N72       1.0  0.16825  0.82535  0.33759  1.0000
  C   C271      1.0  0.32483  0.71056  0.33082  1.0000
  C   C272      1.0  0.34065  0.71375  0.32969  1.0000
  C   C273      1.0  0.35152  0.70173  0.32860  1.0000
  C   C274      1.0  0.34637  0.68642  0.32861  1.0000
  C   C275      1.0  0.33059  0.68301  0.32872  1.0000
  C   C276      1.0  0.31989  0.69515  0.32867  1.0000
  H   H151      1.0  0.35419  0.67767  0.32820  1.0000
  H   H152      1.0  0.30842  0.69277  0.32585  1.0000
  H   H153      1.0  0.34430  0.72489  0.33170  1.0000
  N   N73       1.0  0.31493  0.72209  0.32947  1.0000
  N   N74       1.0  0.36646  0.70428  0.33390  1.0000
  N   N75       1.0  0.32625  0.66850  0.32260  1.0000
  C   C277      1.0  0.67427  0.28849  0.33070  1.0000
  C   C278      1.0  0.65844  0.28530  0.32961  1.0000
  C   C279      1.0  0.64758  0.29732  0.32876  1.0000
  C   C280      1.0  0.65273  0.31263  0.32871  1.0000
  C   C281      1.0  0.66851  0.31603  0.32866  1.0000
  C   C282      1.0  0.67921  0.30389  0.32853  1.0000
  H   H154      1.0  0.64492  0.32138  0.32841  1.0000
  H   H155      1.0  0.69068  0.30627  0.32567  1.0000
  H   H156      1.0  0.65480  0.27415  0.33171  1.0000
  N   N76       1.0  0.68417  0.27695  0.32930  1.0000
  N   N77       1.0  0.63264  0.29478  0.33411  1.0000
  N   N78       1.0  0.67285  0.33055  0.32263  1.0000
  C   C283      1.0  0.71054  0.67429  0.33068  1.0000
  C   C284      1.0  0.71373  0.65847  0.32968  1.0000
  C   C285      1.0  0.70172  0.64760  0.32865  1.0000
  C   C286      1.0  0.68641  0.65275  0.32858  1.0000
  C   C287      1.0  0.68300  0.66853  0.32857  1.0000
  C   C288      1.0  0.69514  0.67923  0.32847  1.0000
  H   H157      1.0  0.67765  0.64494  0.32822  1.0000
  H   H158      1.0  0.69276  0.69070  0.32557  1.0000
  H   H159      1.0  0.72488  0.65482  0.33175  1.0000
  N   N79       1.0  0.72207  0.68419  0.32932  1.0000
  N   N80       1.0  0.70425  0.63267  0.33405  1.0000
  N   N81       1.0  0.66848  0.67287  0.32243  1.0000
  C   C289      1.0  0.28847  0.32485  0.33083  1.0000
  C   C290      1.0  0.28528  0.34068  0.32962  1.0000
  C   C291      1.0  0.29730  0.35154  0.32871  1.0000
  C   C292      1.0  0.31261  0.34639  0.32874  1.0000
  C   C293      1.0  0.31602  0.33061  0.32882  1.0000
  C   C294      1.0  0.30387  0.31991  0.32873  1.0000
  H   H160      1.0  0.32137  0.35421  0.32839  1.0000
  H   H161      1.0  0.30625  0.30844  0.32595  1.0000
  H   H162      1.0  0.27414  0.34432  0.33166  1.0000
  N   N82       1.0  0.27694  0.31495  0.32944  1.0000
  N   N83       1.0  0.29475  0.36648  0.33395  1.0000
  N   N84       1.0  0.33053  0.32627  0.32280  1.0000
  C   C295      1.0  0.41570  0.06354  0.32773  1.0000
  C   C296      1.0  0.42686  0.05198  0.33662  1.0000
  C   C297      1.0  0.44260  0.05571  0.34011  1.0000
  C   C298      1.0  0.44705  0.07121  0.33561  1.0000
  C   C299      1.0  0.43598  0.08300  0.33086  1.0000
  C   C300      1.0  0.42035  0.07903  0.32539  1.0000
  H   H163      1.0  0.45845  0.07397  0.33688  1.0000
  H   H164      1.0  0.41225  0.08750  0.32202  1.0000
  H   H165      1.0  0.42353  0.04074  0.33808  1.0000
  N   N85       1.0  0.40109  0.05943  0.32730  1.0000
  N   N86       1.0  0.45356  0.04522  0.34254  1.0000
  N   N87       1.0  0.43964  0.09775  0.32934  1.0000
  C   C301      1.0  0.58346  0.93552  0.32336  1.0000
  C   C302      1.0  0.57242  0.94720  0.33181  1.0000
  C   C303      1.0  0.55666  0.94363  0.33740  1.0000
  C   C304      1.0  0.55213  0.92814  0.33965  1.0000
  C   C305      1.0  0.56307  0.91624  0.33379  1.0000
  C   C306      1.0  0.57868  0.92006  0.32406  1.0000
  H   H166      1.0  0.54073  0.92548  0.34430  1.0000
  H   H167      1.0  0.58670  0.91152  0.32067  1.0000
  H   H168      1.0  0.57588  0.95841  0.33349  1.0000
  N   N88       1.0  0.59809  0.93951  0.32228  1.0000
  N   N89       1.0  0.54584  0.95422  0.34427  1.0000
  N   N90       1.0  0.55932  0.90152  0.33414  1.0000
  C   C307      1.0  0.93553  0.41570  0.32771  1.0000
  C   C308      1.0  0.94709  0.42687  0.33660  1.0000
  C   C309      1.0  0.94336  0.44261  0.34010  1.0000
  C   C310      1.0  0.92785  0.44705  0.33561  1.0000
  C   C311      1.0  0.91607  0.43598  0.33086  1.0000
  C   C312      1.0  0.92003  0.42036  0.32539  1.0000
  H   H169      1.0  0.92510  0.45845  0.33688  1.0000
  H   H170      1.0  0.91157  0.41225  0.32202  1.0000
  H   H171      1.0  0.95833  0.42354  0.33806  1.0000
  N   N91       1.0  0.93963  0.40110  0.32729  1.0000
  N   N92       1.0  0.95385  0.45356  0.34253  1.0000
  N   N93       1.0  0.90132  0.43965  0.32934  1.0000
  C   C313      1.0  0.06355  0.58346  0.32337  1.0000
  C   C314      1.0  0.05187  0.57243  0.33182  1.0000
  C   C315      1.0  0.05544  0.55667  0.33740  1.0000
  C   C316      1.0  0.07093  0.55214  0.33965  1.0000
  C   C317      1.0  0.08282  0.56308  0.33379  1.0000
  C   C318      1.0  0.07901  0.57869  0.32406  1.0000
  H   H172      1.0  0.07359  0.54074  0.34430  1.0000
  H   H173      1.0  0.08755  0.58671  0.32068  1.0000
  H   H174      1.0  0.04066  0.57588  0.33351  1.0000
  N   N94       1.0  0.05956  0.59810  0.32229  1.0000
  N   N95       1.0  0.04485  0.54584  0.34428  1.0000
  N   N96       1.0  0.09755  0.55933  0.33413  1.0000
  C   C319      1.0  0.29875  0.03675  0.35611  1.0000
  C   C320      1.0  0.30905  0.03976  0.42658  1.0000
  N   N97       1.0  0.32387  0.04326  0.40930  1.0000
  C   C321      1.0  0.32974  0.04403  0.32561  1.0000
  C   C322      1.0  0.36901  0.05654  0.37266  1.0000
  H   H175      1.0  0.30548  0.03972  0.49147  1.0000
  N   N98       1.0  0.35432  0.05182  0.38186  1.0000
  H   H176      1.0  0.37511  0.05908  0.42891  1.0000
  C   C323      1.0  0.28330  0.03478  0.37373  1.0000
  H   H177      1.0  0.27880  0.04008  0.42642  1.0000
  C   C324      1.0  0.70031  0.96226  0.35418  1.0000
  C   C325      1.0  0.68996  0.95928  0.42446  1.0000
  N   N99       1.0  0.67517  0.95569  0.40686  1.0000
  C   C326      1.0  0.66938  0.95480  0.32304  1.0000
  C   C327      1.0  0.63013  0.94216  0.36944  1.0000
  H   H178      1.0  0.69347  0.95941  0.48945  1.0000
  N   N100      1.0  0.64479  0.94695  0.37888  1.0000
  H   H179      1.0  0.62400  0.93967  0.42561  1.0000
  C   C328      1.0  0.71574  0.96430  0.37218  1.0000
  H   H180      1.0  0.72020  0.95906  0.42518  1.0000
  C   C329      1.0  0.96231  0.29875  0.35609  1.0000
  C   C330      1.0  0.95931  0.30905  0.42656  1.0000
  N   N101      1.0  0.95580  0.32387  0.40927  1.0000
  C   C331      1.0  0.95503  0.32975  0.32559  1.0000
  C   C332      1.0  0.94253  0.36902  0.37264  1.0000
  H   H181      1.0  0.95935  0.30548  0.49145  1.0000
  N   N102      1.0  0.94725  0.35433  0.38184  1.0000
  H   H182      1.0  0.93999  0.37511  0.42889  1.0000
  C   C333      1.0  0.96429  0.28330  0.37370  1.0000
  H   H183      1.0  0.95899  0.27881  0.42640  1.0000
  C   C334      1.0  0.03681  0.70031  0.35421  1.0000
  C   C335      1.0  0.03978  0.68997  0.42448  1.0000
  N   N103      1.0  0.04338  0.67518  0.40689  1.0000
  C   C336      1.0  0.04427  0.66939  0.32306  1.0000
  C   C337      1.0  0.05691  0.63014  0.36946  1.0000
  H   H184      1.0  0.03965  0.69348  0.48947  1.0000
  N   N104      1.0  0.05211  0.64480  0.37890  1.0000
  H   H185      1.0  0.05940  0.62400  0.42563  1.0000
  C   C338      1.0  0.03477  0.71574  0.37220  1.0000
  H   H186      1.0  0.04000  0.72020  0.42520  1.0000
  C   C339      1.0  0.17771  0.53882  0.41237  1.0000
  C   C340      1.0  0.19362  0.53717  0.39811  1.0000
  H   H187      1.0  0.20072  0.53560  0.45165  1.0000
  C   C341      1.0  0.15217  0.54318  0.34921  1.0000
  C   C342      1.0  0.12037  0.54717  0.36977  1.0000
  C   C343      1.0  0.12970  0.54442  0.44508  1.0000
  C   C344      1.0  0.14569  0.54249  0.43594  1.0000
  C   C345      1.0  0.15532  0.53997  0.51006  1.0000
  C   C346      1.0  0.17121  0.53816  0.49838  1.0000
  H   H188      1.0  0.15086  0.53948  0.57305  1.0000
  H   H189      1.0  0.17797  0.53640  0.55312  1.0000
  H   H190      1.0  0.12486  0.54400  0.50722  1.0000
  C   C347      1.0  0.10472  0.54905  0.37908  1.0000
  H   H191      1.0  0.09916  0.54276  0.42395  1.0000
  C   C348      1.0  0.82115  0.46015  0.40862  1.0000
  C   C349      1.0  0.80524  0.46186  0.39472  1.0000
  H   H192      1.0  0.79817  0.46337  0.44848  1.0000
  C   C350      1.0  0.84666  0.45583  0.34484  1.0000
  C   C351      1.0  0.87846  0.45179  0.36489  1.0000
  C   C352      1.0  0.86914  0.45443  0.44041  1.0000
  C   C353      1.0  0.85316  0.45639  0.43154  1.0000
  C   C354      1.0  0.84357  0.45881  0.50593  1.0000
  C   C355      1.0  0.82769  0.46066  0.49457  1.0000
  H   H193      1.0  0.84805  0.45921  0.56887  1.0000
  H   H194      1.0  0.82095  0.46236  0.54949  1.0000
  H   H195      1.0  0.87400  0.45476  0.50255  1.0000
  C   C356      1.0  0.89409  0.44990  0.37424  1.0000
  H   H196      1.0  0.89961  0.45610  0.41975  1.0000
  C   C357      1.0  0.53880  0.82136  0.41240  1.0000
  C   C358      1.0  0.53716  0.80545  0.39813  1.0000
  H   H197      1.0  0.53558  0.79835  0.45168  1.0000
  C   C359      1.0  0.54317  0.84690  0.34923  1.0000
  C   C360      1.0  0.54716  0.87870  0.36979  1.0000
  C   C361      1.0  0.54442  0.86936  0.44510  1.0000
  C   C362      1.0  0.54248  0.85338  0.43597  1.0000
  C   C363      1.0  0.53997  0.84375  0.51009  1.0000
  C   C364      1.0  0.53816  0.82787  0.49841  1.0000
  H   H198      1.0  0.53947  0.84820  0.57308  1.0000
  H   H199      1.0  0.53639  0.82110  0.55314  1.0000
  H   H200      1.0  0.54400  0.87421  0.50725  1.0000
  C   C365      1.0  0.54904  0.89434  0.37910  1.0000
  H   H201      1.0  0.54276  0.89991  0.42398  1.0000
  C   C366      1.0  0.46014  0.17792  0.40859  1.0000
  C   C367      1.0  0.46184  0.19383  0.39469  1.0000
  H   H202      1.0  0.46335  0.20090  0.44845  1.0000
  C   C368      1.0  0.45582  0.15241  0.34482  1.0000
  C   C369      1.0  0.45179  0.12061  0.36487  1.0000
  C   C370      1.0  0.45443  0.12993  0.44039  1.0000
  C   C371      1.0  0.45638  0.14591  0.43152  1.0000
  C   C372      1.0  0.45881  0.15550  0.50591  1.0000
  C   C373      1.0  0.46065  0.17138  0.49454  1.0000
  H   H203      1.0  0.45921  0.15102  0.56885  1.0000
  H   H204      1.0  0.46236  0.17812  0.54945  1.0000
  H   H205      1.0  0.45476  0.12507  0.50252  1.0000
  C   C374      1.0  0.44990  0.10498  0.37422  1.0000
  H   H206      1.0  0.45610  0.09946  0.41972  1.0000
  C   C375      1.0  0.19355  0.12536  0.41674  1.0000
  C   C376      1.0  0.18877  0.14052  0.39941  1.0000
  H   H207      1.0  0.18659  0.14773  0.45177  1.0000
  C   C377      1.0  0.20253  0.10071  0.35826  1.0000
  C   C378      1.0  0.21550  0.07151  0.38505  1.0000
  C   C379      1.0  0.21127  0.08066  0.45886  1.0000
  C   C380      1.0  0.20472  0.09531  0.44659  1.0000
  C   C381      1.0  0.20094  0.10487  0.51915  1.0000
  C   C382      1.0  0.19535  0.11976  0.50434  1.0000
  H   H208      1.0  0.20255  0.10121  0.58323  1.0000
  H   H209      1.0  0.19300  0.12661  0.55797  1.0000
  H   H210      1.0  0.21351  0.07688  0.52220  1.0000
  C   C383      1.0  0.22412  0.05834  0.39745  1.0000
  H   H211      1.0  0.23137  0.05803  0.44871  1.0000
  C   C384      1.0  0.80549  0.87372  0.41680  1.0000
  C   C385      1.0  0.81027  0.85855  0.39957  1.0000
  H   H212      1.0  0.81245  0.85135  0.45197  1.0000
  C   C386      1.0  0.79650  0.89835  0.35816  1.0000
  C   C387      1.0  0.78352  0.92755  0.38473  1.0000
  C   C388      1.0  0.78773  0.91841  0.45862  1.0000
  C   C389      1.0  0.79429  0.90376  0.44646  1.0000
  C   C390      1.0  0.79806  0.89421  0.51908  1.0000
  C   C391      1.0  0.80366  0.87932  0.50437  1.0000
  H   H213      1.0  0.79644  0.89788  0.58313  1.0000
  H   H214      1.0  0.80601  0.87248  0.55804  1.0000
  H   H215      1.0  0.78548  0.92220  0.52191  1.0000
  C   C392      1.0  0.77491  0.94072  0.39701  1.0000
  H   H216      1.0  0.76761  0.94102  0.44807  1.0000
  C   C393      1.0  0.87372  0.19354  0.41683  1.0000
  C   C394      1.0  0.85855  0.18876  0.39952  1.0000
  H   H217      1.0  0.85135  0.18657  0.45188  1.0000
  C   C395      1.0  0.89836  0.20253  0.35832  1.0000
  C   C396      1.0  0.92756  0.21551  0.38508  1.0000
  C   C397      1.0  0.91841  0.21128  0.45890  1.0000
  C   C398      1.0  0.90376  0.20472  0.44665  1.0000
  C   C399      1.0  0.89420  0.20095  0.51922  1.0000
  C   C400      1.0  0.87931  0.19534  0.50443  1.0000
  H   H218      1.0  0.89787  0.20255  0.58330  1.0000
  H   H219      1.0  0.87247  0.19299  0.55806  1.0000
  H   H220      1.0  0.92219  0.21352  0.52223  1.0000
  C   C401      1.0  0.94072  0.22412  0.39747  1.0000
  H   H221      1.0  0.94104  0.23138  0.44871  1.0000
  C   C402      1.0  0.12536  0.80548  0.41672  1.0000
  C   C403      1.0  0.14052  0.81025  0.39947  1.0000
  H   H222      1.0  0.14773  0.81244  0.45186  1.0000
  C   C404      1.0  0.10072  0.79650  0.35810  1.0000
  C   C405      1.0  0.07152  0.78352  0.38470  1.0000
  C   C406      1.0  0.08066  0.78774  0.45858  1.0000
  C   C407      1.0  0.09531  0.79429  0.44640  1.0000
  C   C408      1.0  0.10487  0.79806  0.51901  1.0000
  C   C409      1.0  0.11976  0.80366  0.50429  1.0000
  H   H223      1.0  0.10119  0.79645  0.58307  1.0000
  H   H224      1.0  0.12659  0.80600  0.55795  1.0000
  H   H225      1.0  0.07687  0.78549  0.52188  1.0000
  C   C410      1.0  0.05834  0.77492  0.39700  1.0000
  H   H226      1.0  0.05804  0.76762  0.44807  1.0000
  C   C411      1.0  0.31251  0.64620  0.35054  1.0000
  C   C412      1.0  0.30897  0.63605  0.42082  1.0000
  N   N105      1.0  0.30438  0.62153  0.40308  1.0000
  C   C413      1.0  0.30292  0.61588  0.31915  1.0000
  C   C414      1.0  0.28714  0.57774  0.36490  1.0000
  H   H227      1.0  0.30956  0.63949  0.48586  1.0000
  N   N106      1.0  0.29339  0.59184  0.37457  1.0000
  H   H228      1.0  0.28395  0.57197  0.42118  1.0000
  C   C415      1.0  0.31607  0.66133  0.36829  1.0000
  H   H229      1.0  0.31053  0.66670  0.41720  1.0000
  C   C416      1.0  0.68658  0.35284  0.35062  1.0000
  C   C417      1.0  0.69011  0.36300  0.42093  1.0000
  N   N107      1.0  0.69466  0.37752  0.40322  1.0000
  C   C418      1.0  0.69610  0.38319  0.31931  1.0000
  C   C419      1.0  0.71177  0.42137  0.36512  1.0000
  H   H230      1.0  0.68952  0.35955  0.48595  1.0000
  N   N108      1.0  0.70556  0.40725  0.37478  1.0000
  H   H231      1.0  0.71494  0.42715  0.42140  1.0000
  C   C420      1.0  0.68304  0.33770  0.36830  1.0000
  H   H232      1.0  0.68859  0.33233  0.41717  1.0000
  C   C421      1.0  0.64618  0.68661  0.35036  1.0000
  C   C422      1.0  0.63603  0.69015  0.42065  1.0000
  N   N109      1.0  0.62152  0.69473  0.40292  1.0000
  C   C423      1.0  0.61586  0.69618  0.31900  1.0000
  C   C424      1.0  0.57771  0.71194  0.36482  1.0000
  H   H233      1.0  0.63948  0.68955  0.48568  1.0000
  N   N110      1.0  0.59182  0.70570  0.37446  1.0000
  H   H234      1.0  0.57194  0.71513  0.42110  1.0000
  C   C425      1.0  0.66132  0.68306  0.36809  1.0000
  H   H235      1.0  0.66668  0.68860  0.41700  1.0000
  C   C426      1.0  0.35283  0.31254  0.35080  1.0000
  C   C427      1.0  0.36298  0.30901  0.42109  1.0000
  N   N111      1.0  0.37750  0.30444  0.40337  1.0000
  C   C428      1.0  0.38316  0.30300  0.31945  1.0000
  C   C429      1.0  0.42135  0.28731  0.36521  1.0000
  H   H236      1.0  0.35954  0.30960  0.48612  1.0000
  N   N112      1.0  0.40722  0.29352  0.37488  1.0000
  H   H237      1.0  0.42712  0.28413  0.42148  1.0000
  C   C430      1.0  0.33769  0.31609  0.36850  1.0000
  H   H238      1.0  0.33232  0.31054  0.41738  1.0000
  C   C431      1.0  0.21434  0.88968  0.35319  1.0000
  C   C432      1.0  0.21674  0.90014  0.42359  1.0000
  N   N113      1.0  0.21866  0.91525  0.40629  1.0000
  C   C433      1.0  0.21843  0.92124  0.32273  1.0000
  C   C434      1.0  0.22735  0.96154  0.36865  1.0000
  H   H239      1.0  0.21721  0.89652  0.48834  1.0000
  N   N114      1.0  0.22396  0.94649  0.37833  1.0000
  H   H240      1.0  0.22980  0.96774  0.42464  1.0000
  C   C435      1.0  0.21322  0.87415  0.37027  1.0000
  H   H241      1.0  0.21971  0.86958  0.41796  1.0000
  C   C436      1.0  0.78472  0.10936  0.35321  1.0000
  C   C437      1.0  0.78230  0.09890  0.42354  1.0000
  N   N115      1.0  0.78037  0.08378  0.40615  1.0000
  C   C438      1.0  0.78062  0.07781  0.32256  1.0000
  C   C439      1.0  0.77168  0.03751  0.36821  1.0000
  H   H242      1.0  0.78181  0.10250  0.48830  1.0000
  N   N116      1.0  0.77507  0.05256  0.37799  1.0000
  H   H243      1.0  0.76922  0.03130  0.42414  1.0000
  C   C440      1.0  0.78584  0.12489  0.37037  1.0000
  H   H244      1.0  0.77935  0.12946  0.41802  1.0000
  C   C441      1.0  0.10938  0.21435  0.35320  1.0000
  C   C442      1.0  0.09892  0.21674  0.42360  1.0000
  N   N117      1.0  0.08381  0.21867  0.40630  1.0000
  C   C443      1.0  0.07782  0.21844  0.32273  1.0000
  C   C444      1.0  0.03752  0.22736  0.36864  1.0000
  H   H245      1.0  0.10254  0.21722  0.48835  1.0000
  N   N118      1.0  0.05257  0.22397  0.37833  1.0000
  H   H246      1.0  0.03132  0.22981  0.42463  1.0000
  C   C445      1.0  0.12491  0.21323  0.37029  1.0000
  H   H247      1.0  0.12948  0.21971  0.41797  1.0000
  C   C446      1.0  0.88970  0.78472  0.35320  1.0000
  C   C447      1.0  0.90016  0.78231  0.42352  1.0000
  N   N119      1.0  0.91528  0.78038  0.40615  1.0000
  C   C448      1.0  0.92125  0.78063  0.32256  1.0000
  C   C449      1.0  0.96155  0.77169  0.36822  1.0000
  H   H248      1.0  0.89656  0.78182  0.48829  1.0000
  N   N120      1.0  0.94651  0.77507  0.37800  1.0000
  H   H249      1.0  0.96776  0.76923  0.42416  1.0000
  C   C450      1.0  0.87417  0.78585  0.37035  1.0000
  H   H250      1.0  0.86960  0.77936  0.41802  1.0000
  C   C451      1.0  0.28221  0.41198  0.41277  1.0000
  C   C452      1.0  0.28443  0.39622  0.39612  1.0000
  H   H251      1.0  0.28599  0.38891  0.44872  1.0000
  C   C453      1.0  0.27675  0.43760  0.35364  1.0000
  C   C454      1.0  0.26940  0.46870  0.38012  1.0000
  C   C455      1.0  0.27259  0.45913  0.45387  1.0000
  C   C456      1.0  0.27636  0.44353  0.44174  1.0000
  C   C457      1.0  0.27921  0.43367  0.51437  1.0000
  C   C458      1.0  0.28216  0.41803  0.49998  1.0000
  H   H252      1.0  0.27890  0.43773  0.57830  1.0000
  H   H253      1.0  0.28393  0.41104  0.55376  1.0000
  H   H254      1.0  0.27180  0.46345  0.51720  1.0000
  C   C459      1.0  0.26400  0.48346  0.39304  1.0000
  H   H255      1.0  0.25742  0.48552  0.44592  1.0000
  C   C460      1.0  0.71679  0.58717  0.41327  1.0000
  C   C461      1.0  0.71460  0.60294  0.39655  1.0000
  H   H256      1.0  0.71305  0.61026  0.44913  1.0000
  C   C462      1.0  0.72221  0.56154  0.35421  1.0000
  C   C463      1.0  0.72952  0.53044  0.38071  1.0000
  C   C464      1.0  0.72635  0.54001  0.45447  1.0000
  C   C465      1.0  0.72261  0.55562  0.44232  1.0000
  C   C466      1.0  0.71978  0.56549  0.51494  1.0000
  C   C467      1.0  0.71685  0.58114  0.50050  1.0000
  H   H257      1.0  0.72010  0.56144  0.57888  1.0000
  H   H258      1.0  0.71510  0.58813  0.55427  1.0000
  H   H259      1.0  0.72715  0.53569  0.51779  1.0000
  C   C468      1.0  0.73490  0.51567  0.39358  1.0000
  H   H260      1.0  0.74154  0.51360  0.44622  1.0000
  C   C469      1.0  0.41196  0.71684  0.41280  1.0000
  C   C470      1.0  0.39619  0.71462  0.39614  1.0000
  H   H261      1.0  0.38888  0.71305  0.44874  1.0000
  C   C471      1.0  0.43757  0.72231  0.35368  1.0000
  C   C472      1.0  0.46867  0.72968  0.38017  1.0000
  C   C473      1.0  0.45910  0.72647  0.45392  1.0000
  C   C474      1.0  0.44350  0.72271  0.44178  1.0000
  C   C475      1.0  0.43364  0.71985  0.51441  1.0000
  C   C476      1.0  0.41800  0.71689  0.50002  1.0000
  H   H262      1.0  0.43770  0.72016  0.57834  1.0000
  H   H263      1.0  0.41101  0.71512  0.55379  1.0000
  H   H264      1.0  0.46342  0.72727  0.51724  1.0000
  C   C477      1.0  0.48342  0.73507  0.39308  1.0000
  H   H265      1.0  0.48549  0.74166  0.44597  1.0000
  C   C478      1.0  0.58714  0.28226  0.41323  1.0000
  C   C479      1.0  0.60291  0.28445  0.39653  1.0000
  H   H266      1.0  0.61023  0.28599  0.44911  1.0000
  C   C480      1.0  0.56151  0.27686  0.35417  1.0000
  C   C481      1.0  0.53041  0.26955  0.38066  1.0000
  C   C482      1.0  0.53998  0.27272  0.45443  1.0000
  C   C483      1.0  0.55559  0.27645  0.44228  1.0000
  C   C484      1.0  0.56546  0.27928  0.51490  1.0000
  C   C485      1.0  0.58111  0.28220  0.50047  1.0000
  H   H267      1.0  0.56141  0.27896  0.57884  1.0000
  H   H268      1.0  0.58810  0.28395  0.55423  1.0000
  H   H269      1.0  0.53566  0.27192  0.51775  1.0000
  C   C486      1.0  0.51564  0.26418  0.39353  1.0000
  H   H270      1.0  0.51357  0.25754  0.44617  1.0000
  C   C487      1.0  0.22030  0.25372  0.41034  1.0000
  C   C488      1.0  0.20956  0.24190  0.39519  1.0000
  H   H271      1.0  0.20449  0.23663  0.44857  1.0000
  C   C489      1.0  0.23888  0.27194  0.34854  1.0000
  C   C490      1.0  0.26226  0.29384  0.37167  1.0000
  C   C491      1.0  0.25473  0.28753  0.44658  1.0000
  C   C492      1.0  0.24294  0.27659  0.43612  1.0000
  C   C493      1.0  0.23542  0.26994  0.50987  1.0000
  C   C494      1.0  0.22417  0.25863  0.49707  1.0000
  H   H272      1.0  0.23824  0.27311  0.57342  1.0000
  H   H273      1.0  0.21905  0.25380  0.55160  1.0000
  H   H274      1.0  0.25800  0.29075  0.50942  1.0000
  C   C495      1.0  0.27457  0.30366  0.38270  1.0000
  H   H275      1.0  0.28173  0.30181  0.43327  1.0000
  C   C496      1.0  0.77877  0.74536  0.41044  1.0000
  C   C497      1.0  0.78951  0.75717  0.39533  1.0000
  H   H276      1.0  0.79459  0.76242  0.44873  1.0000
  C   C498      1.0  0.76017  0.72716  0.34858  1.0000
  C   C499      1.0  0.73676  0.70529  0.37163  1.0000
  C   C500      1.0  0.74430  0.71159  0.44656  1.0000
  C   C501      1.0  0.75611  0.72251  0.43614  1.0000
  C   C502      1.0  0.76363  0.72914  0.50991  1.0000
  C   C503      1.0  0.77490  0.74044  0.49715  1.0000
  H   H277      1.0  0.76081  0.72596  0.57346  1.0000
  H   H278      1.0  0.78002  0.74526  0.55170  1.0000
  H   H279      1.0  0.74103  0.70835  0.50939  1.0000
  C   C504      1.0  0.72445  0.69548  0.38262  1.0000
  H   H280      1.0  0.71729  0.69732  0.43320  1.0000
  C   C505      1.0  0.74536  0.22029  0.41034  1.0000
  C   C506      1.0  0.75718  0.20954  0.39522  1.0000
  H   H281      1.0  0.76244  0.20447  0.44861  1.0000
  C   C507      1.0  0.72715  0.23887  0.34849  1.0000
  C   C508      1.0  0.70527  0.26227  0.37156  1.0000
  C   C509      1.0  0.71157  0.25473  0.44649  1.0000
  C   C510      1.0  0.72250  0.24294  0.43606  1.0000
  C   C511      1.0  0.72914  0.23542  0.50982  1.0000
  C   C512      1.0  0.74045  0.22416  0.49705  1.0000
  H   H282      1.0  0.72597  0.23823  0.57337  1.0000
  H   H283      1.0  0.74528  0.21904  0.55160  1.0000
  H   H284      1.0  0.70835  0.25801  0.50932  1.0000
  C   C513      1.0  0.69546  0.27458  0.38257  1.0000
  H   H285      1.0  0.69730  0.28174  0.43315  1.0000
  C   C514      1.0  0.25372  0.77875  0.41045  1.0000
  C   C515      1.0  0.24191  0.78950  0.39531  1.0000
  H   H286      1.0  0.23665  0.79457  0.44870  1.0000
  C   C516      1.0  0.27193  0.76016  0.34863  1.0000
  C   C517      1.0  0.29382  0.73677  0.37174  1.0000
  C   C518      1.0  0.28751  0.74430  0.44665  1.0000
  C   C519      1.0  0.27658  0.75610  0.43620  1.0000
  C   C520      1.0  0.26995  0.76363  0.50996  1.0000
  C   C521      1.0  0.25864  0.77489  0.49717  1.0000
  H   H287      1.0  0.27312  0.76081  0.57351  1.0000
  H   H288      1.0  0.25381  0.78000  0.55171  1.0000
  H   H289      1.0  0.29074  0.74104  0.50949  1.0000
  C   C522      1.0  0.30363  0.72446  0.38274  1.0000
  H   H290      1.0  0.30179  0.71730  0.43331  1.0000
  C   C523      1.0  0.51288  0.98790  0.42196  1.0000
  C   C524      1.0  0.52589  0.97857  0.40848  1.0000
  H   H291      1.0  0.53085  0.97320  0.46189  1.0000
  C   C525      1.0  0.49315  0.00454  0.35769  1.0000
  C   C526      1.0  0.46708  0.02320  0.37593  1.0000
  C   C527      1.0  0.47346  0.01595  0.45149  1.0000
  C   C528      1.0  0.48660  0.00661  0.44352  1.0000
  C   C529      1.0  0.49333  0.99934  0.51781  1.0000
  C   C530      1.0  0.50638  0.99006  0.50712  1.0000
  H   H292      1.0  0.48879  0.00070  0.58014  1.0000
  H   H293      1.0  0.51104  0.98486  0.56189  1.0000
  H   H294      1.0  0.46861  0.01759  0.51293  1.0000
  C   C531      1.0  0.45424  0.03234  0.38375  1.0000
  H   H295      1.0  0.44578  0.02909  0.42391  1.0000
  C   C532      1.0  0.01117  0.51289  0.42196  1.0000
  C   C533      1.0  0.02050  0.52589  0.40848  1.0000
  H   H296      1.0  0.02587  0.53085  0.46190  1.0000
  C   C534      1.0  0.99453  0.49315  0.35769  1.0000
  C   C535      1.0  0.97587  0.46708  0.37592  1.0000
  C   C536      1.0  0.98313  0.47346  0.45149  1.0000
  C   C537      1.0  0.99246  0.48660  0.44351  1.0000
  C   C538      1.0  0.99973  0.49334  0.51781  1.0000
  C   C539      1.0  0.00901  0.50638  0.50712  1.0000
  H   H297      1.0  0.99836  0.48879  0.58014  1.0000
  H   H298      1.0  0.01421  0.51104  0.56189  1.0000
  H   H299      1.0  0.98148  0.46861  0.51292  1.0000
  C   C540      1.0  0.96673  0.45425  0.38375  1.0000
  H   H300      1.0  0.96998  0.44578  0.42390  1.0000
