data_image0
_chemical_formula_structural       C4H2C4H2N12C4H2C4H2N4C4H2C4H2N8C4H2C4H2N4C4H2C4H2N8C4H2C4H2CNCNCNCNCNCNCNCNCNCNCNCNCNCNCNCNCNCNCNCNCNCNCNCNCNCNCNCNCNCNCNCNCNCNCNCNCNCNCNCNCNCNCNCNCNCNCNCNCNCNCNCNCNCNCNCNCNCNCNCN5C4H2C4H2C4H2C4H2C4H2C4H2N4C4H2C4H2N4C4H2C4H2C4H2C4H2N4C4H2C4H2N4C4H2C4H2C4H2C4H2N4C4H2C4H2N12C4H2C4H2N4C4H2C4H2N8C4H2C4H2N4C4H2C4H2N8C4H2C4H2CNCNCNCNCNCNCNCNCNCNCNCNCNCNCNCNCNCNCNCNCNCNCNCNCNCNCNCNCNCNCNCNCNCNCNCNCNCNCNCNCNCNCNCNCNCNCNCNCNCNCNCNCNCNCNCNCNCNCNCN5C4H2C4H2C4H2C4H2C4H2C4H2N4C4H2C4H2N4C4H2C4H2C4H2C4H2N4C4H2C4H2N4C4H2C4H2C4H2C4H2N4
_chemical_formula_sum              "C360 H120 N240"
_cell_length_a       83.5698
_cell_length_b       44.0202
_cell_length_c       14.8835
_cell_angle_alpha    90
_cell_angle_beta     90
_cell_angle_gamma    90

_space_group_name_H-M_alt    "P 1"
_space_group_IT_number       1

loop_
  _space_group_symop_operation_xyz
  'x, y, z'

loop_
  _atom_site_type_symbol
  _atom_site_label
  _atom_site_symmetry_multiplicity
  _atom_site_fract_x
  _atom_site_fract_y
  _atom_site_fract_z
  _atom_site_occupancy
  C   C1        1.0  0.23738  0.13887  0.29589  1.0000
  C   C2        1.0  0.24949  0.16040  0.27522  1.0000
  C   C3        1.0  0.26573  0.15215  0.27907  1.0000
  C   C4        1.0  0.26979  0.12236  0.30461  1.0000
  H   H1        1.0  0.27438  0.16806  0.26677  1.0000
  H   H2        1.0  0.24663  0.18244  0.26032  1.0000
  C   C5        1.0  0.76957  0.37310  0.29152  1.0000
  C   C6        1.0  0.75728  0.35350  0.26044  1.0000
  C   C7        1.0  0.74112  0.36162  0.27076  1.0000
  C   C8        1.0  0.73734  0.38935  0.31274  1.0000
  H   H3        1.0  0.73235  0.34696  0.25027  1.0000
  H   H4        1.0  0.75993  0.33275  0.23316  1.0000
  N   N1        1.0  0.74208  0.14533  0.38680  1.0000
  N   N2        1.0  0.75692  0.15487  0.38084  1.0000
  N   N3        1.0  0.25694  0.40523  0.39281  1.0000
  N   N4        1.0  0.24213  0.39535  0.39391  1.0000
  N   N5        1.0  0.28838  0.02254  0.38789  1.0000
  N   N6        1.0  0.28824  0.49310  0.39710  1.0000
  N   N7        1.0  0.71786  0.48541  0.42562  1.0000
  N   N8        1.0  0.71785  0.01477  0.43597  1.0000
  N   N9        1.0  0.78838  0.27205  0.35638  1.0000
  N   N10       1.0  0.78826  0.24263  0.36608  1.0000
  N   N11       1.0  0.21775  0.23412  0.40210  1.0000
  N   N12       1.0  0.21792  0.26339  0.41396  1.0000
  C   C9        1.0  0.32946  0.12706  0.29355  1.0000
  C   C10       1.0  0.34121  0.10843  0.25282  1.0000
  C   C11       1.0  0.35737  0.11682  0.25560  1.0000
  C   C12       1.0  0.36185  0.14410  0.29840  1.0000
  H   H5        1.0  0.36574  0.10253  0.22843  1.0000
  H   H6        1.0  0.33823  0.08786  0.22527  1.0000
  C   C13       1.0  0.67820  0.38347  0.29737  1.0000
  C   C14       1.0  0.66671  0.40260  0.25650  1.0000
  C   C15       1.0  0.65056  0.39405  0.25548  1.0000
  C   C16       1.0  0.64594  0.36629  0.29501  1.0000
  H   H7        1.0  0.64230  0.40865  0.22880  1.0000
  H   H8        1.0  0.66983  0.42358  0.23237  1.0000
  N   N13       1.0  0.65067  0.11601  0.36638  1.0000
  N   N14       1.0  0.66534  0.10652  0.37634  1.0000
  N   N15       1.0  0.35726  0.39360  0.36706  1.0000
  N   N16       1.0  0.34248  0.40275  0.37352  1.0000
  C   C17       1.0  0.82925  0.37937  0.28653  1.0000
  C   C18       1.0  0.84103  0.36205  0.24110  1.0000
  C   C19       1.0  0.85723  0.36985  0.24812  1.0000
  C   C20       1.0  0.86169  0.39542  0.29927  1.0000
  H   H9        1.0  0.86561  0.35645  0.21736  1.0000
  H   H10       1.0  0.83804  0.34264  0.20708  1.0000
  C   C21       1.0  0.17793  0.12975  0.29093  1.0000
  C   C22       1.0  0.16637  0.14795  0.24699  1.0000
  C   C23       1.0  0.15014  0.13995  0.25040  1.0000
  C   C24       1.0  0.14549  0.11349  0.29691  1.0000
  H   H11       1.0  0.14187  0.15395  0.22112  1.0000
  H   H12       1.0  0.16951  0.16810  0.21738  1.0000
  N   N17       1.0  0.15086  0.36521  0.36488  1.0000
  N   N18       1.0  0.16556  0.35586  0.37280  1.0000
  N   N19       1.0  0.85744  0.14303  0.36546  1.0000
  N   N20       1.0  0.84260  0.15204  0.36872  1.0000
  N   N21       1.0  0.07508  0.14646  0.32689  1.0000
  N   N22       1.0  0.06600  0.17120  0.32969  1.0000
  N   N23       1.0  0.93190  0.36177  0.33056  1.0000
  N   N24       1.0  0.94101  0.33713  0.33296  1.0000
  C   C25       1.0  0.93582  0.19966  0.33412  1.0000
  C   C26       1.0  0.91897  0.20197  0.32873  1.0000
  C   C27       1.0  0.90929  0.17609  0.33260  1.0000
  C   C28       1.0  0.91596  0.14660  0.34208  1.0000
  H   H13       1.0  0.89721  0.17955  0.32877  1.0000
  H   H14       1.0  0.91333  0.22250  0.32261  1.0000
  C   C29       1.0  0.07277  0.30863  0.33115  1.0000
  C   C30       1.0  0.08959  0.30602  0.32572  1.0000
  C   C31       1.0  0.09933  0.33187  0.32881  1.0000
  C   C32       1.0  0.09271  0.36144  0.33747  1.0000
  H   H15       1.0  0.11141  0.32837  0.32508  1.0000
  H   H16       1.0  0.09510  0.28534  0.32020  1.0000
  N   N25       1.0  0.57569  0.39862  0.32367  1.0000
  N   N26       1.0  0.56663  0.42333  0.32694  1.0000
  N   N27       1.0  0.43239  0.11220  0.32636  1.0000
  N   N28       1.0  0.44155  0.08759  0.32907  1.0000
  C   C33       1.0  0.43535  0.45010  0.33193  1.0000
  C   C34       1.0  0.41852  0.45257  0.32712  1.0000
  C   C35       1.0  0.40885  0.42667  0.33050  1.0000
  C   C36       1.0  0.41553  0.39712  0.33882  1.0000
  H   H17       1.0  0.39676  0.43013  0.32711  1.0000
  H   H18       1.0  0.41295  0.47320  0.32183  1.0000
  C   C37       1.0  0.57218  0.06074  0.32881  1.0000
  C   C38       1.0  0.58903  0.05817  0.32347  1.0000
  C   C39       1.0  0.59883  0.08388  0.32660  1.0000
  C   C40       1.0  0.59231  0.11351  0.33508  1.0000
  H   H19       1.0  0.61090  0.08021  0.32280  1.0000
  H   H20       1.0  0.59458  0.03753  0.31796  1.0000
  N   N29       1.0  0.09467  0.48902  0.34599  1.0000
  N   N30       1.0  0.09445  0.01922  0.34135  1.0000
  N   N31       1.0  0.91334  0.01872  0.35135  1.0000
  N   N32       1.0  0.91328  0.48853  0.34631  1.0000
  N   N33       1.0  0.59503  0.24106  0.34131  1.0000
  N   N34       1.0  0.59490  0.27126  0.33638  1.0000
  N   N35       1.0  0.41308  0.26906  0.34568  1.0000
  N   N36       1.0  0.41309  0.23886  0.34061  1.0000
  C   C41       1.0  0.98697  0.25631  0.34048  1.0000
  C   C42       1.0  0.99544  0.28414  0.34231  1.0000
  C   C43       1.0  0.01227  0.28433  0.34192  1.0000
  C   C44       1.0  0.02087  0.25668  0.33959  1.0000
  H   H21       1.0  0.01807  0.30479  0.34267  1.0000
  H   H22       1.0  0.98954  0.30450  0.34343  1.0000
  C   C45       1.0  0.48701  0.00302  0.33809  1.0000
  C   C46       1.0  0.49575  0.97554  0.34060  1.0000
  C   C47       1.0  0.51257  0.97606  0.34023  1.0000
  C   C48       1.0  0.52089  0.00406  0.33745  1.0000
  H   H23       1.0  0.51857  0.95581  0.34153  1.0000
  H   H24       1.0  0.49006  0.95497  0.34201  1.0000
  C   C49       1.0  0.31420  0.11469  0.31341  1.0000
  N   N37       1.0  0.29954  0.12789  0.30015  1.0000
  C   C50       1.0  0.28571  0.11205  0.31767  1.0000
  N   N38       1.0  0.28705  0.08330  0.34920  1.0000
  C   C51       1.0  0.30128  0.06996  0.36510  1.0000
  N   N39       1.0  0.31459  0.08591  0.34554  1.0000
  C   C52       1.0  0.69310  0.39567  0.32349  1.0000
  N   N40       1.0  0.70786  0.38355  0.30674  1.0000
  C   C53       1.0  0.72147  0.39896  0.33057  1.0000
  N   N41       1.0  0.71985  0.42638  0.37108  1.0000
  C   C54       1.0  0.70542  0.43863  0.39014  1.0000
  N   N42       1.0  0.69230  0.42312  0.36424  1.0000
  C   C55       1.0  0.69349  0.11067  0.39962  1.0000
  N   N43       1.0  0.70852  0.12332  0.39420  1.0000
  C   C56       1.0  0.72202  0.10605  0.40795  1.0000
  N   N44       1.0  0.71987  0.07626  0.42706  1.0000
  C   C57       1.0  0.70542  0.06306  0.43452  1.0000
  N   N45       1.0  0.69254  0.08062  0.41899  1.0000
  C   C58       1.0  0.31423  0.39756  0.38816  1.0000
  N   N46       1.0  0.29967  0.38338  0.38570  1.0000
  C   C59       1.0  0.28568  0.39961  0.39223  1.0000
  N   N47       1.0  0.28664  0.43022  0.40138  1.0000
  C   C60       1.0  0.30084  0.44483  0.40552  1.0000
  N   N48       1.0  0.31426  0.42810  0.39787  1.0000
  C   C61       1.0  0.81395  0.36644  0.30155  1.0000
  N   N49       1.0  0.79925  0.37984  0.29109  1.0000
  C   C62       1.0  0.78554  0.36292  0.30058  1.0000
  N   N50       1.0  0.78694  0.33330  0.32379  1.0000
  C   C63       1.0  0.80118  0.31982  0.33739  1.0000
  N   N51       1.0  0.81442  0.33669  0.32477  1.0000
  C   C64       1.0  0.19297  0.14257  0.31258  1.0000
  N   N52       1.0  0.20781  0.13071  0.29481  1.0000
  C   C65       1.0  0.22131  0.14761  0.31117  1.0000
  N   N53       1.0  0.21950  0.17555  0.34763  1.0000
  C   C66       1.0  0.20512  0.18744  0.36829  1.0000
  N   N54       1.0  0.19205  0.17081  0.34851  1.0000
  C   C67       1.0  0.19372  0.36003  0.39330  1.0000
  N   N55       1.0  0.20871  0.37282  0.38909  1.0000
  C   C68       1.0  0.22224  0.35528  0.39821  1.0000
  N   N56       1.0  0.22019  0.32512  0.41207  1.0000
  C   C69       1.0  0.20574  0.31182  0.41830  1.0000
  N   N57       1.0  0.19285  0.32965  0.40729  1.0000
  C   C70       1.0  0.81426  0.14682  0.37910  1.0000
  N   N58       1.0  0.79968  0.13265  0.38185  1.0000
  C   C71       1.0  0.78568  0.14905  0.38285  1.0000
  N   N59       1.0  0.78664  0.17980  0.38155  1.0000
  C   C72       1.0  0.80084  0.19443  0.37996  1.0000
  N   N60       1.0  0.81425  0.17752  0.37830  1.0000
  C   C73       1.0  0.10145  0.12076  0.31459  1.0000
  N   N61       1.0  0.09744  0.09096  0.33319  1.0000
  C   C74       1.0  0.10900  0.06882  0.34384  1.0000
  N   N62       1.0  0.12449  0.07769  0.33133  1.0000
  C   C75       1.0  0.12916  0.10583  0.30868  1.0000
  N   N63       1.0  0.11733  0.12650  0.30217  1.0000
  C   C76       1.0  0.90559  0.38735  0.31946  1.0000
  N   N64       1.0  0.90976  0.41705  0.33799  1.0000
  C   C77       1.0  0.89832  0.43939  0.34856  1.0000
  N   N65       1.0  0.88277  0.43086  0.33589  1.0000
  C   C78       1.0  0.87799  0.40279  0.31319  1.0000
  N   N66       1.0  0.88970  0.38186  0.30674  1.0000
  C   C79       1.0  0.90575  0.12068  0.35049  1.0000
  N   N67       1.0  0.91002  0.09041  0.35801  1.0000
  C   C80       1.0  0.89876  0.06787  0.37161  1.0000
  N   N68       1.0  0.88325  0.07728  0.37421  1.0000
  C   C81       1.0  0.87813  0.10594  0.36566  1.0000
  N   N69       1.0  0.88975  0.12684  0.35447  1.0000
  C   C82       1.0  0.10286  0.38743  0.34502  1.0000
  N   N70       1.0  0.09849  0.41764  0.35232  1.0000
  C   C83       1.0  0.10967  0.44031  0.36552  1.0000
  N   N71       1.0  0.12524  0.43117  0.36786  1.0000
  C   C84       1.0  0.13043  0.40252  0.35924  1.0000
  N   N72       1.0  0.11887  0.38144  0.34879  1.0000
  C   C85       1.0  0.60197  0.37294  0.31118  1.0000
  N   N73       1.0  0.59797  0.34303  0.32835  1.0000
  C   C86       1.0  0.60954  0.32084  0.33776  1.0000
  N   N74       1.0  0.62502  0.32986  0.32566  1.0000
  C   C87       1.0  0.62965  0.35814  0.30443  1.0000
  N   N75       1.0  0.61782  0.37878  0.29926  1.0000
  C   C88       1.0  0.40592  0.13753  0.31491  1.0000
  N   N76       1.0  0.40988  0.16741  0.33240  1.0000
  C   C89       1.0  0.39829  0.18950  0.34251  1.0000
  N   N77       1.0  0.38279  0.18048  0.33084  1.0000
  C   C90       1.0  0.37816  0.15219  0.30944  1.0000
  N   N78       1.0  0.39004  0.13162  0.30334  1.0000
  C   C91       1.0  0.40538  0.37110  0.34642  1.0000
  N   N79       1.0  0.40966  0.34079  0.35289  1.0000
  C   C92       1.0  0.39841  0.31817  0.36557  1.0000
  N   N80       1.0  0.38290  0.32760  0.36841  1.0000
  C   C93       1.0  0.37779  0.35630  0.36092  1.0000
  N   N81       1.0  0.38939  0.37725  0.35071  1.0000
  C   C94       1.0  0.60266  0.13928  0.34228  1.0000
  N   N82       1.0  0.59851  0.16963  0.34838  1.0000
  C   C95       1.0  0.60986  0.19209  0.36061  1.0000
  N   N83       1.0  0.62535  0.18251  0.36359  1.0000
  C   C96       1.0  0.63037  0.15371  0.35640  1.0000
  N   N84       1.0  0.61864  0.13292  0.34667  1.0000
  C   C97       1.0  0.06298  0.28218  0.33051  1.0000
  N   N85       1.0  0.04673  0.28193  0.33596  1.0000
  C   C98       1.0  0.03795  0.25558  0.33662  1.0000
  N   N86       1.0  0.04601  0.22843  0.33206  1.0000
  C   C99       1.0  0.06230  0.22709  0.32572  1.0000
  N   N87       1.0  0.06995  0.25437  0.32519  1.0000
  C   C100      1.0  0.94543  0.22644  0.33303  1.0000
  N   N88       1.0  0.96175  0.22775  0.33775  1.0000
  C   C101      1.0  0.96988  0.25490  0.33831  1.0000
  N   N89       1.0  0.96116  0.28125  0.33448  1.0000
  C   C102      1.0  0.94494  0.28153  0.32893  1.0000
  N   N90       1.0  0.93786  0.25377  0.32833  1.0000
  C   C103      1.0  0.56246  0.03409  0.32827  1.0000
  N   N91       1.0  0.54612  0.03284  0.33353  1.0000
  C   C104      1.0  0.53797  0.00569  0.33446  1.0000
  N   N92       1.0  0.54666  0.47933  0.33025  1.0000
  C   C105      1.0  0.56286  0.47898  0.32410  1.0000
  N   N93       1.0  0.56996  0.00670  0.32331  1.0000
  C   C106      1.0  0.44504  0.47669  0.33088  1.0000
  N   N94       1.0  0.46129  0.47723  0.33565  1.0000
  C   C107      1.0  0.46993  0.50375  0.33580  1.0000
  N   N95       1.0  0.46175  0.03075  0.33137  1.0000
  C   C108      1.0  0.44545  0.03178  0.32575  1.0000
  N   N96       1.0  0.43793  0.50438  0.32570  1.0000
  N   N97       1.0  0.25736  0.10297  0.32124  1.0000
  N   N98       1.0  0.24221  0.11044  0.31775  1.0000
  N   N99       1.0  0.74991  0.40718  0.33864  1.0000
  N   N100      1.0  0.76500  0.39970  0.32957  1.0000
  C   C109      1.0  0.77006  0.13649  0.38673  1.0000
  C   C110      1.0  0.76718  0.10534  0.39962  1.0000
  C   C111      1.0  0.75133  0.09506  0.40658  1.0000
  C   C112      1.0  0.73827  0.11569  0.40024  1.0000
  H   H25       1.0  0.74957  0.07232  0.41648  1.0000
  H   H26       1.0  0.77640  0.09017  0.40536  1.0000
  C   C113      1.0  0.23841  0.36533  0.39241  1.0000
  C   C114      1.0  0.25149  0.34472  0.38806  1.0000
  C   C115      1.0  0.26731  0.35539  0.38668  1.0000
  C   C116      1.0  0.27011  0.38686  0.38986  1.0000
  H   H27       1.0  0.27657  0.34019  0.38469  1.0000
  H   H28       1.0  0.24975  0.32172  0.38636  1.0000
  C   C117      1.0  0.30181  0.47657  0.40818  1.0000
  C   C118      1.0  0.31654  0.49225  0.41224  1.0000
  C   C119      1.0  0.31668  0.02386  0.40231  1.0000
  C   C120      1.0  0.30207  0.03922  0.38867  1.0000
  H   H29       1.0  0.32740  0.03507  0.40159  1.0000
  H   H30       1.0  0.32720  0.48101  0.41879  1.0000
  C   C121      1.0  0.70420  0.03141  0.44166  1.0000
  C   C122      1.0  0.68946  0.01580  0.43949  1.0000
  C   C123      1.0  0.68947  0.48418  0.42849  1.0000
  C   C124      1.0  0.70422  0.46878  0.41975  1.0000
  H   H31       1.0  0.67879  0.47307  0.42146  1.0000
  H   H32       1.0  0.67878  0.02719  0.44034  1.0000
  C   C125      1.0  0.80187  0.22613  0.37609  1.0000
  C   C126      1.0  0.81663  0.24177  0.37749  1.0000
  C   C127      1.0  0.81674  0.27335  0.36719  1.0000
  C   C128      1.0  0.80207  0.28871  0.35567  1.0000
  H   H33       1.0  0.82745  0.28460  0.36620  1.0000
  H   H34       1.0  0.82730  0.23057  0.38412  1.0000
  C   C129      1.0  0.20435  0.28015  0.42137  1.0000
  C   C130      1.0  0.18952  0.26482  0.41871  1.0000
  C   C131      1.0  0.18935  0.23327  0.40595  1.0000
  C   C132      1.0  0.20402  0.21774  0.39611  1.0000
  H   H35       1.0  0.17862  0.22230  0.39929  1.0000
  H   H36       1.0  0.17889  0.27635  0.42119  1.0000
  N   N101      1.0  0.34980  0.16137  0.33352  1.0000
  N   N102      1.0  0.33464  0.15327  0.33230  1.0000
  N   N103      1.0  0.65778  0.34869  0.33072  1.0000
  N   N104      1.0  0.67290  0.35685  0.33290  1.0000
  C   C133      1.0  0.67843  0.12487  0.38398  1.0000
  C   C134      1.0  0.67550  0.15639  0.37908  1.0000
  C   C135      1.0  0.65960  0.16690  0.36913  1.0000
  C   C136      1.0  0.64679  0.14586  0.36283  1.0000
  H   H37       1.0  0.65749  0.18978  0.36742  1.0000
  H   H38       1.0  0.68468  0.17162  0.38525  1.0000
  C   C137      1.0  0.32955  0.38396  0.37955  1.0000
  C   C138      1.0  0.33273  0.35250  0.37781  1.0000
  C   C139      1.0  0.34872  0.34240  0.37142  1.0000
  C   C140      1.0  0.36136  0.36382  0.36589  1.0000
  H   H39       1.0  0.35102  0.31958  0.37099  1.0000
  H   H40       1.0  0.32362  0.33705  0.38240  1.0000
  N   N105      1.0  0.84965  0.41171  0.33831  1.0000
  N   N106      1.0  0.83445  0.40399  0.33350  1.0000
  N   N107      1.0  0.15737  0.09662  0.33523  1.0000
  N   N108      1.0  0.17256  0.10441  0.33371  1.0000
  C   C141      1.0  0.17860  0.37431  0.38125  1.0000
  C   C142      1.0  0.17556  0.40582  0.37978  1.0000
  C   C143      1.0  0.15960  0.41620  0.37196  1.0000
  C   C144      1.0  0.14688  0.39502  0.36448  1.0000
  H   H41       1.0  0.15738  0.43905  0.37245  1.0000
  H   H42       1.0  0.18470  0.42109  0.38652  1.0000
  C   C145      1.0  0.82968  0.13324  0.37599  1.0000
  C   C146      1.0  0.83299  0.10186  0.37981  1.0000
  C   C147      1.0  0.84905  0.09189  0.37663  1.0000
  C   C148      1.0  0.86165  0.11334  0.36918  1.0000
  H   H43       1.0  0.85142  0.06911  0.37961  1.0000
  H   H44       1.0  0.82392  0.08636  0.38528  1.0000
  C   C149      1.0  0.07171  0.20018  0.32013  1.0000
  C   C150      1.0  0.08836  0.20230  0.30465  1.0000
  C   C151      1.0  0.09785  0.17622  0.29993  1.0000
  C   C152      1.0  0.09126  0.14681  0.31267  1.0000
  H   H45       1.0  0.10981  0.17953  0.28892  1.0000
  H   H46       1.0  0.09393  0.22279  0.29566  1.0000
  C   C153      1.0  0.93531  0.30812  0.32415  1.0000
  C   C154      1.0  0.91865  0.30571  0.31032  1.0000
  C   C155      1.0  0.90909  0.33175  0.30597  1.0000
  C   C156      1.0  0.91570  0.36122  0.31756  1.0000
  H   H47       1.0  0.89710  0.32842  0.29622  1.0000
  H   H48       1.0  0.91317  0.28509  0.30236  1.0000
  N   N109      1.0  0.93233  0.14601  0.34540  1.0000
  N   N110      1.0  0.94152  0.17059  0.34173  1.0000
  N   N111      1.0  0.07635  0.36223  0.34112  1.0000
  N   N112      1.0  0.06712  0.33774  0.33820  1.0000
  C   C157      1.0  0.57239  0.45232  0.31867  1.0000
  C   C158      1.0  0.58904  0.45467  0.30446  1.0000
  C   C159      1.0  0.59852  0.42859  0.29924  1.0000
  C   C160      1.0  0.59187  0.39910  0.31024  1.0000
  H   H49       1.0  0.61050  0.43193  0.28912  1.0000
  H   H50       1.0  0.59455  0.47527  0.29679  1.0000
  C   C161      1.0  0.43592  0.05852  0.32036  1.0000
  C   C162      1.0  0.41925  0.05613  0.30600  1.0000
  C   C163      1.0  0.40965  0.08207  0.30145  1.0000
  C   C164      1.0  0.41618  0.11159  0.31319  1.0000
  H   H51       1.0  0.39769  0.07860  0.29127  1.0000
  H   H52       1.0  0.41374  0.03556  0.29777  1.0000
  N   N113      1.0  0.43189  0.39646  0.34184  1.0000
  N   N114      1.0  0.44107  0.42103  0.33866  1.0000
  N   N115      1.0  0.57594  0.11438  0.33850  1.0000
  N   N116      1.0  0.56662  0.08994  0.33564  1.0000
  C   C165      1.0  0.10729  0.03723  0.36262  1.0000
  C   C166      1.0  0.12051  0.02160  0.39982  1.0000
  C   C167      1.0  0.12068  0.49009  0.40528  1.0000
  C   C168      1.0  0.10771  0.47245  0.37286  1.0000
  H   H53       1.0  0.13076  0.48044  0.43192  1.0000
  H   H54       1.0  0.13045  0.03282  0.42276  1.0000
  C   C169      1.0  0.90030  0.47089  0.36753  1.0000
  C   C170      1.0  0.88723  0.48685  0.40501  1.0000
  C   C171      1.0  0.88737  0.01834  0.41124  1.0000
  C   C172      1.0  0.90047  0.03566  0.37878  1.0000
  H   H55       1.0  0.87739  0.02825  0.43830  1.0000
  H   H56       1.0  0.87720  0.47590  0.42786  1.0000
  C   C173      1.0  0.60787  0.28917  0.35576  1.0000
  C   C174      1.0  0.62121  0.27336  0.39104  1.0000
  C   C175      1.0  0.62128  0.24186  0.39684  1.0000
  C   C176      1.0  0.60811  0.22432  0.36671  1.0000
  H   H57       1.0  0.63145  0.23215  0.42228  1.0000
  H   H58       1.0  0.63128  0.28443  0.41272  1.0000
  C   C177      1.0  0.40009  0.22111  0.36069  1.0000
  C   C178      1.0  0.38687  0.23701  0.39680  1.0000
  C   C179      1.0  0.38695  0.26850  0.40307  1.0000
  C   C180      1.0  0.40011  0.28593  0.37202  1.0000
  H   H59       1.0  0.37687  0.27830  0.42933  1.0000
  H   H60       1.0  0.37681  0.22602  0.41888  1.0000
  N   N117      1.0  0.01186  0.23083  0.33805  1.0000
  N   N118      1.0  0.99611  0.23065  0.33850  1.0000
  N   N119      1.0  0.51163  0.02955  0.33543  1.0000
  N   N120      1.0  0.49588  0.02905  0.33569  1.0000
  C   C181      1.0  0.23738  0.63887  0.29589  1.0000
  C   C182      1.0  0.24949  0.66040  0.27522  1.0000
  C   C183      1.0  0.26573  0.65215  0.27907  1.0000
  C   C184      1.0  0.26979  0.62236  0.30461  1.0000
  H   H61       1.0  0.27438  0.66806  0.26677  1.0000
  H   H62       1.0  0.24663  0.68244  0.26032  1.0000
  C   C185      1.0  0.76957  0.87310  0.29152  1.0000
  C   C186      1.0  0.75728  0.85350  0.26044  1.0000
  C   C187      1.0  0.74112  0.86162  0.27076  1.0000
  C   C188      1.0  0.73734  0.88935  0.31274  1.0000
  H   H63       1.0  0.73235  0.84696  0.25027  1.0000
  H   H64       1.0  0.75993  0.83275  0.23316  1.0000
  N   N121      1.0  0.74208  0.64533  0.38680  1.0000
  N   N122      1.0  0.75692  0.65487  0.38084  1.0000
  N   N123      1.0  0.25694  0.90522  0.39281  1.0000
  N   N124      1.0  0.24213  0.89535  0.39391  1.0000
  N   N125      1.0  0.28838  0.52254  0.38789  1.0000
  N   N126      1.0  0.28824  0.99310  0.39710  1.0000
  N   N127      1.0  0.71786  0.98541  0.42562  1.0000
  N   N128      1.0  0.71785  0.51477  0.43597  1.0000
  N   N129      1.0  0.78838  0.77205  0.35638  1.0000
  N   N130      1.0  0.78826  0.74263  0.36608  1.0000
  N   N131      1.0  0.21775  0.73412  0.40210  1.0000
  N   N132      1.0  0.21792  0.76339  0.41396  1.0000
  C   C189      1.0  0.32946  0.62706  0.29355  1.0000
  C   C190      1.0  0.34121  0.60843  0.25282  1.0000
  C   C191      1.0  0.35737  0.61682  0.25560  1.0000
  C   C192      1.0  0.36185  0.64410  0.29840  1.0000
  H   H65       1.0  0.36574  0.60254  0.22843  1.0000
  H   H66       1.0  0.33823  0.58786  0.22527  1.0000
  C   C193      1.0  0.67820  0.88347  0.29737  1.0000
  C   C194      1.0  0.66671  0.90260  0.25650  1.0000
  C   C195      1.0  0.65056  0.89406  0.25548  1.0000
  C   C196      1.0  0.64594  0.86629  0.29501  1.0000
  H   H67       1.0  0.64230  0.90865  0.22880  1.0000
  H   H68       1.0  0.66983  0.92358  0.23237  1.0000
  N   N133      1.0  0.65067  0.61601  0.36638  1.0000
  N   N134      1.0  0.66534  0.60652  0.37634  1.0000
  N   N135      1.0  0.35726  0.89360  0.36706  1.0000
  N   N136      1.0  0.34248  0.90275  0.37352  1.0000
  C   C197      1.0  0.82925  0.87937  0.28653  1.0000
  C   C198      1.0  0.84103  0.86205  0.24110  1.0000
  C   C199      1.0  0.85723  0.86985  0.24812  1.0000
  C   C200      1.0  0.86169  0.89542  0.29927  1.0000
  H   H69       1.0  0.86561  0.85645  0.21736  1.0000
  H   H70       1.0  0.83804  0.84264  0.20708  1.0000
  C   C201      1.0  0.17793  0.62975  0.29093  1.0000
  C   C202      1.0  0.16637  0.64795  0.24699  1.0000
  C   C203      1.0  0.15014  0.63995  0.25040  1.0000
  C   C204      1.0  0.14549  0.61349  0.29691  1.0000
  H   H71       1.0  0.14187  0.65395  0.22112  1.0000
  H   H72       1.0  0.16951  0.66810  0.21738  1.0000
  N   N137      1.0  0.15086  0.86521  0.36488  1.0000
  N   N138      1.0  0.16556  0.85586  0.37280  1.0000
  N   N139      1.0  0.85744  0.64303  0.36546  1.0000
  N   N140      1.0  0.84260  0.65204  0.36872  1.0000
  N   N141      1.0  0.07508  0.64646  0.32689  1.0000
  N   N142      1.0  0.06600  0.67120  0.32969  1.0000
  N   N143      1.0  0.93190  0.86177  0.33056  1.0000
  N   N144      1.0  0.94101  0.83713  0.33296  1.0000
  C   C205      1.0  0.93582  0.69966  0.33412  1.0000
  C   C206      1.0  0.91897  0.70197  0.32873  1.0000
  C   C207      1.0  0.90929  0.67609  0.33260  1.0000
  C   C208      1.0  0.91596  0.64660  0.34208  1.0000
  H   H73       1.0  0.89721  0.67955  0.32877  1.0000
  H   H74       1.0  0.91333  0.72250  0.32261  1.0000
  C   C209      1.0  0.07277  0.80863  0.33115  1.0000
  C   C210      1.0  0.08959  0.80602  0.32572  1.0000
  C   C211      1.0  0.09933  0.83187  0.32881  1.0000
  C   C212      1.0  0.09271  0.86144  0.33747  1.0000
  H   H75       1.0  0.11141  0.82837  0.32508  1.0000
  H   H76       1.0  0.09510  0.78534  0.32020  1.0000
  N   N145      1.0  0.57569  0.89862  0.32367  1.0000
  N   N146      1.0  0.56663  0.92333  0.32694  1.0000
  N   N147      1.0  0.43239  0.61220  0.32636  1.0000
  N   N148      1.0  0.44155  0.58759  0.32907  1.0000
  C   C213      1.0  0.43535  0.95010  0.33193  1.0000
  C   C214      1.0  0.41852  0.95257  0.32712  1.0000
  C   C215      1.0  0.40885  0.92667  0.33050  1.0000
  C   C216      1.0  0.41553  0.89712  0.33882  1.0000
  H   H77       1.0  0.39676  0.93013  0.32711  1.0000
  H   H78       1.0  0.41295  0.97320  0.32183  1.0000
  C   C217      1.0  0.57218  0.56075  0.32881  1.0000
  C   C218      1.0  0.58903  0.55817  0.32347  1.0000
  C   C219      1.0  0.59883  0.58388  0.32660  1.0000
  C   C220      1.0  0.59231  0.61351  0.33508  1.0000
  H   H79       1.0  0.61090  0.58021  0.32280  1.0000
  H   H80       1.0  0.59458  0.53753  0.31796  1.0000
  N   N149      1.0  0.09467  0.98903  0.34599  1.0000
  N   N150      1.0  0.09445  0.51922  0.34135  1.0000
  N   N151      1.0  0.91334  0.51872  0.35135  1.0000
  N   N152      1.0  0.91328  0.98853  0.34631  1.0000
  N   N153      1.0  0.59503  0.74106  0.34131  1.0000
  N   N154      1.0  0.59490  0.77126  0.33638  1.0000
  N   N155      1.0  0.41308  0.76906  0.34568  1.0000
  N   N156      1.0  0.41309  0.73886  0.34061  1.0000
  C   C221      1.0  0.98697  0.75631  0.34048  1.0000
  C   C222      1.0  0.99544  0.78414  0.34231  1.0000
  C   C223      1.0  0.01227  0.78433  0.34192  1.0000
  C   C224      1.0  0.02087  0.75668  0.33959  1.0000
  H   H81       1.0  0.01807  0.80479  0.34267  1.0000
  H   H82       1.0  0.98954  0.80450  0.34343  1.0000
  C   C225      1.0  0.48701  0.50302  0.33809  1.0000
  C   C226      1.0  0.49575  0.47554  0.34060  1.0000
  C   C227      1.0  0.51257  0.47607  0.34023  1.0000
  C   C228      1.0  0.52089  0.50406  0.33745  1.0000
  H   H83       1.0  0.51857  0.45581  0.34153  1.0000
  H   H84       1.0  0.49006  0.45497  0.34201  1.0000
  C   C229      1.0  0.31420  0.61469  0.31341  1.0000
  N   N157      1.0  0.29954  0.62789  0.30015  1.0000
  C   C230      1.0  0.28571  0.61205  0.31767  1.0000
  N   N158      1.0  0.28705  0.58330  0.34920  1.0000
  C   C231      1.0  0.30128  0.56996  0.36510  1.0000
  N   N159      1.0  0.31459  0.58591  0.34554  1.0000
  C   C232      1.0  0.69310  0.89567  0.32349  1.0000
  N   N160      1.0  0.70786  0.88355  0.30674  1.0000
  C   C233      1.0  0.72147  0.89896  0.33057  1.0000
  N   N161      1.0  0.71985  0.92637  0.37108  1.0000
  C   C234      1.0  0.70542  0.93863  0.39014  1.0000
  N   N162      1.0  0.69230  0.92312  0.36424  1.0000
  C   C235      1.0  0.69349  0.61067  0.39962  1.0000
  N   N163      1.0  0.70852  0.62332  0.39420  1.0000
  C   C236      1.0  0.72202  0.60605  0.40795  1.0000
  N   N164      1.0  0.71987  0.57626  0.42706  1.0000
  C   C237      1.0  0.70542  0.56306  0.43452  1.0000
  N   N165      1.0  0.69254  0.58062  0.41899  1.0000
  C   C238      1.0  0.31423  0.89756  0.38816  1.0000
  N   N166      1.0  0.29967  0.88338  0.38570  1.0000
  C   C239      1.0  0.28568  0.89961  0.39223  1.0000
  N   N167      1.0  0.28664  0.93022  0.40138  1.0000
  C   C240      1.0  0.30084  0.94483  0.40552  1.0000
  N   N168      1.0  0.31426  0.92810  0.39787  1.0000
  C   C241      1.0  0.81395  0.86644  0.30155  1.0000
  N   N169      1.0  0.79925  0.87983  0.29109  1.0000
  C   C242      1.0  0.78554  0.86292  0.30058  1.0000
  N   N170      1.0  0.78694  0.83330  0.32379  1.0000
  C   C243      1.0  0.80118  0.81982  0.33739  1.0000
  N   N171      1.0  0.81442  0.83669  0.32477  1.0000
  C   C244      1.0  0.19297  0.64257  0.31258  1.0000
  N   N172      1.0  0.20781  0.63072  0.29481  1.0000
  C   C245      1.0  0.22131  0.64761  0.31117  1.0000
  N   N173      1.0  0.21950  0.67555  0.34763  1.0000
  C   C246      1.0  0.20512  0.68744  0.36829  1.0000
  N   N174      1.0  0.19205  0.67081  0.34851  1.0000
  C   C247      1.0  0.19372  0.86003  0.39330  1.0000
  N   N175      1.0  0.20871  0.87282  0.38909  1.0000
  C   C248      1.0  0.22224  0.85528  0.39821  1.0000
  N   N176      1.0  0.22019  0.82512  0.41207  1.0000
  C   C249      1.0  0.20574  0.81182  0.41830  1.0000
  N   N177      1.0  0.19285  0.82965  0.40729  1.0000
  C   C250      1.0  0.81426  0.64682  0.37910  1.0000
  N   N178      1.0  0.79968  0.63265  0.38185  1.0000
  C   C251      1.0  0.78568  0.64905  0.38285  1.0000
  N   N179      1.0  0.78664  0.67981  0.38155  1.0000
  C   C252      1.0  0.80084  0.69443  0.37996  1.0000
  N   N180      1.0  0.81425  0.67752  0.37830  1.0000
  C   C253      1.0  0.10145  0.62076  0.31459  1.0000
  N   N181      1.0  0.09744  0.59096  0.33319  1.0000
  C   C254      1.0  0.10900  0.56882  0.34384  1.0000
  N   N182      1.0  0.12449  0.57769  0.33133  1.0000
  C   C255      1.0  0.12916  0.60583  0.30868  1.0000
  N   N183      1.0  0.11733  0.62650  0.30217  1.0000
  C   C256      1.0  0.90559  0.88735  0.31946  1.0000
  N   N184      1.0  0.90976  0.91705  0.33799  1.0000
  C   C257      1.0  0.89832  0.93939  0.34856  1.0000
  N   N185      1.0  0.88277  0.93086  0.33589  1.0000
  C   C258      1.0  0.87799  0.90279  0.31319  1.0000
  N   N186      1.0  0.88970  0.88186  0.30674  1.0000
  C   C259      1.0  0.90575  0.62068  0.35049  1.0000
  N   N187      1.0  0.91002  0.59041  0.35801  1.0000
  C   C260      1.0  0.89876  0.56787  0.37161  1.0000
  N   N188      1.0  0.88325  0.57728  0.37421  1.0000
  C   C261      1.0  0.87813  0.60594  0.36566  1.0000
  N   N189      1.0  0.88975  0.62684  0.35447  1.0000
  C   C262      1.0  0.10286  0.88743  0.34502  1.0000
  N   N190      1.0  0.09849  0.91763  0.35232  1.0000
  C   C263      1.0  0.10967  0.94031  0.36552  1.0000
  N   N191      1.0  0.12524  0.93117  0.36786  1.0000
  C   C264      1.0  0.13043  0.90252  0.35924  1.0000
  N   N192      1.0  0.11887  0.88144  0.34879  1.0000
  C   C265      1.0  0.60197  0.87294  0.31118  1.0000
  N   N193      1.0  0.59797  0.84303  0.32835  1.0000
  C   C266      1.0  0.60954  0.82084  0.33776  1.0000
  N   N194      1.0  0.62502  0.82986  0.32566  1.0000
  C   C267      1.0  0.62965  0.85814  0.30443  1.0000
  N   N195      1.0  0.61782  0.87878  0.29926  1.0000
  C   C268      1.0  0.40592  0.63753  0.31491  1.0000
  N   N196      1.0  0.40988  0.66741  0.33240  1.0000
  C   C269      1.0  0.39829  0.68950  0.34251  1.0000
  N   N197      1.0  0.38279  0.68048  0.33084  1.0000
  C   C270      1.0  0.37816  0.65219  0.30944  1.0000
  N   N198      1.0  0.39004  0.63162  0.30334  1.0000
  C   C271      1.0  0.40538  0.87110  0.34642  1.0000
  N   N199      1.0  0.40966  0.84079  0.35289  1.0000
  C   C272      1.0  0.39841  0.81817  0.36557  1.0000
  N   N200      1.0  0.38290  0.82760  0.36841  1.0000
  C   C273      1.0  0.37779  0.85630  0.36092  1.0000
  N   N201      1.0  0.38939  0.87725  0.35071  1.0000
  C   C274      1.0  0.60266  0.63928  0.34228  1.0000
  N   N202      1.0  0.59851  0.66963  0.34838  1.0000
  C   C275      1.0  0.60986  0.69209  0.36061  1.0000
  N   N203      1.0  0.62535  0.68251  0.36359  1.0000
  C   C276      1.0  0.63037  0.65371  0.35640  1.0000
  N   N204      1.0  0.61864  0.63292  0.34667  1.0000
  C   C277      1.0  0.06298  0.78218  0.33051  1.0000
  N   N205      1.0  0.04673  0.78193  0.33596  1.0000
  C   C278      1.0  0.03795  0.75558  0.33662  1.0000
  N   N206      1.0  0.04601  0.72843  0.33206  1.0000
  C   C279      1.0  0.06230  0.72709  0.32572  1.0000
  N   N207      1.0  0.06995  0.75437  0.32519  1.0000
  C   C280      1.0  0.94543  0.72644  0.33303  1.0000
  N   N208      1.0  0.96175  0.72775  0.33775  1.0000
  C   C281      1.0  0.96988  0.75490  0.33831  1.0000
  N   N209      1.0  0.96116  0.78125  0.33448  1.0000
  C   C282      1.0  0.94494  0.78153  0.32893  1.0000
  N   N210      1.0  0.93786  0.75377  0.32833  1.0000
  C   C283      1.0  0.56246  0.53409  0.32827  1.0000
  N   N211      1.0  0.54612  0.53284  0.33353  1.0000
  C   C284      1.0  0.53797  0.50569  0.33446  1.0000
  N   N212      1.0  0.54666  0.97933  0.33025  1.0000
  C   C285      1.0  0.56286  0.97898  0.32410  1.0000
  N   N213      1.0  0.56996  0.50670  0.32331  1.0000
  C   C286      1.0  0.44504  0.97669  0.33088  1.0000
  N   N214      1.0  0.46129  0.97723  0.33565  1.0000
  C   C287      1.0  0.46993  0.00375  0.33580  1.0000
  N   N215      1.0  0.46175  0.53075  0.33137  1.0000
  C   C288      1.0  0.44545  0.53178  0.32575  1.0000
  N   N216      1.0  0.43793  0.00438  0.32570  1.0000
  N   N217      1.0  0.25736  0.60297  0.32124  1.0000
  N   N218      1.0  0.24221  0.61044  0.31775  1.0000
  N   N219      1.0  0.74991  0.90718  0.33864  1.0000
  N   N220      1.0  0.76500  0.89971  0.32957  1.0000
  C   C289      1.0  0.77006  0.63649  0.38673  1.0000
  C   C290      1.0  0.76718  0.60534  0.39962  1.0000
  C   C291      1.0  0.75133  0.59506  0.40658  1.0000
  C   C292      1.0  0.73827  0.61569  0.40024  1.0000
  H   H85       1.0  0.74957  0.57232  0.41648  1.0000
  H   H86       1.0  0.77640  0.59017  0.40536  1.0000
  C   C293      1.0  0.23841  0.86533  0.39241  1.0000
  C   C294      1.0  0.25149  0.84472  0.38806  1.0000
  C   C295      1.0  0.26731  0.85539  0.38668  1.0000
  C   C296      1.0  0.27011  0.88686  0.38986  1.0000
  H   H87       1.0  0.27657  0.84019  0.38469  1.0000
  H   H88       1.0  0.24975  0.82172  0.38636  1.0000
  C   C297      1.0  0.30181  0.97657  0.40818  1.0000
  C   C298      1.0  0.31654  0.99225  0.41224  1.0000
  C   C299      1.0  0.31668  0.52385  0.40231  1.0000
  C   C300      1.0  0.30207  0.53922  0.38867  1.0000
  H   H89       1.0  0.32740  0.53507  0.40159  1.0000
  H   H90       1.0  0.32720  0.98101  0.41879  1.0000
  C   C301      1.0  0.70420  0.53141  0.44166  1.0000
  C   C302      1.0  0.68946  0.51580  0.43949  1.0000
  C   C303      1.0  0.68947  0.98418  0.42849  1.0000
  C   C304      1.0  0.70422  0.96878  0.41975  1.0000
  H   H91       1.0  0.67879  0.97307  0.42146  1.0000
  H   H92       1.0  0.67878  0.52719  0.44034  1.0000
  C   C305      1.0  0.80187  0.72613  0.37609  1.0000
  C   C306      1.0  0.81663  0.74177  0.37749  1.0000
  C   C307      1.0  0.81674  0.77335  0.36719  1.0000
  C   C308      1.0  0.80207  0.78871  0.35567  1.0000
  H   H93       1.0  0.82745  0.78460  0.36620  1.0000
  H   H94       1.0  0.82730  0.73058  0.38412  1.0000
  C   C309      1.0  0.20435  0.78015  0.42137  1.0000
  C   C310      1.0  0.18952  0.76482  0.41871  1.0000
  C   C311      1.0  0.18935  0.73327  0.40595  1.0000
  C   C312      1.0  0.20402  0.71775  0.39611  1.0000
  H   H95       1.0  0.17862  0.72230  0.39929  1.0000
  H   H96       1.0  0.17889  0.77635  0.42119  1.0000
  N   N221      1.0  0.34980  0.66137  0.33352  1.0000
  N   N222      1.0  0.33464  0.65328  0.33230  1.0000
  N   N223      1.0  0.65778  0.84869  0.33072  1.0000
  N   N224      1.0  0.67290  0.85685  0.33290  1.0000
  C   C313      1.0  0.67843  0.62487  0.38398  1.0000
  C   C314      1.0  0.67550  0.65639  0.37908  1.0000
  C   C315      1.0  0.65960  0.66690  0.36913  1.0000
  C   C316      1.0  0.64679  0.64587  0.36283  1.0000
  H   H97       1.0  0.65749  0.68978  0.36742  1.0000
  H   H98       1.0  0.68468  0.67162  0.38525  1.0000
  C   C317      1.0  0.32955  0.88396  0.37955  1.0000
  C   C318      1.0  0.33273  0.85250  0.37781  1.0000
  C   C319      1.0  0.34872  0.84240  0.37142  1.0000
  C   C320      1.0  0.36136  0.86382  0.36589  1.0000
  H   H99       1.0  0.35102  0.81958  0.37099  1.0000
  H   H100      1.0  0.32362  0.83705  0.38240  1.0000
  N   N225      1.0  0.84965  0.91171  0.33831  1.0000
  N   N226      1.0  0.83445  0.90399  0.33350  1.0000
  N   N227      1.0  0.15737  0.59662  0.33523  1.0000
  N   N228      1.0  0.17256  0.60442  0.33371  1.0000
  C   C321      1.0  0.17860  0.87431  0.38125  1.0000
  C   C322      1.0  0.17556  0.90582  0.37978  1.0000
  C   C323      1.0  0.15960  0.91620  0.37196  1.0000
  C   C324      1.0  0.14688  0.89502  0.36448  1.0000
  H   H101      1.0  0.15738  0.93905  0.37245  1.0000
  H   H102      1.0  0.18470  0.92109  0.38652  1.0000
  C   C325      1.0  0.82968  0.63324  0.37599  1.0000
  C   C326      1.0  0.83299  0.60186  0.37981  1.0000
  C   C327      1.0  0.84905  0.59189  0.37663  1.0000
  C   C328      1.0  0.86165  0.61334  0.36918  1.0000
  H   H103      1.0  0.85142  0.56911  0.37961  1.0000
  H   H104      1.0  0.82392  0.58636  0.38528  1.0000
  C   C329      1.0  0.07171  0.70018  0.32013  1.0000
  C   C330      1.0  0.08836  0.70230  0.30465  1.0000
  C   C331      1.0  0.09785  0.67623  0.29993  1.0000
  C   C332      1.0  0.09126  0.64681  0.31267  1.0000
  H   H105      1.0  0.10981  0.67953  0.28892  1.0000
  H   H106      1.0  0.09393  0.72279  0.29566  1.0000
  C   C333      1.0  0.93531  0.80812  0.32415  1.0000
  C   C334      1.0  0.91865  0.80571  0.31032  1.0000
  C   C335      1.0  0.90909  0.83175  0.30597  1.0000
  C   C336      1.0  0.91570  0.86122  0.31756  1.0000
  H   H107      1.0  0.89710  0.82842  0.29622  1.0000
  H   H108      1.0  0.91317  0.78509  0.30236  1.0000
  N   N229      1.0  0.93233  0.64601  0.34540  1.0000
  N   N230      1.0  0.94152  0.67059  0.34173  1.0000
  N   N231      1.0  0.07635  0.86223  0.34112  1.0000
  N   N232      1.0  0.06712  0.83774  0.33820  1.0000
  C   C337      1.0  0.57239  0.95232  0.31867  1.0000
  C   C338      1.0  0.58904  0.95467  0.30446  1.0000
  C   C339      1.0  0.59852  0.92859  0.29924  1.0000
  C   C340      1.0  0.59187  0.89910  0.31024  1.0000
  H   H109      1.0  0.61050  0.93193  0.28912  1.0000
  H   H110      1.0  0.59455  0.97527  0.29679  1.0000
  C   C341      1.0  0.43592  0.55852  0.32036  1.0000
  C   C342      1.0  0.41925  0.55613  0.30600  1.0000
  C   C343      1.0  0.40965  0.58207  0.30145  1.0000
  C   C344      1.0  0.41618  0.61159  0.31319  1.0000
  H   H111      1.0  0.39769  0.57860  0.29127  1.0000
  H   H112      1.0  0.41374  0.53556  0.29777  1.0000
  N   N233      1.0  0.43189  0.89646  0.34184  1.0000
  N   N234      1.0  0.44107  0.92103  0.33866  1.0000
  N   N235      1.0  0.57594  0.61438  0.33850  1.0000
  N   N236      1.0  0.56662  0.58994  0.33564  1.0000
  C   C345      1.0  0.10729  0.53723  0.36262  1.0000
  C   C346      1.0  0.12051  0.52160  0.39982  1.0000
  C   C347      1.0  0.12068  0.99009  0.40528  1.0000
  C   C348      1.0  0.10771  0.97245  0.37286  1.0000
  H   H113      1.0  0.13076  0.98044  0.43192  1.0000
  H   H114      1.0  0.13045  0.53283  0.42276  1.0000
  C   C349      1.0  0.90030  0.97089  0.36753  1.0000
  C   C350      1.0  0.88723  0.98685  0.40501  1.0000
  C   C351      1.0  0.88737  0.51834  0.41124  1.0000
  C   C352      1.0  0.90047  0.53566  0.37878  1.0000
  H   H115      1.0  0.87739  0.52825  0.43830  1.0000
  H   H116      1.0  0.87720  0.97590  0.42786  1.0000
  C   C353      1.0  0.60787  0.78917  0.35576  1.0000
  C   C354      1.0  0.62121  0.77336  0.39104  1.0000
  C   C355      1.0  0.62128  0.74186  0.39684  1.0000
  C   C356      1.0  0.60811  0.72432  0.36671  1.0000
  H   H117      1.0  0.63145  0.73215  0.42228  1.0000
  H   H118      1.0  0.63128  0.78443  0.41272  1.0000
  C   C357      1.0  0.40009  0.72111  0.36069  1.0000
  C   C358      1.0  0.38687  0.73701  0.39680  1.0000
  C   C359      1.0  0.38695  0.76850  0.40307  1.0000
  C   C360      1.0  0.40011  0.78593  0.37202  1.0000
  H   H119      1.0  0.37687  0.77830  0.42933  1.0000
  H   H120      1.0  0.37681  0.72602  0.41888  1.0000
  N   N237      1.0  0.01186  0.73083  0.33805  1.0000
  N   N238      1.0  0.99611  0.73065  0.33850  1.0000
  N   N239      1.0  0.51163  0.52955  0.33543  1.0000
  N   N240      1.0  0.49588  0.52905  0.33569  1.0000
