data_image0
_chemical_formula_structural       C2HC6H3C2HC6H3C2HC6H3C2HC6H3C2NCNC2H3CH3C2NCNC2H3CH3C2NCNC2H3CH3C2NCNC2H3CH3C2NCNC2H3CH3C2NCNC2H3CH3C2NCNC2H3CH3C2NCNC2H3CH3C2HC6H3C2HC6H3C2HC6H3C2HC6H3C2HC6H3C2HC6H3C2HC6H3C2HC6H3C2NCNC2H3CH3C2NCNC2H3CH3C2NCNC2H3CH3C2NCNC2H3CH3C2NCNC2H3CH3C2NCNC2H3CH3C2NCNC2H3CH3C2NCNC2H3CH3C2NCNC2H3CH3C2NCNC2H3CH3C6H3C6H3C6H3C6H3C6H3C6H3C6H3C6H3C6H3C6H3C6H3C6H3C6H3C6H3C6H3C6H3C6H3C6H3C6H3C6H3C2NCNC2H3CH3C2NCNC2H3CH3C2NCNC2H3CH3C2NCNC2H3CH3C2HC6H3C2HC6H3C2HC6H3C2HC6H3C2HC6H3C2HC6H3C2HC6H3C2HC6H3C2NCNC2H3CH3C2NCNC2H3CH3C2NCNC2H3CH3C2NCNC2H3CH3C2NCNC2H3CH3C2NCNC2H3CH3C2NCNC2H3CH3C2NCNC2H3CH3C2HC6H3C2HC6H3C2HC6H3C2HC6H3C2HC6H3C2HC6H3C2HC6H3C2HC6H3C2HC6H3C2HC6H3
_chemical_formula_sum              "C540 H360 N60"
_cell_length_a       65.8638
_cell_length_b       65.8638
_cell_length_c       14.9045
_cell_angle_alpha    90
_cell_angle_beta     90
_cell_angle_gamma    90

_space_group_name_H-M_alt    "P 1"
_space_group_IT_number       1

loop_
  _space_group_symop_operation_xyz
  'x, y, z'

loop_
  _atom_site_type_symbol
  _atom_site_label
  _atom_site_symmetry_multiplicity
  _atom_site_fract_x
  _atom_site_fract_y
  _atom_site_fract_z
  _atom_site_occupancy
  C   C1        1.0  0.32151  0.04043  0.25556  1.0000
  C   C2        1.0  0.30071  0.03535  0.25823  1.0000
  H   H1        1.0  0.29284  0.03374  0.19932  1.0000
  C   C3        1.0  0.35266  0.04865  0.33800  1.0000
  C   C4        1.0  0.39374  0.06004  0.34092  1.0000
  C   C5        1.0  0.38372  0.05715  0.25812  1.0000
  C   C6        1.0  0.36308  0.05146  0.25554  1.0000
  C   C7        1.0  0.35263  0.04861  0.17380  1.0000
  C   C8        1.0  0.33198  0.04317  0.17381  1.0000
  H   H2        1.0  0.35991  0.05061  0.11378  1.0000
  H   H3        1.0  0.32467  0.04133  0.11380  1.0000
  H   H4        1.0  0.39149  0.05925  0.19925  1.0000
  C   C9        1.0  0.68490  0.96599  0.25545  1.0000
  C   C10       1.0  0.70570  0.97107  0.25820  1.0000
  H   H5        1.0  0.71358  0.97269  0.19932  1.0000
  C   C11       1.0  0.65373  0.95777  0.33774  1.0000
  C   C12       1.0  0.61264  0.94639  0.34047  1.0000
  C   C13       1.0  0.62269  0.94929  0.25771  1.0000
  C   C14       1.0  0.64332  0.95498  0.25523  1.0000
  C   C15       1.0  0.65379  0.95783  0.17354  1.0000
  C   C16       1.0  0.67444  0.96327  0.17364  1.0000
  H   H6        1.0  0.64652  0.95585  0.11349  1.0000
  H   H7        1.0  0.68177  0.96512  0.11367  1.0000
  H   H8        1.0  0.61493  0.94720  0.19880  1.0000
  C   C17       1.0  0.96596  0.32149  0.25561  1.0000
  C   C18       1.0  0.97103  0.30069  0.25829  1.0000
  H   H9        1.0  0.97265  0.29283  0.19938  1.0000
  C   C19       1.0  0.95775  0.35265  0.33804  1.0000
  C   C20       1.0  0.94636  0.39374  0.34094  1.0000
  C   C21       1.0  0.94925  0.38371  0.25814  1.0000
  C   C22       1.0  0.95494  0.36307  0.25557  1.0000
  C   C23       1.0  0.95778  0.35262  0.17384  1.0000
  C   C24       1.0  0.96322  0.33197  0.17386  1.0000
  H   H10       1.0  0.95578  0.35989  0.11382  1.0000
  H   H11       1.0  0.96505  0.32465  0.11386  1.0000
  H   H12       1.0  0.94715  0.39147  0.19927  1.0000
  C   C25       1.0  0.04039  0.68490  0.25539  1.0000
  C   C26       1.0  0.03531  0.70569  0.25814  1.0000
  H   H13       1.0  0.03371  0.71358  0.19926  1.0000
  C   C27       1.0  0.04861  0.65373  0.33771  1.0000
  C   C28       1.0  0.06000  0.61264  0.34045  1.0000
  C   C29       1.0  0.05710  0.62268  0.25769  1.0000
  C   C30       1.0  0.05141  0.64332  0.25520  1.0000
  C   C31       1.0  0.04855  0.65378  0.17350  1.0000
  C   C32       1.0  0.04311  0.67443  0.17360  1.0000
  H   H14       1.0  0.05054  0.64652  0.11346  1.0000
  H   H15       1.0  0.04126  0.68176  0.11362  1.0000
  H   H16       1.0  0.05919  0.61492  0.19879  1.0000
  C   C33       1.0  0.21585  0.53297  0.33830  1.0000
  C   C34       1.0  0.20471  0.53570  0.25757  1.0000
  N   N1        1.0  0.18470  0.54061  0.26322  1.0000
  C   C35       1.0  0.17441  0.54312  0.34139  1.0000
  N   N2        1.0  0.14348  0.55146  0.26318  1.0000
  C   C36       1.0  0.12362  0.55694  0.25783  1.0000
  C   C37       1.0  0.21313  0.53399  0.16575  1.0000
  H   H17       1.0  0.22917  0.52990  0.16501  1.0000
  H   H18       1.0  0.21144  0.54848  0.13106  1.0000
  H   H19       1.0  0.20480  0.52238  0.12870  1.0000
  C   C38       1.0  0.11456  0.55941  0.16758  1.0000
  H   H20       1.0  0.12564  0.55636  0.11478  1.0000
  H   H21       1.0  0.10905  0.57492  0.15927  1.0000
  H   H22       1.0  0.10189  0.54890  0.15934  1.0000
  C   C39       1.0  0.79053  0.47345  0.33831  1.0000
  C   C40       1.0  0.80168  0.47068  0.25763  1.0000
  N   N3        1.0  0.82168  0.46577  0.26336  1.0000
  C   C41       1.0  0.83196  0.46327  0.34159  1.0000
  N   N4        1.0  0.86290  0.45491  0.26351  1.0000
  C   C42       1.0  0.88276  0.44943  0.25825  1.0000
  C   C43       1.0  0.79327  0.47239  0.16578  1.0000
  H   H23       1.0  0.77724  0.47650  0.16498  1.0000
  H   H24       1.0  0.79497  0.45789  0.13113  1.0000
  H   H25       1.0  0.80162  0.48399  0.12873  1.0000
  C   C44       1.0  0.89184  0.44694  0.16805  1.0000
  H   H26       1.0  0.88077  0.44999  0.11519  1.0000
  H   H27       1.0  0.89735  0.43143  0.15978  1.0000
  H   H28       1.0  0.90451  0.45746  0.15983  1.0000
  C   C45       1.0  0.53297  0.79055  0.33825  1.0000
  C   C46       1.0  0.53571  0.80169  0.25752  1.0000
  N   N5        1.0  0.54061  0.82170  0.26317  1.0000
  C   C47       1.0  0.54313  0.83199  0.34135  1.0000
  N   N6        1.0  0.55146  0.86291  0.26315  1.0000
  C   C48       1.0  0.55694  0.88278  0.25781  1.0000
  C   C49       1.0  0.53400  0.79326  0.16570  1.0000
  H   H29       1.0  0.52990  0.77723  0.16496  1.0000
  H   H30       1.0  0.54849  0.79496  0.13101  1.0000
  H   H31       1.0  0.52239  0.80160  0.12865  1.0000
  C   C50       1.0  0.55941  0.89184  0.16757  1.0000
  H   H32       1.0  0.55636  0.88076  0.11476  1.0000
  H   H33       1.0  0.57492  0.89735  0.15925  1.0000
  H   H34       1.0  0.54890  0.90450  0.15933  1.0000
  C   C51       1.0  0.47347  0.21587  0.33837  1.0000
  C   C52       1.0  0.47071  0.20472  0.25768  1.0000
  N   N7        1.0  0.46579  0.18471  0.26341  1.0000
  C   C53       1.0  0.46329  0.17443  0.34163  1.0000
  N   N8        1.0  0.45492  0.14350  0.26354  1.0000
  C   C54       1.0  0.44944  0.12364  0.25827  1.0000
  C   C55       1.0  0.47240  0.21313  0.16584  1.0000
  H   H35       1.0  0.47651  0.22916  0.16502  1.0000
  H   H36       1.0  0.45790  0.21144  0.13121  1.0000
  H   H37       1.0  0.48399  0.20478  0.12875  1.0000
  C   C56       1.0  0.44695  0.11457  0.16807  1.0000
  H   H38       1.0  0.45000  0.12564  0.11521  1.0000
  H   H39       1.0  0.43144  0.10906  0.15980  1.0000
  H   H40       1.0  0.45746  0.10190  0.15986  1.0000
  C   C57       1.0  0.22227  0.06126  0.33705  1.0000
  C   C58       1.0  0.21786  0.07198  0.25647  1.0000
  N   N9        1.0  0.20945  0.09084  0.26180  1.0000
  C   C59       1.0  0.20484  0.10056  0.33963  1.0000
  N   N10       1.0  0.19320  0.13075  0.26218  1.0000
  C   C60       1.0  0.18588  0.15008  0.25751  1.0000
  C   C61       1.0  0.22237  0.06455  0.16482  1.0000
  H   H41       1.0  0.22870  0.04926  0.16415  1.0000
  H   H42       1.0  0.23322  0.07473  0.13266  1.0000
  H   H43       1.0  0.20842  0.06436  0.12533  1.0000
  C   C62       1.0  0.18288  0.15910  0.16754  1.0000
  H   H44       1.0  0.18699  0.14844  0.11444  1.0000
  H   H45       1.0  0.19230  0.17263  0.16035  1.0000
  H   H46       1.0  0.16698  0.16330  0.15866  1.0000
  C   C63       1.0  0.78413  0.94515  0.33694  1.0000
  C   C64       1.0  0.78853  0.93442  0.25639  1.0000
  N   N11       1.0  0.79694  0.91556  0.26173  1.0000
  C   C65       1.0  0.80155  0.90584  0.33957  1.0000
  N   N12       1.0  0.81321  0.87566  0.26214  1.0000
  C   C66       1.0  0.82053  0.85633  0.25749  1.0000
  C   C67       1.0  0.78402  0.94186  0.16475  1.0000
  H   H47       1.0  0.77768  0.95715  0.16410  1.0000
  H   H48       1.0  0.77317  0.93168  0.13256  1.0000
  H   H49       1.0  0.79798  0.94205  0.12528  1.0000
  C   C68       1.0  0.82353  0.84730  0.16752  1.0000
  H   H50       1.0  0.81942  0.85796  0.11441  1.0000
  H   H51       1.0  0.81412  0.83377  0.16033  1.0000
  H   H52       1.0  0.83944  0.84311  0.15865  1.0000
  C   C69       1.0  0.94516  0.22224  0.33684  1.0000
  C   C70       1.0  0.93442  0.21785  0.25632  1.0000
  N   N13       1.0  0.91556  0.20945  0.26167  1.0000
  C   C71       1.0  0.90584  0.20484  0.33951  1.0000
  N   N14       1.0  0.87565  0.19319  0.26211  1.0000
  C   C72       1.0  0.85633  0.18587  0.25748  1.0000
  C   C73       1.0  0.94185  0.22237  0.16467  1.0000
  H   H53       1.0  0.95714  0.22870  0.16402  1.0000
  H   H54       1.0  0.93167  0.23324  0.13256  1.0000
  H   H55       1.0  0.94203  0.20842  0.12515  1.0000
  C   C74       1.0  0.84730  0.18286  0.16752  1.0000
  H   H56       1.0  0.85795  0.18697  0.11440  1.0000
  H   H57       1.0  0.83376  0.19228  0.16032  1.0000
  H   H58       1.0  0.84310  0.16696  0.15866  1.0000
  C   C75       1.0  0.06127  0.78412  0.33704  1.0000
  C   C76       1.0  0.07198  0.78853  0.25647  1.0000
  N   N15       1.0  0.09084  0.79695  0.26180  1.0000
  C   C77       1.0  0.10056  0.80156  0.33964  1.0000
  N   N16       1.0  0.13074  0.81322  0.26219  1.0000
  C   C78       1.0  0.15007  0.82053  0.25753  1.0000
  C   C79       1.0  0.06455  0.78402  0.16482  1.0000
  H   H59       1.0  0.04927  0.77767  0.16416  1.0000
  H   H60       1.0  0.07474  0.77317  0.13266  1.0000
  H   H61       1.0  0.06435  0.79797  0.12533  1.0000
  C   C80       1.0  0.15910  0.82353  0.16755  1.0000
  H   H62       1.0  0.14844  0.81942  0.11445  1.0000
  H   H63       1.0  0.17263  0.81411  0.16035  1.0000
  H   H64       1.0  0.16329  0.83943  0.15868  1.0000
  C   C81       1.0  0.29743  0.59050  0.25761  1.0000
  C   C82       1.0  0.28868  0.57090  0.25999  1.0000
  H   H65       1.0  0.28482  0.56393  0.20091  1.0000
  C   C83       1.0  0.30961  0.62049  0.33984  1.0000
  C   C84       1.0  0.32483  0.66065  0.34161  1.0000
  C   C85       1.0  0.32122  0.65059  0.25933  1.0000
  C   C86       1.0  0.31359  0.63052  0.25730  1.0000
  C   C87       1.0  0.30957  0.62036  0.17577  1.0000
  C   C88       1.0  0.30155  0.60056  0.17593  1.0000
  H   H66       1.0  0.31225  0.62737  0.11566  1.0000
  H   H67       1.0  0.29854  0.59364  0.11591  1.0000
  H   H68       1.0  0.32397  0.65803  0.20019  1.0000
  C   C89       1.0  0.70898  0.41590  0.25767  1.0000
  C   C90       1.0  0.71772  0.43550  0.26008  1.0000
  H   H69       1.0  0.72157  0.44248  0.20100  1.0000
  C   C91       1.0  0.69681  0.38590  0.33988  1.0000
  C   C92       1.0  0.68157  0.34575  0.34163  1.0000
  C   C93       1.0  0.68519  0.35581  0.25936  1.0000
  C   C94       1.0  0.69283  0.37588  0.25733  1.0000
  C   C95       1.0  0.69685  0.38604  0.17581  1.0000
  C   C96       1.0  0.70488  0.40584  0.17598  1.0000
  H   H70       1.0  0.69418  0.37903  0.11569  1.0000
  H   H71       1.0  0.70788  0.41276  0.11597  1.0000
  H   H72       1.0  0.68246  0.34837  0.20021  1.0000
  C   C97       1.0  0.59051  0.70900  0.25770  1.0000
  C   C98       1.0  0.57091  0.71775  0.26012  1.0000
  H   H73       1.0  0.56394  0.72159  0.20104  1.0000
  C   C99       1.0  0.62050  0.69682  0.33990  1.0000
  C   C100      1.0  0.66066  0.68158  0.34163  1.0000
  C   C101      1.0  0.65059  0.68521  0.25937  1.0000
  C   C102      1.0  0.63053  0.69284  0.25735  1.0000
  C   C103      1.0  0.62037  0.69686  0.17584  1.0000
  C   C104      1.0  0.60057  0.70489  0.17601  1.0000
  H   H74       1.0  0.62738  0.69420  0.11572  1.0000
  H   H75       1.0  0.59365  0.70792  0.11600  1.0000
  H   H76       1.0  0.65804  0.68247  0.20022  1.0000
  C   C105      1.0  0.41590  0.29745  0.25757  1.0000
  C   C106      1.0  0.43550  0.28870  0.25994  1.0000
  H   H77       1.0  0.44246  0.28483  0.20086  1.0000
  C   C107      1.0  0.38591  0.30962  0.33982  1.0000
  C   C108      1.0  0.34575  0.32485  0.34161  1.0000
  C   C109      1.0  0.35581  0.32123  0.25933  1.0000
  C   C110      1.0  0.37588  0.31360  0.25728  1.0000
  C   C111      1.0  0.38603  0.30958  0.17575  1.0000
  C   C112      1.0  0.40583  0.30156  0.17589  1.0000
  H   H78       1.0  0.37902  0.31226  0.11564  1.0000
  H   H79       1.0  0.41275  0.29855  0.11588  1.0000
  H   H80       1.0  0.34836  0.32398  0.20019  1.0000
  C   C113      1.0  0.21647  0.91254  0.25804  1.0000
  C   C114      1.0  0.21224  0.89149  0.26044  1.0000
  H   H81       1.0  0.21067  0.88369  0.20136  1.0000
  C   C115      1.0  0.22302  0.94428  0.34010  1.0000
  C   C116      1.0  0.23262  0.98621  0.34145  1.0000
  C   C117      1.0  0.23017  0.97572  0.25934  1.0000
  C   C118      1.0  0.22532  0.95480  0.25750  1.0000
  C   C119      1.0  0.22310  0.94407  0.17605  1.0000
  C   C120      1.0  0.21869  0.92317  0.17632  1.0000
  H   H82       1.0  0.22478  0.95136  0.11589  1.0000
  H   H83       1.0  0.21724  0.91575  0.11633  1.0000
  H   H84       1.0  0.23239  0.98331  0.20012  1.0000
  C   C121      1.0  0.78994  0.09385  0.25809  1.0000
  C   C122      1.0  0.79416  0.11490  0.26048  1.0000
  H   H85       1.0  0.79573  0.12271  0.20139  1.0000
  C   C123      1.0  0.78339  0.06212  0.34019  1.0000
  C   C124      1.0  0.77378  0.02019  0.34157  1.0000
  C   C125      1.0  0.77624  0.03067  0.25944  1.0000
  C   C126      1.0  0.78108  0.05159  0.25759  1.0000
  C   C127      1.0  0.78329  0.06232  0.17614  1.0000
  C   C128      1.0  0.78771  0.08322  0.17638  1.0000
  H   H86       1.0  0.78162  0.05503  0.11598  1.0000
  H   H87       1.0  0.78916  0.09064  0.11639  1.0000
  H   H88       1.0  0.77399  0.02309  0.20023  1.0000
  C   C129      1.0  0.09386  0.21647  0.25806  1.0000
  C   C130      1.0  0.11491  0.21225  0.26046  1.0000
  H   H89       1.0  0.12272  0.21068  0.20137  1.0000
  C   C131      1.0  0.06213  0.22302  0.34016  1.0000
  C   C132      1.0  0.02020  0.23262  0.34154  1.0000
  C   C133      1.0  0.03068  0.23017  0.25941  1.0000
  C   C134      1.0  0.05160  0.22533  0.25757  1.0000
  C   C135      1.0  0.06233  0.22311  0.17611  1.0000
  C   C136      1.0  0.08323  0.21869  0.17636  1.0000
  H   H90       1.0  0.05504  0.22479  0.11595  1.0000
  H   H91       1.0  0.09065  0.21725  0.11637  1.0000
  H   H92       1.0  0.02310  0.23240  0.20019  1.0000
  C   C137      1.0  0.91255  0.78993  0.25809  1.0000
  C   C138      1.0  0.89150  0.79416  0.26048  1.0000
  H   H93       1.0  0.88370  0.79573  0.20139  1.0000
  C   C139      1.0  0.94429  0.78338  0.34019  1.0000
  C   C140      1.0  0.98622  0.77379  0.34157  1.0000
  C   C141      1.0  0.97573  0.77623  0.25945  1.0000
  C   C142      1.0  0.95481  0.78107  0.25759  1.0000
  C   C143      1.0  0.94408  0.78328  0.17614  1.0000
  C   C144      1.0  0.92318  0.78770  0.17638  1.0000
  H   H94       1.0  0.95137  0.78160  0.11598  1.0000
  H   H95       1.0  0.91576  0.78915  0.11639  1.0000
  H   H96       1.0  0.98331  0.77399  0.20023  1.0000
  C   C145      1.0  0.29618  0.38101  0.33708  1.0000
  C   C146      1.0  0.29380  0.39230  0.25639  1.0000
  N   N17       1.0  0.28975  0.41257  0.26155  1.0000
  C   C147      1.0  0.28775  0.42320  0.33928  1.0000
  N   N18       1.0  0.28079  0.45483  0.26177  1.0000
  C   C148      1.0  0.27611  0.47497  0.25711  1.0000
  C   C149      1.0  0.29536  0.38376  0.16473  1.0000
  H   H97       1.0  0.29863  0.36754  0.16429  1.0000
  H   H98       1.0  0.30747  0.39149  0.12830  1.0000
  H   H99       1.0  0.28107  0.38616  0.12923  1.0000
  C   C150      1.0  0.27333  0.48406  0.16712  1.0000
  H   H100      1.0  0.27603  0.47296  0.11404  1.0000
  H   H101      1.0  0.28396  0.49661  0.15808  1.0000
  H   H102      1.0  0.25786  0.48976  0.16004  1.0000
  C   C151      1.0  0.71022  0.62541  0.33705  1.0000
  C   C152      1.0  0.71261  0.61413  0.25635  1.0000
  N   N19       1.0  0.71666  0.59386  0.26150  1.0000
  C   C153      1.0  0.71866  0.58323  0.33921  1.0000
  N   N20       1.0  0.72561  0.55160  0.26167  1.0000
  C   C154      1.0  0.73029  0.53146  0.25699  1.0000
  C   C155      1.0  0.71104  0.62267  0.16471  1.0000
  H   H103      1.0  0.70777  0.63889  0.16428  1.0000
  H   H104      1.0  0.69893  0.61494  0.12827  1.0000
  H   H105      1.0  0.72533  0.62027  0.12919  1.0000
  C   C156      1.0  0.73307  0.52237  0.16700  1.0000
  H   H106      1.0  0.73038  0.53348  0.11392  1.0000
  H   H107      1.0  0.72243  0.50983  0.15792  1.0000
  H   H108      1.0  0.74854  0.51667  0.15994  1.0000
  C   C157      1.0  0.38100  0.71022  0.33707  1.0000
  C   C158      1.0  0.39229  0.71260  0.25637  1.0000
  N   N21       1.0  0.41256  0.71666  0.26154  1.0000
  C   C159      1.0  0.42318  0.71866  0.33926  1.0000
  N   N22       1.0  0.45481  0.72562  0.26175  1.0000
  C   C160      1.0  0.47495  0.73030  0.25708  1.0000
  C   C161      1.0  0.38375  0.71104  0.16473  1.0000
  H   H109      1.0  0.36753  0.70776  0.16429  1.0000
  H   H110      1.0  0.39148  0.69893  0.12829  1.0000
  H   H111      1.0  0.38615  0.72533  0.12922  1.0000
  C   C162      1.0  0.48404  0.73308  0.16709  1.0000
  H   H112      1.0  0.47293  0.73039  0.11401  1.0000
  H   H113      1.0  0.49658  0.72246  0.15803  1.0000
  H   H114      1.0  0.48974  0.74856  0.16003  1.0000
  C   C163      1.0  0.62541  0.29618  0.33706  1.0000
  C   C164      1.0  0.61412  0.29380  0.25636  1.0000
  N   N23       1.0  0.59385  0.28975  0.26152  1.0000
  C   C165      1.0  0.58322  0.28775  0.33923  1.0000
  N   N24       1.0  0.55159  0.28081  0.26170  1.0000
  C   C166      1.0  0.53145  0.27614  0.25703  1.0000
  C   C167      1.0  0.62267  0.29536  0.16471  1.0000
  H   H115      1.0  0.63889  0.29864  0.16428  1.0000
  H   H116      1.0  0.61494  0.30748  0.12828  1.0000
  H   H117      1.0  0.62026  0.28108  0.12920  1.0000
  C   C168      1.0  0.52236  0.27336  0.16704  1.0000
  H   H118      1.0  0.53347  0.27604  0.11397  1.0000
  H   H119      1.0  0.50982  0.28399  0.15797  1.0000
  H   H120      1.0  0.51665  0.25788  0.15999  1.0000
  C   C169      1.0  0.19657  0.23385  0.33761  1.0000
  C   C170      1.0  0.20473  0.24200  0.25691  1.0000
  N   N25       1.0  0.21917  0.25677  0.26211  1.0000
  C   C171      1.0  0.22664  0.26457  0.33986  1.0000
  N   N26       1.0  0.24963  0.28733  0.26224  1.0000
  C   C172      1.0  0.26441  0.30178  0.25749  1.0000
  C   C173      1.0  0.19887  0.23559  0.16526  1.0000
  H   H121      1.0  0.18723  0.22383  0.16479  1.0000
  H   H122      1.0  0.21219  0.22971  0.13028  1.0000
  H   H123      1.0  0.19304  0.24865  0.12831  1.0000
  C   C174      1.0  0.27131  0.30828  0.16746  1.0000
  H   H124      1.0  0.26310  0.30033  0.11441  1.0000
  H   H125      1.0  0.28747  0.30509  0.15960  1.0000
  H   H126      1.0  0.26877  0.32455  0.15915  1.0000
  C   C175      1.0  0.80985  0.77256  0.33762  1.0000
  C   C176      1.0  0.80169  0.76442  0.25692  1.0000
  N   N27       1.0  0.78725  0.74964  0.26211  1.0000
  C   C177      1.0  0.77977  0.74185  0.33986  1.0000
  N   N28       1.0  0.75678  0.71909  0.26224  1.0000
  C   C178      1.0  0.74200  0.70464  0.25748  1.0000
  C   C179      1.0  0.80754  0.77083  0.16526  1.0000
  H   H127      1.0  0.81919  0.78258  0.16480  1.0000
  H   H128      1.0  0.79423  0.77671  0.13028  1.0000
  H   H129      1.0  0.81337  0.75777  0.12831  1.0000
  C   C180      1.0  0.73510  0.69814  0.16745  1.0000
  H   H130      1.0  0.74331  0.70610  0.11440  1.0000
  H   H131      1.0  0.71894  0.70134  0.15959  1.0000
  H   H132      1.0  0.73764  0.68188  0.15915  1.0000
  C   C181      1.0  0.77256  0.19656  0.33763  1.0000
  C   C182      1.0  0.76441  0.20472  0.25693  1.0000
  N   N29       1.0  0.74964  0.21915  0.26211  1.0000
  C   C183      1.0  0.74184  0.22663  0.33988  1.0000
  N   N30       1.0  0.71908  0.24962  0.26225  1.0000
  C   C184      1.0  0.70464  0.26441  0.25749  1.0000
  C   C185      1.0  0.77082  0.19886  0.16527  1.0000
  H   H133      1.0  0.78258  0.18721  0.16481  1.0000
  H   H134      1.0  0.77671  0.21217  0.13030  1.0000
  H   H135      1.0  0.75776  0.19303  0.12832  1.0000
  C   C186      1.0  0.69813  0.27131  0.16746  1.0000
  H   H136      1.0  0.70609  0.26309  0.11441  1.0000
  H   H137      1.0  0.70134  0.28746  0.15960  1.0000
  H   H138      1.0  0.68187  0.26877  0.15915  1.0000
  C   C187      1.0  0.23384  0.80983  0.33763  1.0000
  C   C188      1.0  0.24199  0.80168  0.25693  1.0000
  N   N31       1.0  0.25677  0.78725  0.26212  1.0000
  C   C189      1.0  0.26457  0.77977  0.33988  1.0000
  N   N32       1.0  0.28733  0.75678  0.26226  1.0000
  C   C190      1.0  0.30177  0.74200  0.25749  1.0000
  C   C191      1.0  0.23558  0.80754  0.16527  1.0000
  H   H139      1.0  0.22382  0.81918  0.16480  1.0000
  H   H140      1.0  0.22971  0.79422  0.13028  1.0000
  H   H141      1.0  0.24865  0.81338  0.12834  1.0000
  C   C192      1.0  0.30828  0.73510  0.16747  1.0000
  H   H142      1.0  0.30032  0.74331  0.11441  1.0000
  H   H143      1.0  0.30508  0.71894  0.15960  1.0000
  H   H144      1.0  0.32454  0.73764  0.15916  1.0000
  C   C193      1.0  0.54089  0.96553  0.33745  1.0000
  C   C194      1.0  0.53274  0.97362  0.25679  1.0000
  N   N33       1.0  0.51819  0.98818  0.26271  1.0000
  C   C195      1.0  0.51076  0.99564  0.34106  1.0000
  N   N34       1.0  0.48813  0.01830  0.26311  1.0000
  C   C196      1.0  0.47357  0.03287  0.25790  1.0000
  C   C197      1.0  0.53876  0.96753  0.16490  1.0000
  H   H145      1.0  0.55045  0.95583  0.16403  1.0000
  H   H146      1.0  0.54457  0.98074  0.12891  1.0000
  H   H147      1.0  0.52552  0.96169  0.12921  1.0000
  C   C198      1.0  0.46694  0.03955  0.16771  1.0000
  H   H148      1.0  0.47506  0.03145  0.11484  1.0000
  H   H149      1.0  0.46983  0.05576  0.15960  1.0000
  H   H150      1.0  0.45073  0.03669  0.15941  1.0000
  C   C199      1.0  0.04087  0.54089  0.33745  1.0000
  C   C200      1.0  0.03278  0.53274  0.25679  1.0000
  N   N35       1.0  0.01822  0.51818  0.26271  1.0000
  C   C201      1.0  0.01076  0.51076  0.34106  1.0000
  N   N36       1.0  0.98810  0.48813  0.26311  1.0000
  C   C202      1.0  0.97354  0.47357  0.25789  1.0000
  C   C203      1.0  0.03887  0.53875  0.16490  1.0000
  H   H151      1.0  0.05057  0.55045  0.16403  1.0000
  H   H152      1.0  0.02566  0.54457  0.12891  1.0000
  H   H153      1.0  0.04471  0.52552  0.12921  1.0000
  C   C204      1.0  0.96685  0.46693  0.16771  1.0000
  H   H154      1.0  0.97496  0.47506  0.11483  1.0000
  H   H155      1.0  0.95064  0.46982  0.15960  1.0000
  H   H156      1.0  0.96971  0.45072  0.15940  1.0000
  C   C205      1.0  0.26931  0.02961  0.33994  1.0000
  C   C206      1.0  0.25602  0.04639  0.33885  1.0000
  C   C207      1.0  0.23477  0.04362  0.33843  1.0000
  C   C208      1.0  0.22686  0.02360  0.33942  1.0000
  C   C209      1.0  0.24002  0.00655  0.34037  1.0000
  C   C210      1.0  0.26125  0.00978  0.34029  1.0000
  H   H157      1.0  0.21146  0.02143  0.33929  1.0000
  H   H158      1.0  0.27094  0.99760  0.34117  1.0000
  H   H159      1.0  0.26193  0.06080  0.33847  1.0000
  C   C211      1.0  0.73708  0.97679  0.34001  1.0000
  C   C212      1.0  0.75037  0.96001  0.33886  1.0000
  C   C213      1.0  0.77163  0.96278  0.33845  1.0000
  C   C214      1.0  0.77954  0.98280  0.33946  1.0000
  C   C215      1.0  0.76638  0.99985  0.34046  1.0000
  C   C216      1.0  0.74515  0.99662  0.34040  1.0000
  H   H160      1.0  0.79493  0.98496  0.33931  1.0000
  H   H161      1.0  0.73545  0.00880  0.34131  1.0000
  H   H162      1.0  0.74446  0.94560  0.33843  1.0000
  C   C217      1.0  0.97678  0.26930  0.33999  1.0000
  C   C218      1.0  0.96001  0.25601  0.33881  1.0000
  C   C219      1.0  0.96279  0.23475  0.33838  1.0000
  C   C220      1.0  0.98281  0.22685  0.33939  1.0000
  C   C221      1.0  0.99986  0.24002  0.34043  1.0000
  C   C222      1.0  0.99662  0.26124  0.34039  1.0000
  H   H163      1.0  0.98498  0.21146  0.33921  1.0000
  H   H164      1.0  0.00880  0.27094  0.34133  1.0000
  H   H165      1.0  0.94559  0.26191  0.33839  1.0000
  C   C223      1.0  0.02961  0.73708  0.33996  1.0000
  C   C224      1.0  0.04639  0.75036  0.33885  1.0000
  C   C225      1.0  0.04363  0.77163  0.33847  1.0000
  C   C226      1.0  0.02361  0.77954  0.33949  1.0000
  C   C227      1.0  0.00656  0.76638  0.34045  1.0000
  C   C228      1.0  0.00978  0.74515  0.34036  1.0000
  H   H166      1.0  0.02145  0.79493  0.33938  1.0000
  H   H167      1.0  0.99760  0.73546  0.34124  1.0000
  H   H168      1.0  0.06081  0.74445  0.33844  1.0000
  C   C229      1.0  0.23705  0.52962  0.33933  1.0000
  C   C230      1.0  0.25034  0.54639  0.34047  1.0000
  C   C231      1.0  0.27160  0.54361  0.34090  1.0000
  C   C232      1.0  0.27951  0.52359  0.33990  1.0000
  C   C233      1.0  0.26634  0.50655  0.33888  1.0000
  C   C234      1.0  0.24511  0.50978  0.33893  1.0000
  H   H169      1.0  0.29490  0.52143  0.34008  1.0000
  H   H170      1.0  0.23542  0.49761  0.33805  1.0000
  H   H171      1.0  0.24444  0.56081  0.34088  1.0000
  C   C235      1.0  0.76932  0.47679  0.33929  1.0000
  C   C236      1.0  0.75603  0.46003  0.34047  1.0000
  C   C237      1.0  0.73477  0.46281  0.34088  1.0000
  C   C238      1.0  0.72687  0.48283  0.33985  1.0000
  C   C239      1.0  0.74004  0.49988  0.33880  1.0000
  C   C240      1.0  0.76126  0.49663  0.33884  1.0000
  H   H172      1.0  0.71148  0.48500  0.34003  1.0000
  H   H173      1.0  0.77097  0.50881  0.33793  1.0000
  H   H174      1.0  0.76192  0.44561  0.34093  1.0000
  C   C241      1.0  0.52962  0.76934  0.33929  1.0000
  C   C242      1.0  0.54638  0.75605  0.34048  1.0000
  C   C243      1.0  0.54360  0.73479  0.34094  1.0000
  C   C244      1.0  0.52358  0.72689  0.33994  1.0000
  C   C245      1.0  0.50653  0.74006  0.33886  1.0000
  C   C246      1.0  0.50978  0.76129  0.33887  1.0000
  H   H175      1.0  0.52141  0.71150  0.34014  1.0000
  H   H176      1.0  0.49760  0.77099  0.33795  1.0000
  H   H177      1.0  0.56080  0.76194  0.34092  1.0000
  C   C247      1.0  0.47680  0.23708  0.33933  1.0000
  C   C248      1.0  0.46003  0.25036  0.34045  1.0000
  C   C249      1.0  0.46280  0.27162  0.34085  1.0000
  C   C250      1.0  0.48281  0.27953  0.33983  1.0000
  C   C251      1.0  0.49987  0.26637  0.33883  1.0000
  C   C252      1.0  0.49664  0.24515  0.33890  1.0000
  H   H178      1.0  0.48497  0.29493  0.33997  1.0000
  H   H179      1.0  0.50882  0.23545  0.33804  1.0000
  H   H180      1.0  0.44561  0.24446  0.34089  1.0000
  C   C253      1.0  0.18209  0.21779  0.33911  1.0000
  C   C254      1.0  0.18870  0.19736  0.33868  1.0000
  C   C255      1.0  0.17461  0.18116  0.33931  1.0000
  C   C256      1.0  0.15360  0.18562  0.34080  1.0000
  C   C257      1.0  0.14661  0.20594  0.34142  1.0000
  C   C258      1.0  0.16100  0.22191  0.34052  1.0000
  H   H181      1.0  0.14330  0.17396  0.34129  1.0000
  H   H182      1.0  0.15609  0.23667  0.34076  1.0000
  H   H183      1.0  0.20394  0.19424  0.33751  1.0000
  C   C259      1.0  0.82433  0.78862  0.33911  1.0000
  C   C260      1.0  0.81772  0.80905  0.33868  1.0000
  C   C261      1.0  0.83180  0.82525  0.33931  1.0000
  C   C262      1.0  0.85281  0.82079  0.34081  1.0000
  C   C263      1.0  0.85980  0.80047  0.34144  1.0000
  C   C264      1.0  0.84541  0.78451  0.34054  1.0000
  H   H184      1.0  0.86311  0.83245  0.34129  1.0000
  H   H185      1.0  0.85033  0.76975  0.34079  1.0000
  H   H186      1.0  0.80247  0.81217  0.33749  1.0000
  C   C265      1.0  0.78862  0.18208  0.33913  1.0000
  C   C266      1.0  0.80905  0.18869  0.33871  1.0000
  C   C267      1.0  0.82525  0.17460  0.33932  1.0000
  C   C268      1.0  0.82079  0.15360  0.34081  1.0000
  C   C269      1.0  0.80047  0.14660  0.34145  1.0000
  C   C270      1.0  0.78450  0.16099  0.34055  1.0000
  H   H187      1.0  0.83245  0.14330  0.34128  1.0000
  H   H188      1.0  0.76974  0.15607  0.34080  1.0000
  H   H189      1.0  0.81216  0.20394  0.33751  1.0000
  C   C271      1.0  0.21778  0.82432  0.33913  1.0000
  C   C272      1.0  0.19736  0.81771  0.33872  1.0000
  C   C273      1.0  0.18115  0.83180  0.33933  1.0000
  C   C274      1.0  0.18562  0.85280  0.34080  1.0000
  C   C275      1.0  0.20594  0.85980  0.34143  1.0000
  C   C276      1.0  0.22190  0.84540  0.34053  1.0000
  H   H190      1.0  0.17396  0.86311  0.34128  1.0000
  H   H191      1.0  0.23666  0.85032  0.34077  1.0000
  H   H192      1.0  0.19424  0.80246  0.33753  1.0000
  C   C277      1.0  0.32431  0.71775  0.33909  1.0000
  C   C278      1.0  0.31772  0.69731  0.34031  1.0000
  C   C279      1.0  0.33181  0.68112  0.34072  1.0000
  C   C280      1.0  0.35282  0.68560  0.33970  1.0000
  C   C281      1.0  0.35979  0.70592  0.33860  1.0000
  C   C282      1.0  0.34539  0.72187  0.33847  1.0000
  H   H193      1.0  0.36313  0.67394  0.33967  1.0000
  H   H194      1.0  0.35030  0.73664  0.33743  1.0000
  H   H195      1.0  0.30247  0.69419  0.34072  1.0000
  C   C283      1.0  0.68210  0.28865  0.33908  1.0000
  C   C284      1.0  0.68869  0.30909  0.34031  1.0000
  C   C285      1.0  0.67459  0.32528  0.34073  1.0000
  C   C286      1.0  0.65359  0.32080  0.33970  1.0000
  C   C287      1.0  0.64661  0.30048  0.33860  1.0000
  C   C288      1.0  0.66102  0.28452  0.33847  1.0000
  H   H196      1.0  0.64328  0.33245  0.33968  1.0000
  H   H197      1.0  0.65611  0.26976  0.33742  1.0000
  H   H198      1.0  0.70394  0.31221  0.34072  1.0000
  C   C289      1.0  0.71775  0.68211  0.33908  1.0000
  C   C290      1.0  0.69732  0.68870  0.34031  1.0000
  C   C291      1.0  0.68112  0.67460  0.34074  1.0000
  C   C292      1.0  0.68560  0.65360  0.33970  1.0000
  C   C293      1.0  0.70593  0.64662  0.33859  1.0000
  C   C294      1.0  0.72188  0.66102  0.33846  1.0000
  H   H199      1.0  0.67395  0.64329  0.33969  1.0000
  H   H200      1.0  0.73664  0.65612  0.33741  1.0000
  H   H201      1.0  0.69419  0.70395  0.34073  1.0000
  C   C295      1.0  0.28866  0.32432  0.33909  1.0000
  C   C296      1.0  0.30909  0.31772  0.34031  1.0000
  C   C297      1.0  0.32528  0.33183  0.34073  1.0000
  C   C298      1.0  0.32080  0.35283  0.33970  1.0000
  C   C299      1.0  0.30048  0.35981  0.33860  1.0000
  C   C300      1.0  0.28453  0.34540  0.33847  1.0000
  H   H202      1.0  0.33245  0.36314  0.33969  1.0000
  H   H203      1.0  0.26976  0.35031  0.33743  1.0000
  H   H204      1.0  0.31222  0.30248  0.34072  1.0000
  C   C301      1.0  0.44074  0.09195  0.33948  1.0000
  C   C302      1.0  0.42006  0.08634  0.34017  1.0000
  C   C303      1.0  0.41445  0.06565  0.34058  1.0000
  C   C304      1.0  0.42964  0.05056  0.33993  1.0000
  C   C305      1.0  0.45035  0.05605  0.33925  1.0000
  C   C306      1.0  0.45584  0.07675  0.33941  1.0000
  H   H205      1.0  0.42562  0.03552  0.33995  1.0000
  H   H206      1.0  0.47088  0.08077  0.33893  1.0000
  H   H207      1.0  0.40905  0.09735  0.34032  1.0000
  C   C307      1.0  0.56564  0.91448  0.33889  1.0000
  C   C308      1.0  0.58632  0.92009  0.33976  1.0000
  C   C309      1.0  0.59194  0.94078  0.34002  1.0000
  C   C310      1.0  0.57674  0.95588  0.33907  1.0000
  C   C311      1.0  0.55604  0.95038  0.33831  1.0000
  C   C312      1.0  0.55054  0.92968  0.33852  1.0000
  H   H208      1.0  0.58076  0.97092  0.33896  1.0000
  H   H209      1.0  0.53550  0.92566  0.33789  1.0000
  H   H210      1.0  0.59733  0.90909  0.34010  1.0000
  C   C313      1.0  0.91445  0.44074  0.33947  1.0000
  C   C314      1.0  0.92006  0.42005  0.34017  1.0000
  C   C315      1.0  0.94075  0.41444  0.34059  1.0000
  C   C316      1.0  0.95584  0.42964  0.33994  1.0000
  C   C317      1.0  0.95035  0.45034  0.33925  1.0000
  C   C318      1.0  0.92965  0.45583  0.33940  1.0000
  H   H211      1.0  0.97088  0.42562  0.33997  1.0000
  H   H212      1.0  0.92563  0.47087  0.33891  1.0000
  H   H213      1.0  0.90906  0.40905  0.34032  1.0000
  C   C319      1.0  0.09191  0.56564  0.33890  1.0000
  C   C320      1.0  0.08630  0.58632  0.33976  1.0000
  C   C321      1.0  0.06562  0.59194  0.34002  1.0000
  C   C322      1.0  0.05052  0.57674  0.33906  1.0000
  C   C323      1.0  0.05601  0.55604  0.33831  1.0000
  C   C324      1.0  0.07672  0.55054  0.33852  1.0000
  H   H214      1.0  0.03548  0.58076  0.33895  1.0000
  H   H215      1.0  0.08074  0.53550  0.33790  1.0000
  H   H216      1.0  0.09731  0.59733  0.34010  1.0000
  C   C325      1.0  0.29052  0.03295  0.34101  1.0000
  C   C326      1.0  0.30164  0.03573  0.42176  1.0000
  N   N37       1.0  0.32165  0.04065  0.41614  1.0000
  C   C327      1.0  0.33196  0.04313  0.33798  1.0000
  N   N38       1.0  0.36285  0.05153  0.41624  1.0000
  C   C328      1.0  0.38271  0.05702  0.42162  1.0000
  C   C329      1.0  0.29320  0.03405  0.51356  1.0000
  H   H217      1.0  0.27718  0.02993  0.51429  1.0000
  H   H218      1.0  0.29488  0.04855  0.54816  1.0000
  H   H219      1.0  0.30154  0.02246  0.55072  1.0000
  C   C330      1.0  0.39174  0.05955  0.51189  1.0000
  H   H220      1.0  0.38065  0.05652  0.56467  1.0000
  H   H221      1.0  0.39724  0.07507  0.52006  1.0000
  H   H222      1.0  0.40441  0.04905  0.52032  1.0000
  C   C331      1.0  0.71588  0.97345  0.34103  1.0000
  C   C332      1.0  0.70474  0.97065  0.42172  1.0000
  N   N39       1.0  0.68473  0.96574  0.41602  1.0000
  C   C333      1.0  0.67444  0.96328  0.33781  1.0000
  N   N40       1.0  0.64352  0.95487  0.41593  1.0000
  C   C334      1.0  0.62366  0.94939  0.42122  1.0000
  C   C335      1.0  0.71316  0.97233  0.51356  1.0000
  H   H223      1.0  0.72919  0.97644  0.51434  1.0000
  H   H224      1.0  0.71148  0.95782  0.54811  1.0000
  H   H225      1.0  0.70481  0.98391  0.55072  1.0000
  C   C336      1.0  0.61461  0.94685  0.51144  1.0000
  H   H226      1.0  0.62569  0.94987  0.56427  1.0000
  H   H227      1.0  0.60911  0.93133  0.51955  1.0000
  H   H228      1.0  0.60194  0.95735  0.51984  1.0000
  C   C337      1.0  0.97344  0.29051  0.34108  1.0000
  C   C338      1.0  0.97066  0.30164  0.42182  1.0000
  N   N41       1.0  0.96574  0.32164  0.41619  1.0000
  C   C339      1.0  0.96326  0.33195  0.33802  1.0000
  N   N42       1.0  0.95487  0.36285  0.41627  1.0000
  C   C340      1.0  0.94938  0.38271  0.42165  1.0000
  C   C341      1.0  0.97234  0.29319  0.51362  1.0000
  H   H229      1.0  0.97646  0.27717  0.51434  1.0000
  H   H230      1.0  0.95784  0.29487  0.54822  1.0000
  H   H231      1.0  0.98393  0.30153  0.55078  1.0000
  C   C342      1.0  0.94685  0.39174  0.51191  1.0000
  H   H232      1.0  0.94988  0.38064  0.56469  1.0000
  H   H233      1.0  0.93133  0.39724  0.52008  1.0000
  H   H234      1.0  0.95735  0.40441  0.52033  1.0000
  C   C343      1.0  0.03295  0.71588  0.34096  1.0000
  C   C344      1.0  0.03573  0.70473  0.42167  1.0000
  N   N43       1.0  0.04063  0.68473  0.41597  1.0000
  C   C345      1.0  0.04310  0.67443  0.33777  1.0000
  N   N44       1.0  0.05151  0.64352  0.41589  1.0000
  C   C346      1.0  0.05700  0.62366  0.42120  1.0000
  C   C347      1.0  0.03406  0.71316  0.51350  1.0000
  H   H235      1.0  0.02996  0.72919  0.51429  1.0000
  H   H236      1.0  0.04857  0.71147  0.54806  1.0000
  H   H237      1.0  0.02247  0.70482  0.55067  1.0000
  C   C348      1.0  0.05954  0.61461  0.51142  1.0000
  H   H238      1.0  0.05652  0.62570  0.56425  1.0000
  H   H239      1.0  0.07506  0.60912  0.51954  1.0000
  H   H240      1.0  0.04904  0.60194  0.51982  1.0000
  C   C349      1.0  0.18487  0.54046  0.42380  1.0000
  C   C350      1.0  0.20567  0.53538  0.42110  1.0000
  H   H241      1.0  0.21355  0.53380  0.48000  1.0000
  C   C351      1.0  0.15370  0.54863  0.34140  1.0000
  C   C352      1.0  0.11261  0.56002  0.33855  1.0000
  C   C353      1.0  0.12266  0.55719  0.42134  1.0000
  C   C354      1.0  0.14330  0.55149  0.42388  1.0000
  C   C355      1.0  0.15377  0.54869  0.50560  1.0000
  C   C356      1.0  0.17441  0.54324  0.50556  1.0000
  H   H242      1.0  0.14650  0.55072  0.56563  1.0000
  H   H243      1.0  0.18174  0.54143  0.56556  1.0000
  H   H244      1.0  0.11491  0.55933  0.48022  1.0000
  C   C357      1.0  0.82148  0.46594  0.42395  1.0000
  C   C358      1.0  0.80069  0.47103  0.42116  1.0000
  H   H245      1.0  0.79280  0.47262  0.48002  1.0000
  C   C359      1.0  0.85267  0.45775  0.34168  1.0000
  C   C360      1.0  0.89375  0.44636  0.33902  1.0000
  C   C361      1.0  0.88369  0.44920  0.42177  1.0000
  C   C362      1.0  0.86306  0.45491  0.42421  1.0000
  C   C363      1.0  0.85257  0.45772  0.50589  1.0000
  C   C364      1.0  0.83193  0.46318  0.50575  1.0000
  H   H246      1.0  0.85983  0.45570  0.56595  1.0000
  H   H247      1.0  0.82459  0.46500  0.56572  1.0000
  H   H248      1.0  0.89143  0.44707  0.48069  1.0000
  C   C365      1.0  0.54047  0.82152  0.42375  1.0000
  C   C366      1.0  0.53540  0.80072  0.42105  1.0000
  H   H249      1.0  0.53381  0.79284  0.47995  1.0000
  C   C367      1.0  0.54864  0.85270  0.34137  1.0000
  C   C368      1.0  0.56002  0.89378  0.33853  1.0000
  C   C369      1.0  0.55719  0.88373  0.42132  1.0000
  C   C370      1.0  0.55149  0.86310  0.42385  1.0000
  C   C371      1.0  0.54869  0.85263  0.50557  1.0000
  C   C372      1.0  0.54324  0.83198  0.50552  1.0000
  H   H250      1.0  0.55073  0.85989  0.56560  1.0000
  H   H251      1.0  0.54144  0.82465  0.56551  1.0000
  H   H252      1.0  0.55934  0.89148  0.48020  1.0000
  C   C373      1.0  0.46597  0.18491  0.42399  1.0000
  C   C374      1.0  0.47105  0.20571  0.42120  1.0000
  H   H253      1.0  0.47264  0.21360  0.48007  1.0000
  C   C375      1.0  0.45777  0.15373  0.34171  1.0000
  C   C376      1.0  0.44636  0.11265  0.33904  1.0000
  C   C377      1.0  0.44921  0.12271  0.42179  1.0000
  C   C378      1.0  0.45492  0.14335  0.42424  1.0000
  C   C379      1.0  0.45773  0.15382  0.50593  1.0000
  C   C380      1.0  0.46320  0.17447  0.50579  1.0000
  H   H254      1.0  0.45571  0.14657  0.56598  1.0000
  H   H255      1.0  0.46502  0.18181  0.56576  1.0000
  H   H256      1.0  0.44708  0.11497  0.48071  1.0000
  C   C381      1.0  0.20894  0.09050  0.42193  1.0000
  C   C382      1.0  0.21768  0.07089  0.41945  1.0000
  H   H257      1.0  0.22151  0.06389  0.47850  1.0000
  C   C383      1.0  0.19682  0.12053  0.33984  1.0000
  C   C384      1.0  0.18160  0.16070  0.33832  1.0000
  C   C385      1.0  0.18516  0.15058  0.42053  1.0000
  C   C386      1.0  0.19279  0.13052  0.42244  1.0000
  C   C387      1.0  0.19677  0.12032  0.50391  1.0000
  C   C388      1.0  0.20480  0.10052  0.50365  1.0000
  H   H258      1.0  0.19407  0.12730  0.56406  1.0000
  H   H259      1.0  0.20778  0.09357  0.56363  1.0000
  H   H260      1.0  0.18237  0.15800  0.47971  1.0000
  C   C389      1.0  0.79745  0.91591  0.42186  1.0000
  C   C390      1.0  0.78870  0.93551  0.41938  1.0000
  H   H261      1.0  0.78487  0.94251  0.47842  1.0000
  C   C391      1.0  0.80958  0.88588  0.33980  1.0000
  C   C392      1.0  0.82481  0.84572  0.33830  1.0000
  C   C393      1.0  0.82125  0.85583  0.42050  1.0000
  C   C394      1.0  0.81361  0.87589  0.42240  1.0000
  C   C395      1.0  0.80962  0.88609  0.50387  1.0000
  C   C396      1.0  0.80159  0.90588  0.50359  1.0000
  H   H262      1.0  0.81233  0.87911  0.56402  1.0000
  H   H263      1.0  0.79860  0.91283  0.56357  1.0000
  H   H264      1.0  0.82403  0.84842  0.47969  1.0000
  C   C397      1.0  0.91591  0.20895  0.42179  1.0000
  C   C398      1.0  0.93551  0.21769  0.41928  1.0000
  H   H265      1.0  0.94252  0.22152  0.47832  1.0000
  C   C399      1.0  0.88587  0.19682  0.33976  1.0000
  C   C400      1.0  0.84571  0.18159  0.33830  1.0000
  C   C401      1.0  0.85583  0.18516  0.42049  1.0000
  C   C402      1.0  0.87589  0.19280  0.42238  1.0000
  C   C403      1.0  0.88609  0.19679  0.50383  1.0000
  C   C404      1.0  0.90589  0.20482  0.50354  1.0000
  H   H266      1.0  0.87911  0.19410  0.56400  1.0000
  H   H267      1.0  0.91283  0.20782  0.56351  1.0000
  H   H268      1.0  0.84841  0.18239  0.47969  1.0000
  C   C405      1.0  0.09049  0.79747  0.42193  1.0000
  C   C406      1.0  0.07089  0.78872  0.41946  1.0000
  H   H269      1.0  0.06390  0.78487  0.47851  1.0000
  C   C407      1.0  0.12053  0.80959  0.33986  1.0000
  C   C408      1.0  0.16069  0.82481  0.33833  1.0000
  C   C409      1.0  0.15058  0.82125  0.42054  1.0000
  C   C410      1.0  0.13051  0.81361  0.42245  1.0000
  C   C411      1.0  0.12032  0.80963  0.50392  1.0000
  C   C412      1.0  0.10052  0.80160  0.50366  1.0000
  H   H270      1.0  0.12730  0.81233  0.56408  1.0000
  H   H271      1.0  0.09358  0.79861  0.56364  1.0000
  H   H272      1.0  0.15799  0.82403  0.47972  1.0000
  C   C413      1.0  0.28411  0.56125  0.34237  1.0000
  C   C414      1.0  0.28855  0.57193  0.42300  1.0000
  N   N45       1.0  0.29698  0.59078  0.41775  1.0000
  C   C415      1.0  0.30157  0.60053  0.33995  1.0000
  N   N46       1.0  0.31328  0.63067  0.41756  1.0000
  C   C416      1.0  0.32061  0.64999  0.42235  1.0000
  C   C417      1.0  0.28406  0.56447  0.51462  1.0000
  H   H273      1.0  0.27770  0.54919  0.51521  1.0000
  H   H274      1.0  0.27323  0.57466  0.54690  1.0000
  H   H275      1.0  0.29802  0.56425  0.55403  1.0000
  C   C418      1.0  0.32367  0.65896  0.51238  1.0000
  H   H276      1.0  0.31957  0.64827  0.56541  1.0000
  H   H277      1.0  0.31426  0.67249  0.51981  1.0000
  H   H278      1.0  0.33958  0.66314  0.52114  1.0000
  C   C419      1.0  0.72225  0.44519  0.34245  1.0000
  C   C420      1.0  0.71785  0.43447  0.42303  1.0000
  N   N47       1.0  0.70943  0.41561  0.41779  1.0000
  C   C421      1.0  0.70485  0.40586  0.34000  1.0000
  N   N48       1.0  0.69313  0.37573  0.41760  1.0000
  C   C422      1.0  0.68580  0.35641  0.42237  1.0000
  C   C423      1.0  0.72234  0.44193  0.51464  1.0000
  H   H279      1.0  0.72868  0.45722  0.51523  1.0000
  H   H280      1.0  0.73320  0.43176  0.54689  1.0000
  H   H281      1.0  0.70839  0.44213  0.55409  1.0000
  C   C424      1.0  0.68274  0.34743  0.51240  1.0000
  H   H282      1.0  0.68684  0.35812  0.56544  1.0000
  H   H283      1.0  0.69215  0.33390  0.51982  1.0000
  H   H284      1.0  0.66683  0.34326  0.52116  1.0000
  C   C425      1.0  0.56122  0.72227  0.34249  1.0000
  C   C426      1.0  0.57193  0.71786  0.42307  1.0000
  N   N49       1.0  0.59079  0.70944  0.41783  1.0000
  C   C427      1.0  0.60054  0.70485  0.34003  1.0000
  N   N50       1.0  0.63067  0.69313  0.41762  1.0000
  C   C428      1.0  0.65000  0.68580  0.42239  1.0000
  C   C429      1.0  0.56448  0.72236  0.51469  1.0000
  H   H285      1.0  0.54919  0.72870  0.51529  1.0000
  H   H286      1.0  0.57466  0.73321  0.54691  1.0000
  H   H287      1.0  0.56428  0.70840  0.55416  1.0000
  C   C430      1.0  0.65897  0.68274  0.51242  1.0000
  H   H288      1.0  0.64829  0.68683  0.56545  1.0000
  H   H289      1.0  0.67250  0.69215  0.51984  1.0000
  H   H290      1.0  0.66314  0.66683  0.52116  1.0000
  C   C431      1.0  0.44516  0.28412  0.34231  1.0000
  C   C432      1.0  0.43448  0.28856  0.42293  1.0000
  N   N51       1.0  0.41562  0.29699  0.41770  1.0000
  C   C433      1.0  0.40587  0.30158  0.33992  1.0000
  N   N52       1.0  0.37574  0.31329  0.41755  1.0000
  C   C434      1.0  0.35641  0.32062  0.42234  1.0000
  C   C435      1.0  0.44193  0.28406  0.51455  1.0000
  H   H291      1.0  0.45721  0.27770  0.51515  1.0000
  H   H292      1.0  0.43174  0.27322  0.54681  1.0000
  H   H293      1.0  0.44215  0.29802  0.55399  1.0000
  C   C436      1.0  0.34744  0.32367  0.51238  1.0000
  H   H294      1.0  0.35813  0.31957  0.56541  1.0000
  H   H295      1.0  0.33391  0.31427  0.51980  1.0000
  H   H296      1.0  0.34327  0.33958  0.52116  1.0000
  C   C437      1.0  0.21022  0.88101  0.34282  1.0000
  C   C438      1.0  0.21252  0.89234  0.42344  1.0000
  N   N53       1.0  0.21658  0.91261  0.41813  1.0000
  C   C439      1.0  0.21863  0.92320  0.34035  1.0000
  N   N54       1.0  0.22554  0.95486  0.41769  1.0000
  C   C440      1.0  0.23021  0.97500  0.42225  1.0000
  C   C441      1.0  0.21090  0.88385  0.51515  1.0000
  H   H297      1.0  0.20764  0.86762  0.51570  1.0000
  H   H298      1.0  0.19875  0.89159  0.55132  1.0000
  H   H299      1.0  0.22516  0.88628  0.55085  1.0000
  C   C442      1.0  0.23296  0.98412  0.51221  1.0000
  H   H300      1.0  0.23025  0.97303  0.56534  1.0000
  H   H301      1.0  0.22234  0.99666  0.52112  1.0000
  H   H302      1.0  0.24844  0.98981  0.51935  1.0000
  C   C443      1.0  0.79619  0.12539  0.34286  1.0000
  C   C444      1.0  0.79388  0.11406  0.42348  1.0000
  N   N55       1.0  0.78983  0.09379  0.41820  1.0000
  C   C445      1.0  0.78778  0.08320  0.34041  1.0000
  N   N56       1.0  0.78086  0.05155  0.41779  1.0000
  C   C446      1.0  0.77618  0.03141  0.42238  1.0000
  C   C447      1.0  0.79551  0.12255  0.51518  1.0000
  H   H303      1.0  0.79877  0.13878  0.51572  1.0000
  H   H304      1.0  0.80766  0.11482  0.55135  1.0000
  H   H305      1.0  0.78125  0.12012  0.55089  1.0000
  C   C448      1.0  0.77343  0.02229  0.51233  1.0000
  H   H306      1.0  0.77614  0.03338  0.56545  1.0000
  H   H307      1.0  0.78406  0.00974  0.52124  1.0000
  H   H308      1.0  0.75796  0.01659  0.51945  1.0000
  C   C449      1.0  0.12540  0.21022  0.34283  1.0000
  C   C450      1.0  0.11407  0.21253  0.42345  1.0000
  N   N57       1.0  0.09380  0.21658  0.41817  1.0000
  C   C451      1.0  0.08321  0.21863  0.34038  1.0000
  N   N58       1.0  0.05155  0.22554  0.41775  1.0000
  C   C452      1.0  0.03141  0.23022  0.42234  1.0000
  C   C453      1.0  0.12256  0.21090  0.51515  1.0000
  H   H309      1.0  0.13879  0.20764  0.51570  1.0000
  H   H310      1.0  0.11483  0.19875  0.55132  1.0000
  H   H311      1.0  0.12013  0.22516  0.55087  1.0000
  C   C454      1.0  0.02229  0.23297  0.51229  1.0000
  H   H312      1.0  0.03339  0.23026  0.56542  1.0000
  H   H313      1.0  0.00975  0.22234  0.52121  1.0000
  H   H314      1.0  0.01660  0.24844  0.51942  1.0000
  C   C455      1.0  0.88102  0.79619  0.34285  1.0000
  C   C456      1.0  0.89235  0.79388  0.42348  1.0000
  N   N59       1.0  0.91261  0.78983  0.41819  1.0000
  C   C457      1.0  0.92320  0.78777  0.34041  1.0000
  N   N60       1.0  0.95486  0.78085  0.41778  1.0000
  C   C458      1.0  0.97500  0.77618  0.42236  1.0000
  C   C459      1.0  0.88385  0.79551  0.51517  1.0000
  H   H315      1.0  0.86763  0.79877  0.51572  1.0000
  H   H316      1.0  0.89159  0.80766  0.55134  1.0000
  H   H317      1.0  0.88628  0.78125  0.55089  1.0000
  C   C460      1.0  0.98411  0.77343  0.51231  1.0000
  H   H318      1.0  0.97302  0.77613  0.56544  1.0000
  H   H319      1.0  0.99666  0.78406  0.52126  1.0000
  H   H320      1.0  0.98982  0.75795  0.51942  1.0000
  C   C461      1.0  0.28997  0.41258  0.42166  1.0000
  C   C462      1.0  0.29422  0.39154  0.41938  1.0000
  H   H321      1.0  0.29584  0.38376  0.47851  1.0000
  C   C463      1.0  0.28335  0.44428  0.33940  1.0000
  C   C464      1.0  0.27373  0.48620  0.33786  1.0000
  C   C465      1.0  0.27623  0.47575  0.42002  1.0000
  C   C466      1.0  0.28109  0.45483  0.42195  1.0000
  C   C467      1.0  0.28336  0.44414  0.50346  1.0000
  C   C468      1.0  0.28779  0.42323  0.50331  1.0000
  H   H322      1.0  0.28171  0.45145  0.56359  1.0000
  H   H323      1.0  0.28929  0.41584  0.56333  1.0000
  H   H324      1.0  0.27403  0.48336  0.47921  1.0000
  C   C469      1.0  0.71644  0.59384  0.42160  1.0000
  C   C470      1.0  0.71219  0.61489  0.41935  1.0000
  H   H325      1.0  0.71057  0.62266  0.47849  1.0000
  C   C471      1.0  0.72305  0.56215  0.33931  1.0000
  C   C472      1.0  0.73264  0.52022  0.33772  1.0000
  C   C473      1.0  0.73015  0.53067  0.41990  1.0000
  C   C474      1.0  0.72531  0.55159  0.42185  1.0000
  C   C475      1.0  0.72306  0.56228  0.50337  1.0000
  C   C476      1.0  0.71862  0.58318  0.50324  1.0000
  H   H326      1.0  0.72470  0.55497  0.56349  1.0000
  H   H327      1.0  0.71713  0.59057  0.56328  1.0000
  H   H328      1.0  0.73237  0.52306  0.47908  1.0000
  C   C477      1.0  0.41257  0.71643  0.42164  1.0000
  C   C478      1.0  0.39152  0.71218  0.41938  1.0000
  H   H329      1.0  0.38375  0.71056  0.47850  1.0000
  C   C479      1.0  0.44427  0.72306  0.33938  1.0000
  C   C480      1.0  0.48619  0.73267  0.33782  1.0000
  C   C481      1.0  0.47574  0.73017  0.41999  1.0000
  C   C482      1.0  0.45482  0.72532  0.42193  1.0000
  C   C483      1.0  0.44412  0.72306  0.50343  1.0000
  C   C484      1.0  0.42322  0.71862  0.50329  1.0000
  H   H330      1.0  0.45144  0.72471  0.56356  1.0000
  H   H331      1.0  0.41583  0.71713  0.56332  1.0000
  H   H332      1.0  0.48334  0.73238  0.47917  1.0000
  C   C485      1.0  0.59384  0.28997  0.42162  1.0000
  C   C486      1.0  0.61488  0.29422  0.41936  1.0000
  H   H333      1.0  0.62266  0.29583  0.47849  1.0000
  C   C487      1.0  0.56214  0.28336  0.33934  1.0000
  C   C488      1.0  0.52020  0.27378  0.33776  1.0000
  C   C489      1.0  0.53066  0.27626  0.41993  1.0000
  C   C490      1.0  0.55158  0.28110  0.42189  1.0000
  C   C491      1.0  0.56228  0.28336  0.50340  1.0000
  C   C492      1.0  0.58318  0.28779  0.50326  1.0000
  H   H334      1.0  0.55496  0.28171  0.56352  1.0000
  H   H335      1.0  0.59057  0.28927  0.56329  1.0000
  H   H336      1.0  0.52306  0.27405  0.47912  1.0000
  C   C493      1.0  0.21898  0.25690  0.42225  1.0000
  C   C494      1.0  0.20396  0.24157  0.41995  1.0000
  H   H337      1.0  0.19848  0.23581  0.47907  1.0000
  C   C495      1.0  0.24186  0.27979  0.33996  1.0000
  C   C496      1.0  0.27260  0.30982  0.33823  1.0000
  C   C497      1.0  0.26492  0.30236  0.42047  1.0000
  C   C498      1.0  0.24954  0.28738  0.42249  1.0000
  C   C499      1.0  0.24178  0.27969  0.50402  1.0000
  C   C500      1.0  0.22664  0.26462  0.50391  1.0000
  H   H338      1.0  0.24714  0.28495  0.56413  1.0000
  H   H339      1.0  0.22135  0.25925  0.56394  1.0000
  H   H340      1.0  0.27070  0.30780  0.47962  1.0000
  C   C501      1.0  0.78743  0.74952  0.42225  1.0000
  C   C502      1.0  0.80246  0.76485  0.41996  1.0000
  H   H341      1.0  0.80794  0.77061  0.47908  1.0000
  C   C503      1.0  0.76455  0.72663  0.33995  1.0000
  C   C504      1.0  0.73380  0.69661  0.33822  1.0000
  C   C505      1.0  0.74150  0.70406  0.42047  1.0000
  C   C506      1.0  0.75687  0.71904  0.42248  1.0000
  C   C507      1.0  0.76463  0.72672  0.50402  1.0000
  C   C508      1.0  0.77977  0.74180  0.50391  1.0000
  H   H342      1.0  0.75927  0.72147  0.56413  1.0000
  H   H343      1.0  0.78507  0.74716  0.56394  1.0000
  H   H344      1.0  0.73571  0.69863  0.47961  1.0000
  C   C509      1.0  0.74951  0.21897  0.42226  1.0000
  C   C510      1.0  0.76484  0.20395  0.41997  1.0000
  H   H345      1.0  0.77060  0.19846  0.47908  1.0000
  C   C511      1.0  0.72662  0.24186  0.33996  1.0000
  C   C512      1.0  0.69660  0.27260  0.33823  1.0000
  C   C513      1.0  0.70405  0.26491  0.42047  1.0000
  C   C514      1.0  0.71903  0.24953  0.42249  1.0000
  C   C515      1.0  0.72672  0.24177  0.50403  1.0000
  C   C516      1.0  0.74179  0.22663  0.50391  1.0000
  H   H346      1.0  0.72147  0.24714  0.56414  1.0000
  H   H347      1.0  0.74716  0.22134  0.56394  1.0000
  H   H348      1.0  0.69862  0.27069  0.47962  1.0000
  C   C517      1.0  0.25690  0.78743  0.42227  1.0000
  C   C518      1.0  0.24157  0.80245  0.41997  1.0000
  H   H349      1.0  0.23580  0.80793  0.47909  1.0000
  C   C519      1.0  0.27979  0.76455  0.33996  1.0000
  C   C520      1.0  0.30981  0.73380  0.33823  1.0000
  C   C521      1.0  0.30236  0.74149  0.42048  1.0000
  C   C522      1.0  0.28738  0.75687  0.42250  1.0000
  C   C523      1.0  0.27969  0.76463  0.50403  1.0000
  C   C524      1.0  0.26462  0.77977  0.50392  1.0000
  H   H350      1.0  0.28495  0.75927  0.56414  1.0000
  H   H351      1.0  0.25925  0.78506  0.56395  1.0000
  H   H352      1.0  0.30779  0.73571  0.47963  1.0000
  C   C525      1.0  0.51844  0.98800  0.42337  1.0000
  C   C526      1.0  0.53357  0.97288  0.42043  1.0000
  H   H353      1.0  0.53930  0.96718  0.47923  1.0000
  C   C527      1.0  0.49562  0.01079  0.34129  1.0000
  C   C528      1.0  0.46550  0.04090  0.33874  1.0000
  C   C529      1.0  0.47288  0.03350  0.42148  1.0000
  C   C530      1.0  0.48802  0.01837  0.42388  1.0000
  C   C531      1.0  0.49571  0.01069  0.50552  1.0000
  C   C532      1.0  0.51082  0.99561  0.50527  1.0000
  H   H354      1.0  0.49040  0.01601  0.56561  1.0000
  H   H355      1.0  0.51619  0.99025  0.56518  1.0000
  H   H356      1.0  0.46720  0.03916  0.48042  1.0000
  C   C533      1.0  0.01840  0.51843  0.42337  1.0000
  C   C534      1.0  0.03352  0.53357  0.42043  1.0000
  H   H357      1.0  0.03921  0.53930  0.47923  1.0000
  C   C535      1.0  0.99562  0.49562  0.34129  1.0000
  C   C536      1.0  0.96551  0.46549  0.33873  1.0000
  C   C537      1.0  0.97291  0.47287  0.42148  1.0000
  C   C538      1.0  0.98803  0.48802  0.42387  1.0000
  C   C539      1.0  0.99571  0.49571  0.50552  1.0000
  C   C540      1.0  0.01079  0.51082  0.50527  1.0000
  H   H358      1.0  0.99040  0.49039  0.56561  1.0000
  H   H359      1.0  0.01614  0.51619  0.56518  1.0000
  H   H360      1.0  0.96724  0.46719  0.48041  1.0000
