data_image0
_chemical_formula_structural       C3NC3NC5NC5NC20H18N4C3NC3NC5NC5NC20H18N4C3NC3NC5NC5NC20H18N4C3NC3NC5NC5NC20H18N4C3NC3NC5NC5NC20H18N4C3NC3NC5NC5NC20H18N4C2HC3HC2H4CHC2HC3HC2H4CHC2HC3HC2H4CHC2HC3HC2H4CHC2HC3HC2H4CHC2HC3HC2H4CHC2HC3HC2H4CHC2HC3HC2H4CHC2HC3HC2H4CHC2HC3HC2H4CHC2HC3HC2H4CHC2HC3HC2H4CHC8H8C8H8C8H8C8H8C8H8C8H8C7H3NO2CHC7H3NO2CHC7H3NO2CHC7H3NO2CHC7H3NO2CHC7H3NO2CHC7H3NO2CHC7H3NO2CHC7H3NO2CHC7H3NO2CHC7H3NO2CHC7H3NO2CH
_chemical_formula_sum              "C456 N60 H288 O24"
_cell_length_a       79.8857
_cell_length_b       79.8858
_cell_length_c       14.9786
_cell_angle_alpha    90.004
_cell_angle_beta     89.9212
_cell_angle_gamma    120

_space_group_name_H-M_alt    "P 1"
_space_group_IT_number       1

loop_
  _space_group_symop_operation_xyz
  'x, y, z'

loop_
  _atom_site_type_symbol
  _atom_site_label
  _atom_site_symmetry_multiplicity
  _atom_site_fract_x
  _atom_site_fract_y
  _atom_site_fract_z
  _atom_site_occupancy
  C   C1        1.0  0.20864  0.38040  0.31514  1.0000
  C   C2        1.0  0.22587  0.38028  0.31534  1.0000
  C   C3        1.0  0.24103  0.39942  0.31345  1.0000
  N   N1        1.0  0.23243  0.41037  0.31189  1.0000
  C   C4        1.0  0.21287  0.39961  0.31341  1.0000
  C   C5        1.0  0.19888  0.40567  0.31371  1.0000
  C   C6        1.0  0.20319  0.42521  0.31313  1.0000
  N   N2        1.0  0.22080  0.44133  0.31238  1.0000
  C   C7        1.0  0.21955  0.45758  0.31279  1.0000
  C   C8        1.0  0.19984  0.45151  0.31371  1.0000
  C   C9        1.0  0.18976  0.43156  0.31397  1.0000
  C   C10       1.0  0.23493  0.47702  0.31277  1.0000
  C   C11       1.0  0.25491  0.48281  0.31200  1.0000
  N   N3        1.0  0.26349  0.47184  0.31090  1.0000
  C   C12       1.0  0.28305  0.48261  0.31221  1.0000
  C   C13       1.0  0.28728  0.50183  0.31304  1.0000
  C   C14       1.0  0.27007  0.50196  0.31297  1.0000
  C   C15       1.0  0.29706  0.47658  0.31318  1.0000
  C   C16       1.0  0.29276  0.45707  0.31253  1.0000
  N   N4        1.0  0.27515  0.44095  0.31160  1.0000
  C   C17       1.0  0.27641  0.42470  0.31282  1.0000
  C   C18       1.0  0.29614  0.43082  0.31403  1.0000
  C   C19       1.0  0.30622  0.45077  0.31401  1.0000
  C   C20       1.0  0.26102  0.40524  0.31392  1.0000
  C   C21       1.0  0.26615  0.39057  0.31948  1.0000
  C   C22       1.0  0.27886  0.36312  0.33138  1.0000
  C   C23       1.0  0.27540  0.36888  0.24753  1.0000
  C   C24       1.0  0.26905  0.38241  0.24144  1.0000
  C   C25       1.0  0.31687  0.49120  0.31894  1.0000
  C   C26       1.0  0.35578  0.52187  0.33141  1.0000
  C   C27       1.0  0.34725  0.51455  0.24743  1.0000
  C   C28       1.0  0.32801  0.49931  0.24105  1.0000
  C   C29       1.0  0.22996  0.49182  0.31502  1.0000
  C   C30       1.0  0.22841  0.50030  0.23504  1.0000
  C   C31       1.0  0.22449  0.51562  0.23757  1.0000
  C   C32       1.0  0.22196  0.52273  0.32008  1.0000
  C   C33       1.0  0.17898  0.39115  0.31603  1.0000
  C   C34       1.0  0.16829  0.38444  0.23614  1.0000
  C   C35       1.0  0.13870  0.36387  0.32130  1.0000
  C   C36       1.0  0.14836  0.37097  0.23877  1.0000
  H   H1        1.0  0.14091  0.36682  0.17996  1.0000
  H   H2        1.0  0.17485  0.38963  0.17568  1.0000
  H   H3        1.0  0.19529  0.36826  0.31669  1.0000
  H   H4        1.0  0.22692  0.36804  0.31697  1.0000
  H   H5        1.0  0.23944  0.42424  0.31043  1.0000
  H   H6        1.0  0.25648  0.45797  0.31049  1.0000
  H   H7        1.0  0.17503  0.42325  0.31500  1.0000
  H   H8        1.0  0.19362  0.46000  0.31440  1.0000
  H   H9        1.0  0.23051  0.49564  0.17459  1.0000
  H   H10       1.0  0.22397  0.52180  0.17870  1.0000
  H   H11       1.0  0.26906  0.51421  0.31419  1.0000
  H   H12       1.0  0.30062  0.51399  0.31425  1.0000
  H   H13       1.0  0.30239  0.42236  0.31555  1.0000
  H   H14       1.0  0.32094  0.45911  0.31543  1.0000
  H   H15       1.0  0.32209  0.49444  0.17930  1.0000
  H   H16       1.0  0.35495  0.52041  0.19000  1.0000
  H   H17       1.0  0.26694  0.38655  0.17977  1.0000
  H   H18       1.0  0.27774  0.36343  0.18998  1.0000
  N   N5        1.0  0.37365  0.53697  0.33227  1.0000
  N   N6        1.0  0.21917  0.53775  0.32793  1.0000
  N   N7        1.0  0.11974  0.35199  0.32927  1.0000
  N   N8        1.0  0.28595  0.35117  0.33199  1.0000
  C   C37       1.0  0.67443  0.82860  0.31660  1.0000
  C   C38       1.0  0.67455  0.84595  0.31675  1.0000
  C   C39       1.0  0.65541  0.84196  0.31479  1.0000
  N   N9        1.0  0.64445  0.82241  0.31319  1.0000
  C   C40       1.0  0.65522  0.81361  0.31478  1.0000
  C   C41       1.0  0.64916  0.79355  0.31504  1.0000
  C   C42       1.0  0.62962  0.77833  0.31440  1.0000
  N   N10       1.0  0.61351  0.77982  0.31371  1.0000
  C   C43       1.0  0.59726  0.76231  0.31403  1.0000
  C   C44       1.0  0.60333  0.74868  0.31481  1.0000
  C   C45       1.0  0.62328  0.75855  0.31514  1.0000
  C   C46       1.0  0.57782  0.75825  0.31408  1.0000
  C   C47       1.0  0.57202  0.77244  0.31341  1.0000
  N   N11       1.0  0.58299  0.79198  0.31216  1.0000
  C   C48       1.0  0.57221  0.80077  0.31356  1.0000
  C   C49       1.0  0.55299  0.78577  0.31477  1.0000
  C   C50       1.0  0.55287  0.76845  0.31469  1.0000
  C   C51       1.0  0.57824  0.82081  0.31430  1.0000
  C   C52       1.0  0.59775  0.83603  0.31364  1.0000
  N   N12       1.0  0.61387  0.83454  0.31287  1.0000
  C   C53       1.0  0.63012  0.85205  0.31403  1.0000
  C   C54       1.0  0.62400  0.86566  0.31506  1.0000
  C   C55       1.0  0.60405  0.85579  0.31493  1.0000
  C   C56       1.0  0.64958  0.85613  0.31511  1.0000
  C   C57       1.0  0.66425  0.87593  0.32068  1.0000
  C   C58       1.0  0.69169  0.91609  0.33254  1.0000
  C   C59       1.0  0.68600  0.90686  0.24871  1.0000
  C   C60       1.0  0.67248  0.88697  0.24264  1.0000
  C   C61       1.0  0.56362  0.82600  0.32008  1.0000
  C   C62       1.0  0.53293  0.83423  0.33258  1.0000
  C   C63       1.0  0.54026  0.83297  0.24858  1.0000
  C   C64       1.0  0.55551  0.82898  0.24219  1.0000
  C   C65       1.0  0.56301  0.73847  0.31631  1.0000
  C   C66       1.0  0.55454  0.72846  0.23633  1.0000
  C   C67       1.0  0.53923  0.70922  0.23886  1.0000
  C   C68       1.0  0.53213  0.69956  0.32135  1.0000
  C   C69       1.0  0.66368  0.78819  0.31735  1.0000
  C   C70       1.0  0.67045  0.78422  0.23744  1.0000
  C   C71       1.0  0.69095  0.77516  0.32258  1.0000
  C   C72       1.0  0.68390  0.77774  0.24006  1.0000
  H   H19       1.0  0.68809  0.77446  0.18123  1.0000
  H   H20       1.0  0.66529  0.78559  0.17699  1.0000
  H   H21       1.0  0.68657  0.82738  0.31821  1.0000
  H   H22       1.0  0.68678  0.85923  0.31843  1.0000
  H   H23       1.0  0.63059  0.81554  0.31162  1.0000
  H   H24       1.0  0.59686  0.79885  0.31118  1.0000
  H   H25       1.0  0.63159  0.75213  0.31604  1.0000
  H   H26       1.0  0.59484  0.73396  0.31542  1.0000
  H   H27       1.0  0.55919  0.73524  0.17590  1.0000
  H   H28       1.0  0.53304  0.70254  0.18000  1.0000
  H   H29       1.0  0.54062  0.75518  0.31617  1.0000
  H   H30       1.0  0.54083  0.78696  0.31610  1.0000
  H   H31       1.0  0.63245  0.88037  0.31630  1.0000
  H   H32       1.0  0.59570  0.86217  0.31612  1.0000
  H   H33       1.0  0.56039  0.82790  0.18043  1.0000
  H   H34       1.0  0.53440  0.83477  0.19115  1.0000
  H   H35       1.0  0.66837  0.88071  0.18098  1.0000
  H   H36       1.0  0.69150  0.91463  0.19116  1.0000
  N   N13       1.0  0.51783  0.83700  0.33345  1.0000
  N   N14       1.0  0.51710  0.68176  0.32921  1.0000
  N   N15       1.0  0.70283  0.76809  0.33052  1.0000
  N   N16       1.0  0.70366  0.93512  0.33311  1.0000
  C   C73       1.0  0.22626  0.84619  0.31365  1.0000
  C   C74       1.0  0.20891  0.82896  0.31381  1.0000
  C   C75       1.0  0.21289  0.81381  0.31199  1.0000
  N   N17       1.0  0.23244  0.82240  0.31042  1.0000
  C   C76       1.0  0.24125  0.84196  0.31197  1.0000
  C   C77       1.0  0.26130  0.85595  0.31232  1.0000
  C   C78       1.0  0.27652  0.85163  0.31188  1.0000
  N   N18       1.0  0.27503  0.83402  0.31126  1.0000
  C   C79       1.0  0.29253  0.83528  0.31187  1.0000
  C   C80       1.0  0.30617  0.85498  0.31279  1.0000
  C   C81       1.0  0.29630  0.86506  0.31285  1.0000
  C   C82       1.0  0.29659  0.81989  0.31207  1.0000
  C   C83       1.0  0.28240  0.79991  0.31128  1.0000
  N   N19       1.0  0.26285  0.79134  0.30991  1.0000
  C   C84       1.0  0.25406  0.77178  0.31126  1.0000
  C   C85       1.0  0.26906  0.76755  0.31251  1.0000
  C   C86       1.0  0.28639  0.78475  0.31256  1.0000
  C   C87       1.0  0.23402  0.75776  0.31194  1.0000
  C   C88       1.0  0.21881  0.76207  0.31122  1.0000
  N   N20       1.0  0.22030  0.77968  0.31035  1.0000
  C   C89       1.0  0.20280  0.77842  0.31144  1.0000
  C   C90       1.0  0.18918  0.75870  0.31251  1.0000
  C   C91       1.0  0.19905  0.74861  0.31247  1.0000
  C   C92       1.0  0.19872  0.79381  0.31245  1.0000
  C   C93       1.0  0.17892  0.78868  0.31802  1.0000
  C   C94       1.0  0.13875  0.77596  0.32998  1.0000
  C   C95       1.0  0.14801  0.77948  0.24613  1.0000
  C   C96       1.0  0.16790  0.78585  0.24001  1.0000
  C   C97       1.0  0.22882  0.73795  0.31771  1.0000
  C   C98       1.0  0.22056  0.69903  0.33023  1.0000
  C   C99       1.0  0.22190  0.70763  0.24622  1.0000
  C   C100      1.0  0.22589  0.72686  0.23981  1.0000
  C   C101      1.0  0.31636  0.82486  0.31470  1.0000
  C   C102      1.0  0.32650  0.82646  0.23494  1.0000
  C   C103      1.0  0.34574  0.83042  0.23787  1.0000
  C   C104      1.0  0.35527  0.83290  0.32056  1.0000
  C   C105      1.0  0.26667  0.87585  0.31466  1.0000
  C   C106      1.0  0.27072  0.88659  0.23478  1.0000
  C   C107      1.0  0.27969  0.91613  0.31999  1.0000
  C   C108      1.0  0.27719  0.90652  0.23746  1.0000
  H   H37       1.0  0.28051  0.91399  0.17865  1.0000
  H   H38       1.0  0.26938  0.88006  0.17432  1.0000
  H   H39       1.0  0.22748  0.85954  0.31524  1.0000
  H   H40       1.0  0.19563  0.82792  0.31551  1.0000
  H   H41       1.0  0.23931  0.81539  0.30901  1.0000
  H   H42       1.0  0.25599  0.79835  0.30896  1.0000
  H   H43       1.0  0.30272  0.87979  0.31383  1.0000
  H   H44       1.0  0.32088  0.86121  0.31360  1.0000
  H   H45       1.0  0.31983  0.82442  0.17436  1.0000
  H   H46       1.0  0.35253  0.83097  0.17914  1.0000
  H   H47       1.0  0.29965  0.78576  0.31410  1.0000
  H   H48       1.0  0.26786  0.75420  0.31385  1.0000
  H   H49       1.0  0.17447  0.75244  0.31367  1.0000
  H   H50       1.0  0.19266  0.73389  0.31363  1.0000
  H   H51       1.0  0.22704  0.73284  0.17805  1.0000
  H   H52       1.0  0.22015  0.69997  0.18880  1.0000
  H   H53       1.0  0.17419  0.78800  0.17833  1.0000
  H   H54       1.0  0.14026  0.77720  0.18859  1.0000
  N   N21       1.0  0.21780  0.68117  0.33113  1.0000
  N   N22       1.0  0.37306  0.83567  0.32877  1.0000
  N   N23       1.0  0.28676  0.93509  0.32801  1.0000
  N   N24       1.0  0.11972  0.76889  0.33063  1.0000
  C   C109      1.0  0.86423  0.65639  0.31615  1.0000
  C   C110      1.0  0.84701  0.65651  0.31660  1.0000
  C   C111      1.0  0.83185  0.63737  0.31508  1.0000
  N   N25       1.0  0.84044  0.62641  0.31347  1.0000
  C   C112      1.0  0.86001  0.63717  0.31470  1.0000
  C   C113      1.0  0.87400  0.63111  0.31500  1.0000
  C   C114      1.0  0.86969  0.61157  0.31461  1.0000
  N   N26       1.0  0.85208  0.59546  0.31404  1.0000
  C   C115      1.0  0.85334  0.57921  0.31460  1.0000
  C   C116      1.0  0.87304  0.58528  0.31543  1.0000
  C   C117      1.0  0.88312  0.60523  0.31551  1.0000
  C   C118      1.0  0.83796  0.55977  0.31472  1.0000
  C   C119      1.0  0.81797  0.55397  0.31399  1.0000
  N   N27       1.0  0.80940  0.56494  0.31286  1.0000
  C   C120      1.0  0.78984  0.55417  0.31421  1.0000
  C   C121      1.0  0.78561  0.53495  0.31517  1.0000
  C   C122      1.0  0.80282  0.53483  0.31502  1.0000
  C   C123      1.0  0.77582  0.56020  0.31513  1.0000
  C   C124      1.0  0.78012  0.57971  0.31462  1.0000
  N   N28       1.0  0.79773  0.59583  0.31365  1.0000
  C   C125      1.0  0.79647  0.61208  0.31496  1.0000
  C   C126      1.0  0.77674  0.60596  0.31627  1.0000
  C   C127      1.0  0.76666  0.58601  0.31618  1.0000
  C   C128      1.0  0.81186  0.63154  0.31587  1.0000
  C   C129      1.0  0.80672  0.64621  0.32142  1.0000
  C   C130      1.0  0.79402  0.67367  0.33328  1.0000
  C   C131      1.0  0.79754  0.66793  0.24945  1.0000
  C   C132      1.0  0.80391  0.65442  0.24338  1.0000
  C   C133      1.0  0.75601  0.54558  0.32093  1.0000
  C   C134      1.0  0.71709  0.51490  0.33345  1.0000
  C   C135      1.0  0.72568  0.52223  0.24944  1.0000
  C   C136      1.0  0.74492  0.53746  0.24305  1.0000
  C   C137      1.0  0.84293  0.54496  0.31697  1.0000
  C   C138      1.0  0.84451  0.53650  0.23700  1.0000
  C   C139      1.0  0.84844  0.52119  0.23955  1.0000
  C   C140      1.0  0.85094  0.51407  0.32205  1.0000
  C   C141      1.0  0.89390  0.64564  0.31694  1.0000
  C   C142      1.0  0.90459  0.65228  0.23685  1.0000
  C   C143      1.0  0.93419  0.67288  0.32145  1.0000
  C   C144      1.0  0.92452  0.66574  0.23911  1.0000
  H   H55       1.0  0.93196  0.66984  0.18016  1.0000
  H   H56       1.0  0.89802  0.64705  0.17653  1.0000
  H   H57       1.0  0.87759  0.66853  0.31766  1.0000
  H   H58       1.0  0.84596  0.66874  0.31831  1.0000
  H   H59       1.0  0.83344  0.61254  0.31245  1.0000
  H   H60       1.0  0.81640  0.57881  0.31224  1.0000
  H   H61       1.0  0.89785  0.61354  0.31642  1.0000
  H   H62       1.0  0.87927  0.57679  0.31616  1.0000
  H   H63       1.0  0.84246  0.54118  0.17655  1.0000
  H   H64       1.0  0.84900  0.51502  0.18067  1.0000
  H   H65       1.0  0.80383  0.52257  0.31643  1.0000
  H   H66       1.0  0.77226  0.52279  0.31644  1.0000
  H   H67       1.0  0.77048  0.61442  0.31767  1.0000
  H   H68       1.0  0.75194  0.57767  0.31750  1.0000
  H   H69       1.0  0.75089  0.54235  0.18129  1.0000
  H   H70       1.0  0.71802  0.51636  0.19202  1.0000
  H   H71       1.0  0.80605  0.65028  0.18171  1.0000
  H   H72       1.0  0.79525  0.67341  0.19189  1.0000
  N   N29       1.0  0.69922  0.49980  0.33434  1.0000
  N   N30       1.0  0.85371  0.49904  0.32992  1.0000
  N   N31       1.0  0.95315  0.68478  0.32909  1.0000
  N   N32       1.0  0.78693  0.68562  0.33384  1.0000
  C   C145      1.0  0.39846  0.20818  0.31724  1.0000
  C   C146      1.0  0.39834  0.19083  0.31749  1.0000
  C   C147      1.0  0.41749  0.19482  0.31590  1.0000
  N   N33       1.0  0.42844  0.21437  0.31448  1.0000
  C   C148      1.0  0.41768  0.22318  0.31579  1.0000
  C   C149      1.0  0.42373  0.24323  0.31610  1.0000
  C   C150      1.0  0.44327  0.25845  0.31577  1.0000
  N   N34       1.0  0.45939  0.25696  0.31524  1.0000
  C   C151      1.0  0.47564  0.27447  0.31582  1.0000
  C   C152      1.0  0.46957  0.28810  0.31664  1.0000
  C   C153      1.0  0.44962  0.27823  0.31666  1.0000
  C   C154      1.0  0.49508  0.27853  0.31599  1.0000
  C   C155      1.0  0.50087  0.26434  0.31531  1.0000
  N   N35       1.0  0.48991  0.24480  0.31420  1.0000
  C   C156      1.0  0.50068  0.23601  0.31555  1.0000
  C   C157      1.0  0.51990  0.25101  0.31646  1.0000
  C   C158      1.0  0.52002  0.26834  0.31639  1.0000
  C   C159      1.0  0.49466  0.21597  0.31646  1.0000
  C   C160      1.0  0.47514  0.20075  0.31565  1.0000
  N   N36       1.0  0.45902  0.20224  0.31456  1.0000
  C   C161      1.0  0.44278  0.18473  0.31560  1.0000
  C   C162      1.0  0.44890  0.17112  0.31687  1.0000
  C   C163      1.0  0.46885  0.18100  0.31705  1.0000
  C   C164      1.0  0.42331  0.18065  0.31645  1.0000
  C   C165      1.0  0.40864  0.16084  0.32171  1.0000
  C   C166      1.0  0.38118  0.12068  0.33296  1.0000
  C   C167      1.0  0.38700  0.12998  0.24926  1.0000
  C   C168      1.0  0.40053  0.14987  0.24349  1.0000
  C   C169      1.0  0.50927  0.21078  0.32223  1.0000
  C   C170      1.0  0.53996  0.20256  0.33466  1.0000
  C   C171      1.0  0.53265  0.20379  0.25068  1.0000
  C   C172      1.0  0.51740  0.20778  0.24432  1.0000
  C   C173      1.0  0.50988  0.29831  0.31825  1.0000
  C   C174      1.0  0.51838  0.30836  0.23827  1.0000
  C   C175      1.0  0.53369  0.32760  0.24082  1.0000
  C   C176      1.0  0.54078  0.33721  0.32332  1.0000
  C   C177      1.0  0.40920  0.24859  0.31806  1.0000
  C   C178      1.0  0.40259  0.25263  0.23799  1.0000
  C   C179      1.0  0.38193  0.26161  0.32260  1.0000
  C   C180      1.0  0.38912  0.25909  0.24026  1.0000
  H   H73       1.0  0.38506  0.26244  0.18133  1.0000
  H   H74       1.0  0.40785  0.25130  0.17766  1.0000
  H   H75       1.0  0.38632  0.20940  0.31857  1.0000
  H   H76       1.0  0.38611  0.17755  0.31894  1.0000
  H   H77       1.0  0.44231  0.22124  0.31323  1.0000
  H   H78       1.0  0.47604  0.23793  0.31373  1.0000
  H   H79       1.0  0.44130  0.28465  0.31755  1.0000
  H   H80       1.0  0.47805  0.30282  0.31739  1.0000
  H   H81       1.0  0.51374  0.30162  0.17783  1.0000
  H   H82       1.0  0.53989  0.33431  0.18194  1.0000
  H   H83       1.0  0.53228  0.28160  0.31763  1.0000
  H   H84       1.0  0.53206  0.24982  0.31771  1.0000
  H   H85       1.0  0.44044  0.15641  0.31826  1.0000
  H   H86       1.0  0.47719  0.17462  0.31853  1.0000
  H   H87       1.0  0.51253  0.20884  0.18257  1.0000
  H   H88       1.0  0.53852  0.20197  0.19324  1.0000
  H   H89       1.0  0.40473  0.15619  0.18192  1.0000
  H   H90       1.0  0.38159  0.12225  0.19158  1.0000
  N   N37       1.0  0.55506  0.19978  0.33549  1.0000
  N   N38       1.0  0.55580  0.35501  0.33117  1.0000
  N   N39       1.0  0.37005  0.26870  0.33027  1.0000
  N   N40       1.0  0.36922  0.10164  0.33325  1.0000
  C   C181      1.0  0.84665  0.19060  0.31595  1.0000
  C   C182      1.0  0.86399  0.20783  0.31607  1.0000
  C   C183      1.0  0.86001  0.22298  0.31413  1.0000
  N   N41       1.0  0.84046  0.21439  0.31257  1.0000
  C   C184      1.0  0.83165  0.19482  0.31418  1.0000
  C   C185      1.0  0.81160  0.18083  0.31451  1.0000
  C   C186      1.0  0.79638  0.18515  0.31401  1.0000
  N   N42       1.0  0.79787  0.20276  0.31341  1.0000
  C   C187      1.0  0.78036  0.20150  0.31391  1.0000
  C   C188      1.0  0.76673  0.18180  0.31475  1.0000
  C   C189      1.0  0.77660  0.17172  0.31490  1.0000
  C   C190      1.0  0.77630  0.21688  0.31410  1.0000
  C   C191      1.0  0.79049  0.23687  0.31331  1.0000
  N   N43       1.0  0.81004  0.24544  0.31182  1.0000
  C   C192      1.0  0.81883  0.26500  0.31319  1.0000
  C   C193      1.0  0.80383  0.26923  0.31460  1.0000
  C   C194      1.0  0.78650  0.25202  0.31470  1.0000
  C   C195      1.0  0.83887  0.27902  0.31375  1.0000
  C   C196      1.0  0.85409  0.27472  0.31300  1.0000
  N   N44       1.0  0.85259  0.25711  0.31225  1.0000
  C   C197      1.0  0.87010  0.25836  0.31334  1.0000
  C   C198      1.0  0.88371  0.27809  0.31430  1.0000
  C   C199      1.0  0.87384  0.28817  0.31418  1.0000
  C   C200      1.0  0.87418  0.24298  0.31442  1.0000
  C   C201      1.0  0.89398  0.24811  0.32002  1.0000
  C   C202      1.0  0.93413  0.26083  0.33194  1.0000
  C   C203      1.0  0.92492  0.25732  0.24810  1.0000
  C   C204      1.0  0.90504  0.25095  0.24200  1.0000
  C   C205      1.0  0.84406  0.29883  0.31954  1.0000
  C   C206      1.0  0.85228  0.33773  0.33209  1.0000
  C   C207      1.0  0.85100  0.32917  0.24807  1.0000
  C   C208      1.0  0.84702  0.30993  0.24165  1.0000
  C   C209      1.0  0.75653  0.21191  0.31671  1.0000
  C   C210      1.0  0.74646  0.21035  0.23692  1.0000
  C   C211      1.0  0.72721  0.20641  0.23983  1.0000
  C   C212      1.0  0.71761  0.20386  0.32251  1.0000
  C   C213      1.0  0.80623  0.16094  0.31679  1.0000
  C   C214      1.0  0.80227  0.15024  0.23686  1.0000
  C   C215      1.0  0.79321  0.12065  0.32195  1.0000
  C   C216      1.0  0.79579  0.13031  0.23946  1.0000
  H   H91       1.0  0.79252  0.12286  0.18061  1.0000
  H   H92       1.0  0.80365  0.15680  0.17642  1.0000
  H   H93       1.0  0.84542  0.17724  0.31757  1.0000
  H   H94       1.0  0.87727  0.20888  0.31773  1.0000
  H   H95       1.0  0.83359  0.22140  0.31101  1.0000
  H   H96       1.0  0.81690  0.23844  0.31072  1.0000
  H   H97       1.0  0.77018  0.15699  0.31580  1.0000
  H   H98       1.0  0.75201  0.17557  0.31550  1.0000
  H   H99       1.0  0.75318  0.21246  0.17637  1.0000
  H   H100      1.0  0.72048  0.20590  0.18110  1.0000
  H   H101      1.0  0.77324  0.25101  0.31634  1.0000
  H   H102      1.0  0.80502  0.28257  0.31598  1.0000
  H   H103      1.0  0.89842  0.28435  0.31546  1.0000
  H   H104      1.0  0.88022  0.30290  0.31534  1.0000
  H   H105      1.0  0.84591  0.30398  0.17989  1.0000
  H   H106      1.0  0.85278  0.33684  0.19066  1.0000
  H   H107      1.0  0.89879  0.24880  0.18032  1.0000
  H   H108      1.0  0.93271  0.25960  0.19056  1.0000
  N   N45       1.0  0.85505  0.35560  0.33302  1.0000
  N   N46       1.0  0.69982  0.20109  0.33071  1.0000
  N   N47       1.0  0.78613  0.10169  0.32988  1.0000
  N   N48       1.0  0.95317  0.26791  0.33253  1.0000
  C   C217      1.0  0.20912  0.62474  0.28114  1.0000
  C   C218      1.0  0.20984  0.64264  0.29260  1.0000
  H   H109      1.0  0.20974  0.65014  0.23736  1.0000
  C   C219      1.0  0.21197  0.56231  0.29698  1.0000
  C   C220      1.0  0.20321  0.56947  0.23791  1.0000
  C   C221      1.0  0.20223  0.58625  0.25801  1.0000
  H   H110      1.0  0.19775  0.56258  0.17835  1.0000
  C   C222      1.0  0.19456  0.59443  0.19085  1.0000
  C   C223      1.0  0.20728  0.61675  0.18932  1.0000
  H   H111      1.0  0.17975  0.59036  0.20937  1.0000
  H   H112      1.0  0.19422  0.58887  0.12375  1.0000
  H   H113      1.0  0.20078  0.62250  0.14323  1.0000
  H   H114      1.0  0.22171  0.62088  0.16433  1.0000
  C   C224      1.0  0.21340  0.54620  0.27313  1.0000
  H   H115      1.0  0.20976  0.54101  0.21150  1.0000
  C   C225      1.0  0.43009  0.58473  0.28233  1.0000
  C   C226      1.0  0.41218  0.56755  0.29379  1.0000
  H   H116      1.0  0.40471  0.55995  0.23854  1.0000
  C   C227      1.0  0.49252  0.65000  0.29823  1.0000
  C   C228      1.0  0.48539  0.63409  0.23915  1.0000
  C   C229      1.0  0.46859  0.61633  0.25921  1.0000
  H   H117      1.0  0.49230  0.63551  0.17958  1.0000
  C   C230      1.0  0.46044  0.60048  0.19205  1.0000
  C   C231      1.0  0.43812  0.59088  0.19051  1.0000
  H   H118      1.0  0.46449  0.58974  0.21057  1.0000
  H   H119      1.0  0.46604  0.60571  0.12495  1.0000
  H   H120      1.0  0.43239  0.57863  0.14440  1.0000
  H   H121      1.0  0.43401  0.60119  0.16555  1.0000
  C   C232      1.0  0.50865  0.66754  0.27436  1.0000
  H   H122      1.0  0.51385  0.66910  0.21269  1.0000
  C   C233      1.0  0.47014  0.84572  0.28313  1.0000
  C   C234      1.0  0.48730  0.84497  0.29475  1.0000
  H   H123      1.0  0.49495  0.84511  0.23958  1.0000
  C   C235      1.0  0.40489  0.84296  0.29836  1.0000
  C   C236      1.0  0.42086  0.85173  0.23945  1.0000
  C   C237      1.0  0.43859  0.85266  0.25968  1.0000
  H   H124      1.0  0.41951  0.85725  0.17988  1.0000
  C   C238      1.0  0.45451  0.86037  0.19269  1.0000
  C   C239      1.0  0.46409  0.84763  0.19125  1.0000
  H   H125      1.0  0.46524  0.87515  0.21134  1.0000
  H   H126      1.0  0.44935  0.86076  0.12555  1.0000
  H   H127      1.0  0.47638  0.85415  0.14526  1.0000
  H   H128      1.0  0.45379  0.83322  0.16618  1.0000
  C   C240      1.0  0.38739  0.84159  0.27433  1.0000
  H   H129      1.0  0.38594  0.84538  0.21283  1.0000
  C   C241      1.0  0.86377  0.41204  0.28304  1.0000
  C   C242      1.0  0.86304  0.39414  0.29451  1.0000
  H   H130      1.0  0.86317  0.38665  0.23926  1.0000
  C   C243      1.0  0.86093  0.47448  0.29896  1.0000
  C   C244      1.0  0.86970  0.46733  0.23984  1.0000
  C   C245      1.0  0.87066  0.45053  0.25988  1.0000
  H   H131      1.0  0.87522  0.47424  0.18028  1.0000
  C   C246      1.0  0.87838  0.44238  0.19273  1.0000
  C   C247      1.0  0.86566  0.42005  0.19121  1.0000
  H   H132      1.0  0.89317  0.44644  0.21123  1.0000
  H   H133      1.0  0.87875  0.44796  0.12563  1.0000
  H   H134      1.0  0.87219  0.41432  0.14511  1.0000
  H   H135      1.0  0.85125  0.41593  0.16625  1.0000
  C   C248      1.0  0.85953  0.49061  0.27513  1.0000
  H   H136      1.0  0.86322  0.49583  0.21351  1.0000
  C   C249      1.0  0.64280  0.45208  0.28437  1.0000
  C   C250      1.0  0.66070  0.46924  0.29584  1.0000
  H   H137      1.0  0.66822  0.47686  0.24059  1.0000
  C   C251      1.0  0.58037  0.38679  0.30021  1.0000
  C   C252      1.0  0.58754  0.40272  0.24113  1.0000
  C   C253      1.0  0.60432  0.42048  0.26123  1.0000
  H   H138      1.0  0.58067  0.40132  0.18156  1.0000
  C   C254      1.0  0.61251  0.43635  0.19406  1.0000
  C   C255      1.0  0.63484  0.44596  0.19255  1.0000
  H   H139      1.0  0.60844  0.44709  0.21256  1.0000
  H   H140      1.0  0.60696  0.43114  0.12696  1.0000
  H   H141      1.0  0.64059  0.45822  0.14645  1.0000
  H   H142      1.0  0.63897  0.43566  0.16757  1.0000
  C   C256      1.0  0.56426  0.36926  0.27637  1.0000
  H   H143      1.0  0.55909  0.36772  0.21471  1.0000
  C   C257      1.0  0.60278  0.19107  0.28513  1.0000
  C   C258      1.0  0.58562  0.19182  0.29677  1.0000
  H   H144      1.0  0.57800  0.19171  0.24160  1.0000
  C   C259      1.0  0.66802  0.19383  0.30029  1.0000
  C   C260      1.0  0.65208  0.18507  0.24140  1.0000
  C   C261      1.0  0.63434  0.18412  0.26167  1.0000
  H   H145      1.0  0.65347  0.17957  0.18181  1.0000
  C   C262      1.0  0.61846  0.17644  0.19469  1.0000
  C   C263      1.0  0.60889  0.18919  0.19325  1.0000
  H   H146      1.0  0.60772  0.16165  0.21334  1.0000
  H   H147      1.0  0.62366  0.17606  0.12754  1.0000
  H   H148      1.0  0.59662  0.18268  0.14728  1.0000
  H   H149      1.0  0.61920  0.20360  0.16817  1.0000
  C   C264      1.0  0.68554  0.19523  0.27619  1.0000
  H   H150      1.0  0.68705  0.19152  0.21460  1.0000
  C   C265      1.0  0.01338  0.29042  0.28240  1.0000
  C   C266      1.0  0.99313  0.28098  0.29387  1.0000
  H   H151      1.0  0.98442  0.27658  0.23863  1.0000
  C   C267      1.0  0.08717  0.32957  0.29835  1.0000
  C   C268      1.0  0.07382  0.31540  0.23911  1.0000
  C   C269      1.0  0.05386  0.30463  0.25913  1.0000
  H   H152      1.0  0.07862  0.31307  0.17944  1.0000
  C   C270      1.0  0.03998  0.29110  0.19188  1.0000
  C   C271      1.0  0.02157  0.29293  0.19056  1.0000
  H   H153      1.0  0.03610  0.27633  0.21017  1.0000
  H   H154      1.0  0.04623  0.29394  0.12477  1.0000
  H   H155      1.0  0.01118  0.28213  0.14440  1.0000
  H   H156      1.0  0.02516  0.30722  0.16574  1.0000
  C   C272      1.0  0.10661  0.34049  0.27447  1.0000
  H   H157      1.0  0.11049  0.33934  0.21269  1.0000
  C   C273      1.0  0.76443  0.72330  0.28364  1.0000
  C   C274      1.0  0.77387  0.71249  0.29513  1.0000
  H   H158      1.0  0.77830  0.70819  0.23989  1.0000
  C   C275      1.0  0.72526  0.75793  0.29958  1.0000
  C   C276      1.0  0.73946  0.75876  0.24032  1.0000
  C   C277      1.0  0.75022  0.74957  0.26036  1.0000
  H   H159      1.0  0.74182  0.76588  0.18068  1.0000
  C   C278      1.0  0.76379  0.74923  0.19312  1.0000
  C   C279      1.0  0.76196  0.72898  0.19180  1.0000
  H   H160      1.0  0.77855  0.76011  0.21142  1.0000
  H   H161      1.0  0.76098  0.75263  0.12601  1.0000
  H   H162      1.0  0.77279  0.72940  0.14566  1.0000
  H   H163      1.0  0.74769  0.71828  0.16698  1.0000
  C   C280      1.0  0.71434  0.76644  0.27570  1.0000
  H   H164      1.0  0.71551  0.77146  0.21389  1.0000
  C   C281      1.0  0.33155  0.04148  0.28224  1.0000
  C   C282      1.0  0.34235  0.06172  0.29396  1.0000
  H   H165      1.0  0.34671  0.07049  0.23882  1.0000
  C   C283      1.0  0.29697  0.96769  0.29728  1.0000
  C   C284      1.0  0.29618  0.98108  0.23816  1.0000
  C   C285      1.0  0.30532  0.00102  0.25846  1.0000
  H   H166      1.0  0.28912  0.97634  0.17841  1.0000
  C   C286      1.0  0.30572  0.01496  0.19132  1.0000
  C   C287      1.0  0.32596  0.03339  0.19029  1.0000
  H   H167      1.0  0.29482  0.01882  0.20958  1.0000
  H   H168      1.0  0.30239  0.00878  0.12414  1.0000
  H   H169      1.0  0.32559  0.04382  0.14425  1.0000
  H   H170      1.0  0.33669  0.02983  0.16548  1.0000
  C   C288      1.0  0.28850  0.94827  0.27319  1.0000
  H   H171      1.0  0.28360  0.94446  0.21124  1.0000
  C   C289      1.0  0.05951  0.74636  0.28093  1.0000
  C   C290      1.0  0.07977  0.75582  0.29220  1.0000
  H   H172      1.0  0.08848  0.76023  0.23687  1.0000
  C   C291      1.0  0.98573  0.70714  0.29764  1.0000
  C   C292      1.0  0.99907  0.72132  0.23823  1.0000
  C   C293      1.0  0.01903  0.73212  0.25805  1.0000
  H   H173      1.0  0.99429  0.72362  0.17857  1.0000
  C   C294      1.0  0.03291  0.74565  0.19062  1.0000
  C   C295      1.0  0.05134  0.74384  0.18917  1.0000
  H   H174      1.0  0.03678  0.76041  0.20879  1.0000
  H   H175      1.0  0.02668  0.74279  0.12357  1.0000
  H   H176      1.0  0.06173  0.75464  0.14288  1.0000
  H   H177      1.0  0.04776  0.72955  0.16446  1.0000
  C   C296      1.0  0.96630  0.69617  0.27392  1.0000
  H   H178      1.0  0.96245  0.69722  0.21198  1.0000
  C   C297      1.0  0.30851  0.31350  0.28216  1.0000
  C   C298      1.0  0.29904  0.32429  0.29347  1.0000
  H   H179      1.0  0.29466  0.32861  0.23815  1.0000
  C   C299      1.0  0.34771  0.27892  0.29881  1.0000
  C   C300      1.0  0.33357  0.27810  0.23939  1.0000
  C   C301      1.0  0.32277  0.28727  0.25921  1.0000
  H   H180      1.0  0.33128  0.27100  0.17974  1.0000
  C   C302      1.0  0.30928  0.28762  0.19179  1.0000
  C   C303      1.0  0.31109  0.30786  0.19038  1.0000
  H   H181      1.0  0.29451  0.27672  0.20995  1.0000
  H   H182      1.0  0.31218  0.28426  0.12473  1.0000
  H   H183      1.0  0.30030  0.30745  0.14410  1.0000
  H   H184      1.0  0.32539  0.31858  0.16568  1.0000
  C   C304      1.0  0.35866  0.27042  0.27515  1.0000
  H   H185      1.0  0.35760  0.26546  0.21329  1.0000
  C   C305      1.0  0.74136  0.99533  0.28294  1.0000
  C   C306      1.0  0.73055  0.97507  0.29441  1.0000
  H   H186      1.0  0.72626  0.96636  0.23917  1.0000
  C   C307      1.0  0.77597  0.06911  0.29889  1.0000
  C   C308      1.0  0.77681  0.05576  0.23963  1.0000
  C   C309      1.0  0.76763  0.03580  0.25966  1.0000
  H   H187      1.0  0.78395  0.06055  0.17999  1.0000
  C   C310      1.0  0.76730  0.02192  0.19242  1.0000
  C   C311      1.0  0.74706  0.00350  0.19109  1.0000
  H   H188      1.0  0.77818  0.01805  0.21072  1.0000
  H   H189      1.0  0.77071  0.02816  0.12531  1.0000
  H   H190      1.0  0.74749  0.99310  0.14495  1.0000
  H   H191      1.0  0.73636  0.00708  0.16626  1.0000
  C   C312      1.0  0.78449  0.08856  0.27502  1.0000
  H   H192      1.0  0.78951  0.09242  0.21320  1.0000
  C   C313      1.0  0.26961  0.38488  0.40353  1.0000
  C   C314      1.0  0.27594  0.37134  0.40938  1.0000
  C   C315      1.0  0.32531  0.49851  0.40314  1.0000
  C   C316      1.0  0.34453  0.51371  0.40926  1.0000
  C   C317      1.0  0.22357  0.51422  0.39978  1.0000
  C   C318      1.0  0.22747  0.49888  0.39747  1.0000
  C   C319      1.0  0.16941  0.38410  0.39851  1.0000
  C   C320      1.0  0.14947  0.37066  0.40091  1.0000
  H   H193      1.0  0.14280  0.36603  0.46159  1.0000
  H   H194      1.0  0.17680  0.38900  0.45732  1.0000
  H   H195      1.0  0.22879  0.49312  0.45631  1.0000
  H   H196      1.0  0.22210  0.51926  0.46042  1.0000
  H   H197      1.0  0.31738  0.49310  0.46040  1.0000
  H   H198      1.0  0.35004  0.51908  0.47099  1.0000
  H   H199      1.0  0.27893  0.36802  0.47101  1.0000
  H   H200      1.0  0.26802  0.39091  0.46091  1.0000
  C   C321      1.0  0.66987  0.88509  0.40472  1.0000
  C   C322      1.0  0.68339  0.90495  0.41055  1.0000
  C   C323      1.0  0.55631  0.82719  0.40429  1.0000
  C   C324      1.0  0.54109  0.83120  0.41043  1.0000
  C   C325      1.0  0.54062  0.70967  0.40105  1.0000
  C   C326      1.0  0.55596  0.72890  0.39876  1.0000
  C   C327      1.0  0.67068  0.78564  0.39982  1.0000
  C   C328      1.0  0.68412  0.77915  0.40220  1.0000
  H   H201      1.0  0.68872  0.77710  0.46287  1.0000
  H   H202      1.0  0.66575  0.78813  0.45863  1.0000
  H   H203      1.0  0.56170  0.73597  0.45759  1.0000
  H   H204      1.0  0.53557  0.70314  0.46167  1.0000
  H   H205      1.0  0.56171  0.82470  0.46156  1.0000
  H   H206      1.0  0.53572  0.83137  0.47217  1.0000
  H   H207      1.0  0.68670  0.91128  0.47217  1.0000
  H   H208      1.0  0.66379  0.87747  0.46209  1.0000
  C   C329      1.0  0.16973  0.78515  0.40209  1.0000
  C   C330      1.0  0.14986  0.77883  0.40796  1.0000
  C   C331      1.0  0.22757  0.72945  0.40192  1.0000
  C   C332      1.0  0.22353  0.71022  0.40808  1.0000
  C   C333      1.0  0.34503  0.83120  0.40006  1.0000
  C   C334      1.0  0.32580  0.82730  0.39735  1.0000
  C   C335      1.0  0.26914  0.88537  0.39715  1.0000
  C   C336      1.0  0.27565  0.90531  0.39958  1.0000
  H   H209      1.0  0.27763  0.91194  0.46026  1.0000
  H   H210      1.0  0.26660  0.87794  0.45594  1.0000
  H   H211      1.0  0.31864  0.82592  0.45604  1.0000
  H   H212      1.0  0.35146  0.83263  0.46082  1.0000
  H   H213      1.0  0.23001  0.73734  0.45920  1.0000
  H   H214      1.0  0.22331  0.70467  0.46982  1.0000
  H   H215      1.0  0.14351  0.77580  0.46960  1.0000
  H   H216      1.0  0.17733  0.78671  0.45945  1.0000
  C   C337      1.0  0.80319  0.65186  0.40546  1.0000
  C   C338      1.0  0.79687  0.66540  0.41129  1.0000
  C   C339      1.0  0.74751  0.53826  0.40514  1.0000
  C   C340      1.0  0.72828  0.52305  0.41129  1.0000
  C   C341      1.0  0.84927  0.52256  0.40175  1.0000
  C   C342      1.0  0.84538  0.53789  0.39944  1.0000
  C   C343      1.0  0.90348  0.65274  0.39922  1.0000
  C   C344      1.0  0.92342  0.66618  0.40125  1.0000
  H   H217      1.0  0.93009  0.67086  0.46179  1.0000
  H   H218      1.0  0.89609  0.64790  0.45816  1.0000
  H   H219      1.0  0.84401  0.54363  0.45827  1.0000
  H   H220      1.0  0.85071  0.51749  0.46239  1.0000
  H   H221      1.0  0.75539  0.54368  0.46241  1.0000
  H   H222      1.0  0.72273  0.51769  0.47303  1.0000
  H   H223      1.0  0.79382  0.66871  0.47291  1.0000
  H   H224      1.0  0.80473  0.64580  0.46284  1.0000
  C   C345      1.0  0.40289  0.15161  0.40561  1.0000
  C   C346      1.0  0.38935  0.13174  0.41115  1.0000
  C   C347      1.0  0.51657  0.20962  0.40641  1.0000
  C   C348      1.0  0.53178  0.20561  0.41252  1.0000
  C   C349      1.0  0.53225  0.32706  0.40302  1.0000
  C   C350      1.0  0.51691  0.30783  0.40071  1.0000
  C   C351      1.0  0.40206  0.25107  0.40035  1.0000
  C   C352      1.0  0.38862  0.25757  0.40239  1.0000
  H   H225      1.0  0.38392  0.25957  0.46295  1.0000
  H   H226      1.0  0.40689  0.24854  0.45929  1.0000
  H   H227      1.0  0.51114  0.30074  0.45955  1.0000
  H   H228      1.0  0.53728  0.33356  0.46365  1.0000
  H   H229      1.0  0.51115  0.21211  0.46368  1.0000
  H   H230      1.0  0.53713  0.20544  0.47424  1.0000
  H   H231      1.0  0.38597  0.12536  0.47268  1.0000
  H   H232      1.0  0.40888  0.15918  0.46312  1.0000
  C   C353      1.0  0.90312  0.25163  0.40408  1.0000
  C   C354      1.0  0.92298  0.25797  0.40992  1.0000
  C   C355      1.0  0.84527  0.30730  0.40377  1.0000
  C   C356      1.0  0.84929  0.32653  0.40994  1.0000
  C   C357      1.0  0.72779  0.20550  0.40201  1.0000
  C   C358      1.0  0.74702  0.20940  0.39934  1.0000
  C   C359      1.0  0.80368  0.15137  0.39924  1.0000
  C   C360      1.0  0.79718  0.13143  0.40159  1.0000
  H   H233      1.0  0.79512  0.12476  0.46225  1.0000
  H   H234      1.0  0.80616  0.15876  0.45807  1.0000
  H   H235      1.0  0.75413  0.21074  0.45804  1.0000
  H   H236      1.0  0.72130  0.20403  0.46277  1.0000
  H   H237      1.0  0.84280  0.29940  0.46104  1.0000
  H   H238      1.0  0.84947  0.33206  0.47170  1.0000
  H   H239      1.0  0.92930  0.26098  0.47156  1.0000
  H   H240      1.0  0.89548  0.25007  0.46143  1.0000
  C   C361      1.0  0.21046  0.65024  0.37841  1.0000
  C   C362      1.0  0.20952  0.63896  0.45281  1.0000
  C   C363      1.0  0.20888  0.62100  0.44339  1.0000
  C   C364      1.0  0.20963  0.61407  0.35656  1.0000
  C   C365      1.0  0.20968  0.59625  0.34011  1.0000
  C   C366      1.0  0.21917  0.58945  0.39695  1.0000
  C   C367      1.0  0.22012  0.57277  0.37654  1.0000
  H   H241      1.0  0.22656  0.59715  0.45185  1.0000
  H   H242      1.0  0.22743  0.56873  0.41941  1.0000
  H   H243      1.0  0.20912  0.64374  0.51585  1.0000
  N   N49       1.0  0.20608  0.60955  0.52036  1.0000
  O   O1        1.0  0.21938  0.61815  0.57660  1.0000
  O   O2        1.0  0.19017  0.60461  0.55770  1.0000
  C   C368      1.0  0.21130  0.66790  0.39136  1.0000
  H   H244      1.0  0.20722  0.67050  0.45005  1.0000
  C   C369      1.0  0.40455  0.56057  0.37959  1.0000
  C   C370      1.0  0.41579  0.57091  0.45399  1.0000
  C   C371      1.0  0.43375  0.58823  0.44457  1.0000
  C   C372      1.0  0.44071  0.59592  0.35774  1.0000
  C   C373      1.0  0.45855  0.61379  0.34133  1.0000
  C   C374      1.0  0.46532  0.63008  0.39815  1.0000
  C   C375      1.0  0.48202  0.64770  0.37775  1.0000
  H   H245      1.0  0.45759  0.62978  0.45304  1.0000
  H   H246      1.0  0.48604  0.65906  0.42061  1.0000
  H   H247      1.0  0.41098  0.56573  0.51703  1.0000
  N   N50       1.0  0.44516  0.59689  0.52154  1.0000
  O   O3        1.0  0.43653  0.60159  0.57778  1.0000
  O   O4        1.0  0.45009  0.58593  0.55888  1.0000
  C   C376      1.0  0.38688  0.54376  0.39255  1.0000
  H   H248      1.0  0.38423  0.53709  0.45129  1.0000
  C   C377      1.0  0.49419  0.84429  0.38062  1.0000
  C   C378      1.0  0.48378  0.84518  0.45493  1.0000
  C   C379      1.0  0.46648  0.84584  0.44534  1.0000
  C   C380      1.0  0.45888  0.84514  0.35842  1.0000
  C   C381      1.0  0.44103  0.84513  0.34182  1.0000
  C   C382      1.0  0.42468  0.83559  0.39843  1.0000
  C   C383      1.0  0.40710  0.83471  0.37787  1.0000
  H   H249      1.0  0.42494  0.82820  0.45343  1.0000
  H   H250      1.0  0.39570  0.82741  0.42071  1.0000
  H   H251      1.0  0.48890  0.84553  0.51801  1.0000
  N   N51       1.0  0.45776  0.84859  0.52222  1.0000
  O   O5        1.0  0.45300  0.83525  0.57841  1.0000
  O   O6        1.0  0.46870  0.86447  0.55968  1.0000
  C   C384      1.0  0.51098  0.84340  0.39374  1.0000
  H   H252      1.0  0.51759  0.84739  0.45256  1.0000
  C   C385      1.0  0.86237  0.38652  0.38031  1.0000
  C   C386      1.0  0.86326  0.39778  0.45472  1.0000
  C   C387      1.0  0.86391  0.41574  0.44528  1.0000
  C   C388      1.0  0.86319  0.42268  0.35845  1.0000
  C   C389      1.0  0.86316  0.44051  0.34200  1.0000
  C   C390      1.0  0.85362  0.44728  0.39882  1.0000
  C   C391      1.0  0.85272  0.46399  0.37847  1.0000
  H   H253      1.0  0.84622  0.43959  0.45380  1.0000
  H   H254      1.0  0.84539  0.46803  0.42141  1.0000
  H   H255      1.0  0.86362  0.39298  0.51775  1.0000
  N   N52       1.0  0.86666  0.42716  0.52225  1.0000
  O   O7        1.0  0.85332  0.41855  0.57851  1.0000
  O   O8        1.0  0.88254  0.43210  0.55957  1.0000
  C   C392      1.0  0.86150  0.36885  0.39327  1.0000
  H   H256      1.0  0.86554  0.36622  0.45196  1.0000
  C   C393      1.0  0.66829  0.47619  0.38164  1.0000
  C   C394      1.0  0.65699  0.46583  0.45604  1.0000
  C   C395      1.0  0.63903  0.44852  0.44662  1.0000
  C   C396      1.0  0.63212  0.44087  0.35978  1.0000
  C   C397      1.0  0.61430  0.42300  0.34334  1.0000
  C   C398      1.0  0.60749  0.40670  0.40019  1.0000
  C   C399      1.0  0.59081  0.38908  0.37978  1.0000
  H   H257      1.0  0.61518  0.40699  0.45510  1.0000
  H   H258      1.0  0.58676  0.37771  0.42266  1.0000
  H   H259      1.0  0.66176  0.47099  0.51908  1.0000
  N   N53       1.0  0.62757  0.43985  0.52359  1.0000
  O   O9        1.0  0.63615  0.43513  0.57984  1.0000
  O   O10       1.0  0.62262  0.45081  0.56091  1.0000
  C   C400      1.0  0.68595  0.49300  0.39460  1.0000
  H   H260      1.0  0.68856  0.49965  0.45334  1.0000
  C   C401      1.0  0.57867  0.19249  0.38264  1.0000
  C   C402      1.0  0.58903  0.19157  0.45694  1.0000
  C   C403      1.0  0.60633  0.19090  0.44734  1.0000
  C   C404      1.0  0.61398  0.19162  0.36042  1.0000
  C   C405      1.0  0.63184  0.19162  0.34382  1.0000
  C   C406      1.0  0.64815  0.20113  0.40046  1.0000
  C   C407      1.0  0.66575  0.20203  0.37984  1.0000
  H   H261      1.0  0.64787  0.20855  0.45535  1.0000
  H   H262      1.0  0.67713  0.20936  0.42257  1.0000
  H   H263      1.0  0.58387  0.19120  0.52003  1.0000
  N   N54       1.0  0.61500  0.18812  0.52421  1.0000
  O   O11       1.0  0.61973  0.20145  0.58039  1.0000
  O   O12       1.0  0.60403  0.17223  0.56168  1.0000
  C   C408      1.0  0.56188  0.19337  0.39578  1.0000
  H   H264      1.0  0.55523  0.18937  0.45461  1.0000
  C   C409      1.0  0.98468  0.27729  0.37968  1.0000
  C   C410      1.0  0.99715  0.28266  0.45403  1.0000
  C   C411      1.0  0.01751  0.29224  0.44460  1.0000
  C   C412      1.0  0.02598  0.29714  0.35779  1.0000
  C   C413      1.0  0.04661  0.30745  0.34137  1.0000
  C   C414      1.0  0.05996  0.32228  0.39833  1.0000
  C   C415      1.0  0.07978  0.33294  0.37798  1.0000
  H   H265      1.0  0.05535  0.32634  0.45347  1.0000
  H   H266      1.0  0.08869  0.34366  0.42106  1.0000
  H   H267      1.0  0.99138  0.27944  0.51708  1.0000
  N   N55       1.0  0.02908  0.29556  0.52153  1.0000
  O   O13       1.0  0.02685  0.30595  0.57796  1.0000
  O   O14       1.0  0.02555  0.28001  0.55866  1.0000
  C   C416      1.0  0.96476  0.26814  0.39274  1.0000
  H   H268      1.0  0.95940  0.26202  0.45160  1.0000
  C   C417      1.0  0.77751  0.70774  0.38094  1.0000
  C   C418      1.0  0.77210  0.71483  0.45530  1.0000
  C   C419      1.0  0.76252  0.72562  0.44585  1.0000
  C   C420      1.0  0.75767  0.72919  0.35904  1.0000
  C   C421      1.0  0.74737  0.73951  0.34259  1.0000
  C   C422      1.0  0.73250  0.73802  0.39956  1.0000
  C   C423      1.0  0.72186  0.74719  0.37923  1.0000
  H   H269      1.0  0.72842  0.72935  0.45468  1.0000
  H   H270      1.0  0.71111  0.74537  0.42228  1.0000
  H   H271      1.0  0.77530  0.71230  0.51834  1.0000
  N   N56       1.0  0.75916  0.73387  0.52278  1.0000
  O   O15       1.0  0.74875  0.72125  0.57920  1.0000
  O   O16       1.0  0.77469  0.74589  0.55991  1.0000
  C   C424      1.0  0.78668  0.69700  0.39400  1.0000
  H   H272      1.0  0.79279  0.69777  0.45285  1.0000
  C   C425      1.0  0.34703  0.07008  0.37987  1.0000
  C   C426      1.0  0.33986  0.05754  0.45408  1.0000
  C   C427      1.0  0.32908  0.03718  0.44440  1.0000
  C   C428      1.0  0.32559  0.02880  0.35749  1.0000
  C   C429      1.0  0.31530  0.00819  0.34081  1.0000
  C   C430      1.0  0.31673  0.99479  0.39772  1.0000
  C   C431      1.0  0.30762  0.97499  0.37711  1.0000
  H   H273      1.0  0.32536  0.99935  0.45285  1.0000
  H   H274      1.0  0.30942  0.96605  0.42005  1.0000
  H   H275      1.0  0.34233  0.06324  0.51718  1.0000
  N   N57       1.0  0.32075  0.02553  0.52118  1.0000
  O   O17       1.0  0.33332  0.02770  0.57770  1.0000
  O   O18       1.0  0.30870  0.02903  0.55826  1.0000
  C   C432      1.0  0.35776  0.08998  0.39317  1.0000
  H   H276      1.0  0.35691  0.09528  0.45203  1.0000
  C   C433      1.0  0.08820  0.75953  0.37792  1.0000
  C   C434      1.0  0.07572  0.75417  0.45241  1.0000
  C   C435      1.0  0.05535  0.74457  0.44318  1.0000
  C   C436      1.0  0.04690  0.73965  0.35646  1.0000
  C   C437      1.0  0.02627  0.72932  0.34026  1.0000
  C   C438      1.0  0.01293  0.71450  0.39745  1.0000
  C   C439      1.0  0.99311  0.70381  0.37727  1.0000
  H   H277      1.0  0.01753  0.71043  0.45247  1.0000
  H   H278      1.0  0.98421  0.69306  0.42037  1.0000
  H   H279      1.0  0.08147  0.75741  0.51539  1.0000
  N   N58       1.0  0.04376  0.74125  0.52022  1.0000
  O   O19       1.0  0.04600  0.73087  0.57668  1.0000
  O   O20       1.0  0.04727  0.75679  0.55722  1.0000
  C   C440      1.0  0.10811  0.76871  0.39079  1.0000
  H   H280      1.0  0.11346  0.77487  0.44954  1.0000
  C   C441      1.0  0.29529  0.32901  0.37921  1.0000
  C   C442      1.0  0.30062  0.32189  0.45367  1.0000
  C   C443      1.0  0.31023  0.31113  0.44440  1.0000
  C   C444      1.0  0.31519  0.30760  0.35766  1.0000
  C   C445      1.0  0.32553  0.29731  0.34143  1.0000
  C   C446      1.0  0.34034  0.29879  0.39856  1.0000
  C   C447      1.0  0.35102  0.28965  0.37841  1.0000
  H   H281      1.0  0.34435  0.30743  0.45369  1.0000
  H   H282      1.0  0.36172  0.29145  0.42161  1.0000
  H   H283      1.0  0.29735  0.32440  0.51666  1.0000
  N   N59       1.0  0.31351  0.30286  0.52141  1.0000
  O   O21       1.0  0.32386  0.31546  0.57790  1.0000
  O   O22       1.0  0.29795  0.29081  0.55840  1.0000
  C   C448      1.0  0.28610  0.33974  0.39212  1.0000
  H   H284      1.0  0.27990  0.33891  0.45084  1.0000
  C   C449      1.0  0.72578  0.96664  0.38022  1.0000
  C   C450      1.0  0.73286  0.97912  0.45458  1.0000
  C   C451      1.0  0.74364  0.99949  0.44514  1.0000
  C   C452      1.0  0.74723  0.00794  0.35833  1.0000
  C   C453      1.0  0.75755  0.02857  0.34189  1.0000
  C   C454      1.0  0.75604  0.04192  0.39886  1.0000
  C   C455      1.0  0.76522  0.06174  0.37855  1.0000
  H   H285      1.0  0.74737  0.03732  0.45397  1.0000
  H   H286      1.0  0.76338  0.07065  0.42159  1.0000
  H   H287      1.0  0.73031  0.97337  0.51763  1.0000
  N   N60       1.0  0.75188  0.01107  0.52207  1.0000
  O   O23       1.0  0.73925  0.00885  0.57849  1.0000
  O   O24       1.0  0.76389  0.00755  0.55921  1.0000
  C   C456      1.0  0.71502  0.94673  0.39327  1.0000
  H   H288      1.0  0.71577  0.94138  0.45215  1.0000
