data_image0
_chemical_formula_structural       C3HNO2C3HNO2C3HNO2C3HNO2C3HNO2C3HNO2C3HNO2C3HNO2C3HNO2C3HNO2C3HNO2C3HNO2C3HNO2C3HNO2C3HNO2C3HNO2C3HNO2C3HNO2C3HNO2C3HNO2C3HNO2C3HNO2C3HNO2C3HNO2C3HNO2C3HNO2C3HNO2C3HNO2C3HNO2C3HNO2C3HNO2C3HNO2C3HNO2C3HNO2C3HNO2C3HNO2C6H3C6H3C6H3C6H3C6H3C6H3C6H3C6H3C6H3C6H3C6H3C6H3C6H3C6H3C6H3C6H3C6H3C6H3C6H3C6H3C6H3C6H3C6H3C6H3C3HNO2C3HNO2C3HNO2C3HNO2C3HNO2C3HNO2C3HNO2C3HNO2C3HNO2C3HNO2C3HNO2C3HNO2C3HNO2C3HNO2C3HNO2C3HNO2C3HNO2C3HNO2C3HNO2C3HNO2C3HNO2C3HNO2C3HNO2C3HNO2C3HNO2C3HNO2C3HNO2C3HNO2C3HNO2C3HNO2C3HNO2C3HNO2C3HNO2C3HNO2C3HNO2C3HNO2
_chemical_formula_sum              "C360 H144 N72 O144"
_cell_length_a       54.4801
_cell_length_b       54.4802
_cell_length_c       14.8282
_cell_angle_alpha    90
_cell_angle_beta     90
_cell_angle_gamma    120

_space_group_name_H-M_alt    "P 1"
_space_group_IT_number       1

loop_
  _space_group_symop_operation_xyz
  'x, y, z'

loop_
  _atom_site_type_symbol
  _atom_site_label
  _atom_site_symmetry_multiplicity
  _atom_site_fract_x
  _atom_site_fract_y
  _atom_site_fract_z
  _atom_site_occupancy
  C   C1        1.0  0.11744  0.39986  0.34568  1.0000
  C   C2        1.0  0.12451  0.41500  0.26310  1.0000
  C   C3        1.0  0.13829  0.44500  0.26462  1.0000
  H   H1        1.0  0.14480  0.45578  0.20475  1.0000
  N   N1        1.0  0.11893  0.39990  0.18084  1.0000
  O   O1        1.0  0.10283  0.40425  0.13111  1.0000
  O   O2        1.0  0.14140  0.40664  0.13836  1.0000
  C   C4        1.0  0.61460  0.72048  0.34564  1.0000
  C   C5        1.0  0.59949  0.71239  0.26301  1.0000
  C   C6        1.0  0.56949  0.69618  0.26447  1.0000
  H   H2        1.0  0.55870  0.69188  0.20461  1.0000
  N   N2        1.0  0.61460  0.72190  0.18079  1.0000
  O   O3        1.0  0.61026  0.70142  0.13113  1.0000
  O   O4        1.0  0.60787  0.73761  0.13820  1.0000
  C   C7        1.0  0.29400  0.89702  0.34576  1.0000
  C   C8        1.0  0.30208  0.88997  0.26316  1.0000
  C   C9        1.0  0.31832  0.87621  0.26469  1.0000
  H   H3        1.0  0.32258  0.86968  0.20483  1.0000
  N   N3        1.0  0.29256  0.89554  0.18090  1.0000
  O   O5        1.0  0.31302  0.91166  0.13120  1.0000
  O   O6        1.0  0.27686  0.87308  0.13839  1.0000
  C   C10       1.0  0.89993  0.61172  0.34562  1.0000
  C   C11       1.0  0.89291  0.59660  0.26301  1.0000
  C   C12       1.0  0.87916  0.56660  0.26445  1.0000
  H   H4        1.0  0.87260  0.55581  0.20460  1.0000
  N   N4        1.0  0.89849  0.61171  0.18077  1.0000
  O   O7        1.0  0.91462  0.60738  0.13108  1.0000
  O   O8        1.0  0.87603  0.60496  0.13822  1.0000
  C   C13       1.0  0.40275  0.29108  0.34565  1.0000
  C   C14       1.0  0.41787  0.29916  0.26302  1.0000
  C   C15       1.0  0.44787  0.31538  0.26446  1.0000
  H   H5        1.0  0.45865  0.31967  0.20459  1.0000
  N   N5        1.0  0.40275  0.28965  0.18079  1.0000
  O   O9        1.0  0.40709  0.31012  0.13112  1.0000
  O   O10       1.0  0.40948  0.27393  0.13823  1.0000
  C   C16       1.0  0.72341  0.11457  0.34561  1.0000
  C   C17       1.0  0.71532  0.12160  0.26300  1.0000
  C   C18       1.0  0.69912  0.13540  0.26448  1.0000
  H   H6        1.0  0.69483  0.14189  0.20461  1.0000
  N   N6        1.0  0.72483  0.11600  0.18077  1.0000
  O   O11       1.0  0.70436  0.09988  0.13109  1.0000
  O   O12       1.0  0.74055  0.13845  0.13821  1.0000
  C   C19       1.0  0.46323  0.14260  0.34385  1.0000
  C   C20       1.0  0.44796  0.13548  0.26145  1.0000
  C   C21       1.0  0.41794  0.12124  0.26316  1.0000
  H   H7        1.0  0.40717  0.11723  0.20335  1.0000
  N   N7        1.0  0.46313  0.14412  0.17907  1.0000
  O   O13       1.0  0.45725  0.12325  0.12922  1.0000
  O   O14       1.0  0.45802  0.16106  0.13674  1.0000
  C   C22       1.0  0.69096  0.55126  0.34395  1.0000
  C   C23       1.0  0.69910  0.56652  0.26152  1.0000
  C   C24       1.0  0.71485  0.59654  0.26320  1.0000
  H   H8        1.0  0.72164  0.60730  0.20337  1.0000
  N   N8        1.0  0.69261  0.55135  0.17914  1.0000
  O   O15       1.0  0.67761  0.55720  0.12923  1.0000
  O   O16       1.0  0.71467  0.55648  0.13688  1.0000
  C   C25       1.0  0.87189  0.32349  0.34408  1.0000
  C   C26       1.0  0.87899  0.31536  0.26160  1.0000
  C   C27       1.0  0.89326  0.29960  0.26326  1.0000
  H   H9        1.0  0.89723  0.29282  0.20343  1.0000
  N   N9        1.0  0.87033  0.32187  0.17923  1.0000
  O   O17       1.0  0.89119  0.33688  0.12936  1.0000
  O   O18       1.0  0.85340  0.29982  0.13692  1.0000
  C   C28       1.0  0.55420  0.86899  0.34400  1.0000
  C   C29       1.0  0.56942  0.87608  0.26151  1.0000
  C   C30       1.0  0.59944  0.89032  0.26319  1.0000
  H   H10       1.0  0.61020  0.89432  0.20336  1.0000
  N   N10       1.0  0.55424  0.86743  0.17915  1.0000
  O   O19       1.0  0.56011  0.88830  0.12930  1.0000
  O   O20       1.0  0.55935  0.85049  0.13682  1.0000
  C   C31       1.0  0.32644  0.46032  0.34378  1.0000
  C   C32       1.0  0.31829  0.44506  0.26138  1.0000
  C   C33       1.0  0.30250  0.41503  0.26310  1.0000
  H   H11       1.0  0.29574  0.40426  0.20330  1.0000
  N   N11       1.0  0.32481  0.46023  0.17900  1.0000
  O   O21       1.0  0.33981  0.45434  0.12915  1.0000
  O   O22       1.0  0.30277  0.45512  0.13667  1.0000
  C   C34       1.0  0.14549  0.68808  0.34403  1.0000
  C   C35       1.0  0.13837  0.69621  0.26155  1.0000
  C   C36       1.0  0.12411  0.71197  0.26322  1.0000
  H   H12       1.0  0.12015  0.71876  0.20339  1.0000
  N   N12       1.0  0.14706  0.68972  0.17919  1.0000
  O   O23       1.0  0.12620  0.67471  0.12928  1.0000
  O   O24       1.0  0.16399  0.71178  0.13691  1.0000
  C   C37       1.0  0.24535  0.53109  0.34270  1.0000
  C   C38       1.0  0.25889  0.53129  0.26090  1.0000
  C   C39       1.0  0.28498  0.53159  0.26442  1.0000
  H   H13       1.0  0.29404  0.53033  0.20529  1.0000
  N   N13       1.0  0.24545  0.52982  0.17765  1.0000
  O   O25       1.0  0.26067  0.55093  0.12894  1.0000
  O   O26       1.0  0.23976  0.50770  0.13479  1.0000
  C   C40       1.0  0.48339  0.71716  0.34275  1.0000
  C   C41       1.0  0.48319  0.73049  0.26092  1.0000
  C   C42       1.0  0.48291  0.75629  0.26444  1.0000
  H   H14       1.0  0.48413  0.76659  0.20531  1.0000
  N   N14       1.0  0.48465  0.71851  0.17768  1.0000
  O   O27       1.0  0.46354  0.71264  0.12897  1.0000
  O   O28       1.0  0.50678  0.73494  0.13481  1.0000
  C   C43       1.0  0.29736  0.76914  0.34250  1.0000
  C   C44       1.0  0.28402  0.75562  0.26069  1.0000
  C   C45       1.0  0.25821  0.72955  0.26420  1.0000
  H   H15       1.0  0.24791  0.72047  0.20507  1.0000
  N   N15       1.0  0.29601  0.76907  0.17747  1.0000
  O   O29       1.0  0.30188  0.75383  0.12876  1.0000
  O   O30       1.0  0.27958  0.77477  0.13460  1.0000
  C   C46       1.0  0.77203  0.48048  0.34268  1.0000
  C   C47       1.0  0.75850  0.48028  0.26085  1.0000
  C   C48       1.0  0.73241  0.47997  0.26434  1.0000
  H   H16       1.0  0.72336  0.48123  0.20519  1.0000
  N   N16       1.0  0.77196  0.48176  0.17764  1.0000
  O   O31       1.0  0.75675  0.46066  0.12888  1.0000
  O   O32       1.0  0.77765  0.50389  0.13479  1.0000
  C   C49       1.0  0.53399  0.29443  0.34273  1.0000
  C   C50       1.0  0.53420  0.28111  0.26090  1.0000
  C   C51       1.0  0.53451  0.25532  0.26440  1.0000
  H   H17       1.0  0.53326  0.24501  0.20527  1.0000
  N   N17       1.0  0.53274  0.29309  0.17766  1.0000
  O   O33       1.0  0.55385  0.29898  0.12896  1.0000
  O   O34       1.0  0.51062  0.27665  0.13478  1.0000
  C   C52       1.0  0.72006  0.24248  0.34269  1.0000
  C   C53       1.0  0.73339  0.25600  0.26086  1.0000
  C   C54       1.0  0.75919  0.28207  0.26440  1.0000
  H   H18       1.0  0.76950  0.29116  0.20528  1.0000
  N   N18       1.0  0.72141  0.24256  0.17763  1.0000
  O   O35       1.0  0.71554  0.25779  0.12892  1.0000
  O   O36       1.0  0.73784  0.23686  0.13476  1.0000
  C   C55       1.0  0.17589  0.61559  0.34387  1.0000
  C   C56       1.0  0.17605  0.60240  0.26157  1.0000
  C   C57       1.0  0.17579  0.57627  0.26364  1.0000
  H   H19       1.0  0.17713  0.56752  0.20394  1.0000
  N   N19       1.0  0.17770  0.61625  0.17903  1.0000
  O   O37       1.0  0.15673  0.60123  0.12954  1.0000
  O   O38       1.0  0.19995  0.62219  0.13647  1.0000
  C   C58       1.0  0.39893  0.56322  0.34386  1.0000
  C   C59       1.0  0.41211  0.57652  0.26152  1.0000
  C   C60       1.0  0.43824  0.60239  0.26354  1.0000
  H   H20       1.0  0.44699  0.61248  0.20386  1.0000
  N   N20       1.0  0.39825  0.56432  0.17900  1.0000
  O   O39       1.0  0.41325  0.55834  0.12955  1.0000
  O   O40       1.0  0.39231  0.58062  0.13639  1.0000
  C   C61       1.0  0.45131  0.83865  0.34377  1.0000
  C   C62       1.0  0.43797  0.83849  0.26147  1.0000
  C   C63       1.0  0.41208  0.83871  0.26353  1.0000
  H   H21       1.0  0.40200  0.83741  0.20384  1.0000
  N   N21       1.0  0.45017  0.83684  0.17894  1.0000
  O   O41       1.0  0.45612  0.85781  0.12946  1.0000
  O   O42       1.0  0.43388  0.81459  0.13638  1.0000
  C   C64       1.0  0.84155  0.39604  0.34377  1.0000
  C   C65       1.0  0.84140  0.40922  0.26148  1.0000
  C   C66       1.0  0.84162  0.43534  0.26357  1.0000
  H   H22       1.0  0.84032  0.44411  0.20389  1.0000
  N   N22       1.0  0.83975  0.39538  0.17895  1.0000
  O   O43       1.0  0.86072  0.41040  0.12947  1.0000
  O   O44       1.0  0.81750  0.38942  0.13638  1.0000
  C   C67       1.0  0.61845  0.44836  0.34393  1.0000
  C   C68       1.0  0.60527  0.43504  0.26161  1.0000
  C   C69       1.0  0.57913  0.40917  0.26367  1.0000
  H   H23       1.0  0.57038  0.39909  0.20396  1.0000
  N   N23       1.0  0.61912  0.44723  0.17907  1.0000
  O   O45       1.0  0.60411  0.45321  0.12961  1.0000
  O   O46       1.0  0.62505  0.43093  0.13648  1.0000
  C   C70       1.0  0.56612  0.17300  0.34394  1.0000
  C   C71       1.0  0.57943  0.17313  0.26160  1.0000
  C   C72       1.0  0.60530  0.17285  0.26363  1.0000
  H   H24       1.0  0.61539  0.17421  0.20394  1.0000
  N   N24       1.0  0.56724  0.17479  0.17909  1.0000
  O   O47       1.0  0.56126  0.15381  0.12961  1.0000
  O   O48       1.0  0.58354  0.19703  0.13650  1.0000
  C   C73       1.0  0.03930  0.30090  0.34531  1.0000
  C   C74       1.0  0.02377  0.29336  0.26324  1.0000
  C   C75       1.0  0.99362  0.27808  0.26482  1.0000
  H   H25       1.0  0.98290  0.27381  0.20486  1.0000
  N   N25       1.0  0.03886  0.30232  0.18084  1.0000
  O   O49       1.0  0.03359  0.28157  0.13118  1.0000
  O   O50       1.0  0.03300  0.31871  0.13840  1.0000
  C   C76       1.0  0.71355  0.74125  0.34534  1.0000
  C   C77       1.0  0.72108  0.73326  0.26324  1.0000
  C   C78       1.0  0.73636  0.71838  0.26484  1.0000
  H   H26       1.0  0.74064  0.71194  0.20488  1.0000
  N   N26       1.0  0.71212  0.73939  0.18085  1.0000
  O   O51       1.0  0.73287  0.75487  0.13119  1.0000
  O   O52       1.0  0.69573  0.71714  0.13841  1.0000
  C   C79       1.0  0.27321  0.97520  0.34521  1.0000
  C   C80       1.0  0.28119  0.99072  0.26315  1.0000
  C   C81       1.0  0.29608  0.02088  0.26475  1.0000
  H   H27       1.0  0.30252  0.03161  0.20481  1.0000
  N   N27       1.0  0.27504  0.97563  0.18075  1.0000
  O   O53       1.0  0.25955  0.98091  0.13115  1.0000
  O   O54       1.0  0.29727  0.98148  0.13825  1.0000
  C   C82       1.0  0.97807  0.71069  0.34528  1.0000
  C   C83       1.0  0.99361  0.71821  0.26321  1.0000
  C   C84       1.0  0.02376  0.73349  0.26481  1.0000
  H   H28       1.0  0.03449  0.73774  0.20486  1.0000
  N   N28       1.0  0.97853  0.70924  0.18081  1.0000
  O   O55       1.0  0.98380  0.72998  0.13111  1.0000
  O   O56       1.0  0.98438  0.69284  0.13841  1.0000
  C   C85       1.0  0.30381  0.27032  0.34538  1.0000
  C   C86       1.0  0.29628  0.27831  0.26328  1.0000
  C   C87       1.0  0.28100  0.29318  0.26486  1.0000
  H   H29       1.0  0.27674  0.29964  0.20490  1.0000
  N   N29       1.0  0.30523  0.27217  0.18089  1.0000
  O   O57       1.0  0.28448  0.25668  0.13124  1.0000
  O   O58       1.0  0.32162  0.29441  0.13843  1.0000
  C   C88       1.0  0.74416  0.03638  0.34533  1.0000
  C   C89       1.0  0.73618  0.02087  0.26324  1.0000
  C   C90       1.0  0.72129  0.99071  0.26484  1.0000
  H   H30       1.0  0.71485  0.97998  0.20490  1.0000
  N   N30       1.0  0.74232  0.03596  0.18084  1.0000
  O   O59       1.0  0.75781  0.03068  0.13122  1.0000
  O   O60       1.0  0.72008  0.03010  0.13837  1.0000
  C   C91       1.0  0.14161  0.32473  0.34536  1.0000
  C   C92       1.0  0.15512  0.32488  0.26328  1.0000
  C   C93       1.0  0.18108  0.32457  0.26480  1.0000
  H   H31       1.0  0.19114  0.32618  0.20486  1.0000
  N   N31       1.0  0.14313  0.32699  0.18094  1.0000
  O   O61       1.0  0.13725  0.30629  0.13024  1.0000
  O   O62       1.0  0.15952  0.34948  0.13961  1.0000
  C   C94       1.0  0.68977  0.81976  0.34545  1.0000
  C   C95       1.0  0.68960  0.83313  0.26334  1.0000
  C   C96       1.0  0.68993  0.85940  0.26480  1.0000
  H   H32       1.0  0.68827  0.86781  0.20484  1.0000
  N   N32       1.0  0.68745  0.81900  0.18102  1.0000
  O   O63       1.0  0.70813  0.83379  0.13023  1.0000
  O   O64       1.0  0.66495  0.81289  0.13979  1.0000
  C   C97       1.0  0.19472  0.87290  0.34545  1.0000
  C   C98       1.0  0.18135  0.85934  0.26339  1.0000
  C   C99       1.0  0.15507  0.83339  0.26490  1.0000
  H   H33       1.0  0.14665  0.82331  0.20496  1.0000
  N   N33       1.0  0.19546  0.87131  0.18102  1.0000
  O   O65       1.0  0.18065  0.87717  0.13024  1.0000
  O   O66       1.0  0.20156  0.85490  0.13980  1.0000
  C   C100      1.0  0.87576  0.68685  0.34547  1.0000
  C   C101      1.0  0.86222  0.68666  0.26337  1.0000
  C   C102      1.0  0.83626  0.68696  0.26485  1.0000
  H   H34       1.0  0.82619  0.68533  0.20492  1.0000
  N   N34       1.0  0.87421  0.68455  0.18102  1.0000
  O   O67       1.0  0.88008  0.70523  0.13028  1.0000
  O   O68       1.0  0.85783  0.66204  0.13974  1.0000
  C   C103      1.0  0.32757  0.19179  0.34529  1.0000
  C   C104      1.0  0.32772  0.17841  0.26322  1.0000
  C   C105      1.0  0.32742  0.15215  0.26474  1.0000
  H   H35       1.0  0.32903  0.14369  0.20481  1.0000
  N   N35       1.0  0.32982  0.19251  0.18089  1.0000
  O   O69       1.0  0.30912  0.17768  0.13020  1.0000
  O   O70       1.0  0.35231  0.19861  0.13954  1.0000
  C   C106      1.0  0.82269  0.13867  0.34541  1.0000
  C   C107      1.0  0.83605  0.15221  0.26330  1.0000
  C   C108      1.0  0.86232  0.17817  0.26475  1.0000
  H   H36       1.0  0.87073  0.18824  0.20480  1.0000
  N   N36       1.0  0.82193  0.14022  0.18098  1.0000
  O   O71       1.0  0.83674  0.13434  0.13022  1.0000
  O   O72       1.0  0.81581  0.15661  0.13971  1.0000
  C   C109      1.0  0.21695  0.52517  0.34304  1.0000
  C   C110      1.0  0.19497  0.49668  0.34337  1.0000
  C   C111      1.0  0.16626  0.48960  0.34430  1.0000
  C   C112      1.0  0.15966  0.51166  0.34503  1.0000
  C   C113      1.0  0.18155  0.54043  0.34415  1.0000
  C   C114      1.0  0.21016  0.54694  0.34331  1.0000
  H   H37       1.0  0.13890  0.50676  0.34645  1.0000
  H   H38       1.0  0.22619  0.56767  0.34327  1.0000
  H   H39       1.0  0.19998  0.48084  0.34342  1.0000
  C   C115      1.0  0.48932  0.69469  0.34307  1.0000
  C   C116      1.0  0.51780  0.70120  0.34337  1.0000
  C   C117      1.0  0.52489  0.67957  0.34427  1.0000
  C   C118      1.0  0.50283  0.65091  0.34494  1.0000
  C   C119      1.0  0.47406  0.64403  0.34412  1.0000
  C   C120      1.0  0.46755  0.66612  0.34333  1.0000
  H   H40       1.0  0.50774  0.63506  0.34631  1.0000
  H   H41       1.0  0.44681  0.66142  0.34330  1.0000
  H   H42       1.0  0.53364  0.72205  0.34343  1.0000
  C   C121      1.0  0.31982  0.79754  0.34298  1.0000
  C   C122      1.0  0.31331  0.81953  0.34337  1.0000
  C   C123      1.0  0.33494  0.84824  0.34435  1.0000
  C   C124      1.0  0.36360  0.85484  0.34507  1.0000
  C   C125      1.0  0.37048  0.83295  0.34414  1.0000
  C   C126      1.0  0.34839  0.80435  0.34322  1.0000
  H   H43       1.0  0.37945  0.87560  0.34652  1.0000
  H   H44       1.0  0.35309  0.78831  0.34311  1.0000
  H   H45       1.0  0.29246  0.81451  0.34344  1.0000
  C   C127      1.0  0.80043  0.48642  0.34307  1.0000
  C   C128      1.0  0.82241  0.51491  0.34335  1.0000
  C   C129      1.0  0.85112  0.52200  0.34429  1.0000
  C   C130      1.0  0.85773  0.49994  0.34498  1.0000
  C   C131      1.0  0.83584  0.47117  0.34418  1.0000
  C   C132      1.0  0.80724  0.46465  0.34337  1.0000
  H   H46       1.0  0.87849  0.50485  0.34634  1.0000
  H   H47       1.0  0.79120  0.44392  0.34333  1.0000
  H   H48       1.0  0.81738  0.53074  0.34338  1.0000
  C   C133      1.0  0.52805  0.31689  0.34305  1.0000
  C   C134      1.0  0.49956  0.31038  0.34331  1.0000
  C   C135      1.0  0.49247  0.33200  0.34422  1.0000
  C   C136      1.0  0.51452  0.36066  0.34498  1.0000
  C   C137      1.0  0.54329  0.36755  0.34416  1.0000
  C   C138      1.0  0.54982  0.34547  0.34336  1.0000
  H   H49       1.0  0.50961  0.37651  0.34637  1.0000
  H   H50       1.0  0.57055  0.35017  0.34335  1.0000
  H   H51       1.0  0.48373  0.28952  0.34335  1.0000
  C   C139      1.0  0.69760  0.21408  0.34304  1.0000
  C   C140      1.0  0.70411  0.19210  0.34331  1.0000
  C   C141      1.0  0.68249  0.16339  0.34422  1.0000
  C   C142      1.0  0.65383  0.15678  0.34497  1.0000
  C   C143      1.0  0.64694  0.17867  0.34416  1.0000
  C   C144      1.0  0.66902  0.20727  0.34334  1.0000
  H   H52       1.0  0.63797  0.13601  0.34635  1.0000
  H   H53       1.0  0.66432  0.22330  0.34332  1.0000
  H   H54       1.0  0.72497  0.19712  0.34334  1.0000
  C   C145      1.0  0.52810  0.21410  0.34708  1.0000
  C   C146      1.0  0.49961  0.19211  0.34690  1.0000
  C   C147      1.0  0.49252  0.16340  0.34590  1.0000
  C   C148      1.0  0.51457  0.15679  0.34503  1.0000
  C   C149      1.0  0.54334  0.17868  0.34569  1.0000
  C   C150      1.0  0.54986  0.20729  0.34656  1.0000
  H   H55       1.0  0.50966  0.13603  0.34362  1.0000
  H   H56       1.0  0.57060  0.22332  0.34655  1.0000
  H   H57       1.0  0.48377  0.19714  0.34700  1.0000
  C   C151      1.0  0.69758  0.48640  0.34701  1.0000
  C   C152      1.0  0.70409  0.51488  0.34687  1.0000
  C   C153      1.0  0.68246  0.52197  0.34590  1.0000
  C   C154      1.0  0.65381  0.49992  0.34504  1.0000
  C   C155      1.0  0.64692  0.47114  0.34565  1.0000
  C   C156      1.0  0.66901  0.46463  0.34648  1.0000
  H   H58       1.0  0.63795  0.50483  0.34369  1.0000
  H   H59       1.0  0.66431  0.44389  0.34644  1.0000
  H   H60       1.0  0.72495  0.53072  0.34699  1.0000
  C   C157      1.0  0.80041  0.31691  0.34706  1.0000
  C   C158      1.0  0.82238  0.31039  0.34698  1.0000
  C   C159      1.0  0.85110  0.33200  0.34597  1.0000
  C   C160      1.0  0.85772  0.36066  0.34503  1.0000
  C   C161      1.0  0.83584  0.36756  0.34562  1.0000
  C   C162      1.0  0.80723  0.34549  0.34647  1.0000
  H   H61       1.0  0.87849  0.37651  0.34364  1.0000
  H   H62       1.0  0.79121  0.35020  0.34639  1.0000
  H   H63       1.0  0.81735  0.28953  0.34717  1.0000
  C   C163      1.0  0.48929  0.79751  0.34708  1.0000
  C   C164      1.0  0.51779  0.81948  0.34697  1.0000
  C   C165      1.0  0.52489  0.84820  0.34596  1.0000
  C   C166      1.0  0.50285  0.85482  0.34503  1.0000
  C   C167      1.0  0.47407  0.83294  0.34564  1.0000
  C   C168      1.0  0.46754  0.80434  0.34650  1.0000
  H   H64       1.0  0.50778  0.87559  0.34360  1.0000
  H   H65       1.0  0.44680  0.78831  0.34644  1.0000
  H   H66       1.0  0.53361  0.81445  0.34714  1.0000
  C   C169      1.0  0.31980  0.52518  0.34708  1.0000
  C   C170      1.0  0.31329  0.49669  0.34691  1.0000
  C   C171      1.0  0.33492  0.48961  0.34589  1.0000
  C   C172      1.0  0.36358  0.51166  0.34498  1.0000
  C   C173      1.0  0.37046  0.54044  0.34564  1.0000
  C   C174      1.0  0.34837  0.54695  0.34655  1.0000
  H   H67       1.0  0.37943  0.50675  0.34353  1.0000
  H   H68       1.0  0.35307  0.56769  0.34652  1.0000
  H   H69       1.0  0.29244  0.48086  0.34701  1.0000
  C   C175      1.0  0.21698  0.69471  0.34696  1.0000
  C   C176      1.0  0.19500  0.70122  0.34687  1.0000
  C   C177      1.0  0.16629  0.67959  0.34592  1.0000
  C   C178      1.0  0.15968  0.65094  0.34506  1.0000
  C   C179      1.0  0.18158  0.64406  0.34561  1.0000
  C   C180      1.0  0.21018  0.66614  0.34640  1.0000
  H   H70       1.0  0.13892  0.63508  0.34373  1.0000
  H   H71       1.0  0.22621  0.66145  0.34632  1.0000
  H   H72       1.0  0.20002  0.72208  0.34698  1.0000
  C   C181      1.0  0.10789  0.37031  0.34798  1.0000
  C   C182      1.0  0.12795  0.36110  0.34789  1.0000
  C   C183      1.0  0.11958  0.33198  0.34754  1.0000
  C   C184      1.0  0.09007  0.31184  0.34693  1.0000
  C   C185      1.0  0.06932  0.32046  0.34735  1.0000
  C   C186      1.0  0.07875  0.34987  0.34762  1.0000
  H   H73       1.0  0.08362  0.29068  0.34574  1.0000
  H   H74       1.0  0.06419  0.35657  0.34683  1.0000
  H   H75       1.0  0.14914  0.37598  0.34725  1.0000
  C   C187      1.0  0.64416  0.74047  0.34794  1.0000
  C   C188      1.0  0.65338  0.76974  0.34788  1.0000
  C   C189      1.0  0.68250  0.79048  0.34755  1.0000
  C   C190      1.0  0.70263  0.78109  0.34695  1.0000
  C   C191      1.0  0.69399  0.75172  0.34735  1.0000
  C   C192      1.0  0.66458  0.73175  0.34758  1.0000
  H   H76       1.0  0.72380  0.79580  0.34581  1.0000
  H   H77       1.0  0.65787  0.71049  0.34677  1.0000
  H   H78       1.0  0.63851  0.77606  0.34727  1.0000
  C   C193      1.0  0.27401  0.90659  0.34796  1.0000
  C   C194      1.0  0.24474  0.88653  0.34790  1.0000
  C   C195      1.0  0.22400  0.89491  0.34750  1.0000
  C   C196      1.0  0.23338  0.92443  0.34690  1.0000
  C   C197      1.0  0.26275  0.94517  0.34733  1.0000
  C   C198      1.0  0.28273  0.93574  0.34759  1.0000
  H   H79       1.0  0.21867  0.93089  0.34572  1.0000
  H   H80       1.0  0.30399  0.95029  0.34679  1.0000
  H   H81       1.0  0.23843  0.86535  0.34732  1.0000
  C   C199      1.0  0.90948  0.64127  0.34787  1.0000
  C   C200      1.0  0.88942  0.65048  0.34784  1.0000
  C   C201      1.0  0.89779  0.67960  0.34748  1.0000
  C   C202      1.0  0.92730  0.69974  0.34692  1.0000
  C   C203      1.0  0.94805  0.69112  0.34729  1.0000
  C   C204      1.0  0.93863  0.66171  0.34750  1.0000
  H   H82       1.0  0.93375  0.72090  0.34580  1.0000
  H   H83       1.0  0.95319  0.65502  0.34671  1.0000
  H   H84       1.0  0.86824  0.63560  0.34725  1.0000
  C   C205      1.0  0.37320  0.27109  0.34796  1.0000
  C   C206      1.0  0.36397  0.24182  0.34783  1.0000
  C   C207      1.0  0.33485  0.22107  0.34750  1.0000
  C   C208      1.0  0.31472  0.23047  0.34693  1.0000
  C   C209      1.0  0.32336  0.25984  0.34738  1.0000
  C   C210      1.0  0.35277  0.27981  0.34765  1.0000
  H   H85       1.0  0.29356  0.21576  0.34575  1.0000
  H   H86       1.0  0.35948  0.30107  0.34687  1.0000
  H   H87       1.0  0.37884  0.23550  0.34719  1.0000
  C   C211      1.0  0.74340  0.10500  0.34793  1.0000
  C   C212      1.0  0.77267  0.12505  0.34784  1.0000
  C   C213      1.0  0.79341  0.11667  0.34750  1.0000
  C   C214      1.0  0.78401  0.08715  0.34696  1.0000
  C   C215      1.0  0.75464  0.06642  0.34736  1.0000
  C   C216      1.0  0.73467  0.07586  0.34759  1.0000
  H   H88       1.0  0.79872  0.08068  0.34580  1.0000
  H   H89       1.0  0.71341  0.06131  0.34677  1.0000
  H   H90       1.0  0.77899  0.14624  0.34723  1.0000
  C   C217      1.0  0.37322  0.10505  0.34336  1.0000
  C   C218      1.0  0.36400  0.12510  0.34356  1.0000
  C   C219      1.0  0.33487  0.11671  0.34420  1.0000
  C   C220      1.0  0.31475  0.08719  0.34485  1.0000
  C   C221      1.0  0.32339  0.06646  0.34435  1.0000
  C   C222      1.0  0.35280  0.07591  0.34383  1.0000
  H   H91       1.0  0.29358  0.08073  0.34615  1.0000
  H   H92       1.0  0.35951  0.06136  0.34449  1.0000
  H   H93       1.0  0.37887  0.14629  0.34406  1.0000
  C   C223      1.0  0.74340  0.64126  0.34328  1.0000
  C   C224      1.0  0.77266  0.65047  0.34352  1.0000
  C   C225      1.0  0.79342  0.67959  0.34416  1.0000
  C   C226      1.0  0.78404  0.69973  0.34488  1.0000
  C   C227      1.0  0.75468  0.69111  0.34431  1.0000
  C   C228      1.0  0.73469  0.66170  0.34377  1.0000
  H   H94       1.0  0.79875  0.72089  0.34624  1.0000
  H   H95       1.0  0.71343  0.65500  0.34445  1.0000
  H   H96       1.0  0.77897  0.63559  0.34405  1.0000
  C   C229      1.0  0.90945  0.27107  0.34331  1.0000
  C   C230      1.0  0.88939  0.24180  0.34350  1.0000
  C   C231      1.0  0.89776  0.22105  0.34410  1.0000
  C   C232      1.0  0.92727  0.23043  0.34482  1.0000
  C   C233      1.0  0.94802  0.25979  0.34429  1.0000
  C   C234      1.0  0.93860  0.27977  0.34381  1.0000
  H   H97       1.0  0.93372  0.21571  0.34615  1.0000
  H   H98       1.0  0.95316  0.30103  0.34452  1.0000
  H   H99       1.0  0.86821  0.23550  0.34402  1.0000
  C   C235      1.0  0.64417  0.90654  0.34328  1.0000
  C   C236      1.0  0.65339  0.88649  0.34348  1.0000
  C   C237      1.0  0.68251  0.89487  0.34410  1.0000
  C   C238      1.0  0.70264  0.92439  0.34485  1.0000
  C   C239      1.0  0.69401  0.94512  0.34431  1.0000
  C   C240      1.0  0.66460  0.93569  0.34381  1.0000
  H   H100      1.0  0.72380  0.93084  0.34619  1.0000
  H   H101      1.0  0.65789  0.95024  0.34451  1.0000
  H   H102      1.0  0.63851  0.86530  0.34397  1.0000
  C   C241      1.0  0.27397  0.37033  0.34331  1.0000
  C   C242      1.0  0.24470  0.36111  0.34352  1.0000
  C   C243      1.0  0.22396  0.33198  0.34418  1.0000
  C   C244      1.0  0.23335  0.31185  0.34488  1.0000
  C   C245      1.0  0.26271  0.32049  0.34431  1.0000
  C   C246      1.0  0.28269  0.34990  0.34379  1.0000
  H   H103      1.0  0.21864  0.29069  0.34623  1.0000
  H   H104      1.0  0.30395  0.35660  0.34447  1.0000
  H   H105      1.0  0.23838  0.37598  0.34400  1.0000
  C   C247      1.0  0.10793  0.74051  0.34333  1.0000
  C   C248      1.0  0.12798  0.76978  0.34356  1.0000
  C   C249      1.0  0.11960  0.79053  0.34420  1.0000
  C   C250      1.0  0.09008  0.78114  0.34489  1.0000
  C   C251      1.0  0.06935  0.75178  0.34429  1.0000
  C   C252      1.0  0.07878  0.73180  0.34380  1.0000
  H   H106      1.0  0.08363  0.79585  0.34623  1.0000
  H   H107      1.0  0.06422  0.71054  0.34445  1.0000
  H   H108      1.0  0.14917  0.77610  0.34408  1.0000
  C   C253      1.0  0.14545  0.46032  0.34653  1.0000
  C   C254      1.0  0.13827  0.44511  0.42907  1.0000
  C   C255      1.0  0.12401  0.41509  0.42763  1.0000
  H   H109      1.0  0.12000  0.40438  0.48756  1.0000
  N   N37       1.0  0.14690  0.46035  0.51133  1.0000
  O   O73       1.0  0.12601  0.45454  0.56102  1.0000
  O   O74       1.0  0.16380  0.45526  0.55392  1.0000
  C   C256      1.0  0.55418  0.68806  0.34640  1.0000
  C   C257      1.0  0.56934  0.69607  0.42902  1.0000
  C   C258      1.0  0.59937  0.71186  0.42759  1.0000
  H   H110      1.0  0.61008  0.71854  0.48752  1.0000
  N   N38       1.0  0.55409  0.68944  0.51126  1.0000
  O   O75       1.0  0.55992  0.67437  0.56093  1.0000
  O   O76       1.0  0.55917  0.71143  0.55387  1.0000
  C   C259      1.0  0.32646  0.86905  0.34665  1.0000
  C   C260      1.0  0.31843  0.87621  0.42918  1.0000
  C   C261      1.0  0.30265  0.89045  0.42773  1.0000
  H   H111      1.0  0.29597  0.89449  0.48763  1.0000
  N   N39       1.0  0.32506  0.86760  0.51144  1.0000
  O   O77       1.0  0.34012  0.88850  0.56112  1.0000
  O   O78       1.0  0.30306  0.85068  0.55404  1.0000
  C   C262      1.0  0.87192  0.55129  0.34636  1.0000
  C   C263      1.0  0.87907  0.56646  0.42896  1.0000
  C   C264      1.0  0.89335  0.59648  0.42755  1.0000
  H   H112      1.0  0.89734  0.60719  0.48748  1.0000
  N   N40       1.0  0.87043  0.55121  0.51122  1.0000
  O   O79       1.0  0.89131  0.55702  0.56095  1.0000
  O   O80       1.0  0.85352  0.55632  0.55376  1.0000
  C   C265      1.0  0.46317  0.32351  0.34637  1.0000
  C   C266      1.0  0.44802  0.31550  0.42900  1.0000
  C   C267      1.0  0.41799  0.29973  0.42758  1.0000
  H   H113      1.0  0.40729  0.29303  0.48752  1.0000
  N   N41       1.0  0.46327  0.32212  0.51123  1.0000
  O   O81       1.0  0.45746  0.33720  0.56092  1.0000
  O   O82       1.0  0.45818  0.30012  0.55384  1.0000
  C   C268      1.0  0.69098  0.14259  0.34636  1.0000
  C   C269      1.0  0.69901  0.13544  0.42894  1.0000
  C   C270      1.0  0.71478  0.12119  0.42754  1.0000
  H   H114      1.0  0.72146  0.11715  0.48747  1.0000
  N   N42       1.0  0.69239  0.14406  0.51120  1.0000
  O   O83       1.0  0.67732  0.12316  0.56089  1.0000
  O   O84       1.0  0.71438  0.16097  0.55379  1.0000
  C   C271      1.0  0.40278  0.11462  0.34524  1.0000
  C   C272      1.0  0.41799  0.12162  0.42770  1.0000
  C   C273      1.0  0.44798  0.13538  0.42591  1.0000
  H   H115      1.0  0.45882  0.14188  0.48570  1.0000
  N   N43       1.0  0.40296  0.11601  0.51012  1.0000
  O   O85       1.0  0.40734  0.09986  0.55954  1.0000
  O   O86       1.0  0.40976  0.13845  0.55281  1.0000
  C   C274      1.0  0.72339  0.61171  0.34528  1.0000
  C   C275      1.0  0.71519  0.59651  0.42774  1.0000
  C   C276      1.0  0.69894  0.56651  0.42599  1.0000
  H   H116      1.0  0.69463  0.55568  0.48577  1.0000
  N   N44       1.0  0.72462  0.61154  0.51013  1.0000
  O   O87       1.0  0.70409  0.60718  0.55959  1.0000
  O   O88       1.0  0.74026  0.60475  0.55281  1.0000
  C   C277      1.0  0.89990  0.29108  0.34534  1.0000
  C   C278      1.0  0.89292  0.29928  0.42782  1.0000
  C   C279      1.0  0.87913  0.31548  0.42610  1.0000
  H   H117      1.0  0.87267  0.31985  0.48590  1.0000
  N   N45       1.0  0.89857  0.28987  0.51021  1.0000
  O   O89       1.0  0.91472  0.31041  0.55961  1.0000
  O   O90       1.0  0.87614  0.27421  0.55296  1.0000
  C   C280      1.0  0.61461  0.89698  0.34527  1.0000
  C   C281      1.0  0.59943  0.89001  0.42777  1.0000
  C   C282      1.0  0.56943  0.87622  0.42605  1.0000
  H   H118      1.0  0.55859  0.86976  0.48584  1.0000
  N   N46       1.0  0.61448  0.89566  0.51015  1.0000
  O   O91       1.0  0.61010  0.91182  0.55953  1.0000
  O   O92       1.0  0.60771  0.87324  0.55292  1.0000
  C   C283      1.0  0.29396  0.39989  0.34521  1.0000
  C   C284      1.0  0.30216  0.41509  0.42766  1.0000
  C   C285      1.0  0.31840  0.44509  0.42587  1.0000
  H   H119      1.0  0.32274  0.45592  0.48565  1.0000
  N   N47       1.0  0.29275  0.40006  0.51008  1.0000
  O   O93       1.0  0.31328  0.40444  0.55951  1.0000
  O   O94       1.0  0.27710  0.40686  0.55277  1.0000
  C   C286      1.0  0.11748  0.72052  0.34529  1.0000
  C   C287      1.0  0.12446  0.71231  0.42777  1.0000
  C   C288      1.0  0.13821  0.69606  0.42606  1.0000
  H   H120      1.0  0.14473  0.69175  0.48584  1.0000
  N   N48       1.0  0.11884  0.72173  0.51016  1.0000
  O   O95       1.0  0.10268  0.70120  0.55958  1.0000
  O   O96       1.0  0.14128  0.73737  0.55288  1.0000
  C   C289      1.0  0.29734  0.53112  0.34764  1.0000
  C   C290      1.0  0.28390  0.53112  0.42944  1.0000
  C   C291      1.0  0.25809  0.53136  0.42590  1.0000
  H   H121      1.0  0.24773  0.53005  0.48500  1.0000
  N   N49       1.0  0.29581  0.52952  0.51265  1.0000
  O   O97       1.0  0.30161  0.55052  0.56178  1.0000
  O   O98       1.0  0.27936  0.50730  0.55509  1.0000
  C   C292      1.0  0.48334  0.76911  0.34765  1.0000
  C   C293      1.0  0.48333  0.75567  0.42947  1.0000
  C   C294      1.0  0.48310  0.72962  0.42595  1.0000
  H   H122      1.0  0.48441  0.72058  0.48505  1.0000
  N   N50       1.0  0.48493  0.76919  0.51266  1.0000
  O   O99       1.0  0.46392  0.75398  0.56178  1.0000
  O   O100      1.0  0.50715  0.77496  0.55511  1.0000
  C   C295      1.0  0.24538  0.71719  0.34739  1.0000
  C   C296      1.0  0.25881  0.73060  0.42923  1.0000
  C   C297      1.0  0.28489  0.75640  0.42572  1.0000
  H   H123      1.0  0.29390  0.76676  0.48484  1.0000
  N   N51       1.0  0.24530  0.71869  0.51243  1.0000
  O   O101      1.0  0.26049  0.71287  0.56154  1.0000
  O   O102      1.0  0.23955  0.73516  0.55489  1.0000
  C   C298      1.0  0.72005  0.48046  0.34751  1.0000
  C   C299      1.0  0.73346  0.48045  0.42934  1.0000
  C   C300      1.0  0.75926  0.48015  0.42587  1.0000
  H   H124      1.0  0.76963  0.48153  0.48498  1.0000
  N   N52       1.0  0.72156  0.48207  0.51254  1.0000
  O   O103      1.0  0.71573  0.46106  0.56168  1.0000
  O   O104      1.0  0.73803  0.50428  0.55497  1.0000
  C   C301      1.0  0.53404  0.24250  0.34762  1.0000
  C   C302      1.0  0.53404  0.25592  0.42945  1.0000
  C   C303      1.0  0.53427  0.28197  0.42593  1.0000
  H   H125      1.0  0.53295  0.29101  0.48504  1.0000
  N   N53       1.0  0.53244  0.24240  0.51265  1.0000
  O   O105      1.0  0.55344  0.25761  0.56177  1.0000
  O   O106      1.0  0.51022  0.23663  0.55510  1.0000
  C   C304      1.0  0.77200  0.29446  0.34762  1.0000
  C   C305      1.0  0.75857  0.28103  0.42943  1.0000
  C   C306      1.0  0.73251  0.25521  0.42591  1.0000
  H   H126      1.0  0.72347  0.24486  0.48501  1.0000
  N   N54       1.0  0.77208  0.29295  0.51263  1.0000
  O   O107      1.0  0.75688  0.29874  0.56176  1.0000
  O   O108      1.0  0.77785  0.27649  0.55508  1.0000
  C   C307      1.0  0.17587  0.56322  0.34590  1.0000
  C   C308      1.0  0.17589  0.57648  0.42819  1.0000
  C   C309      1.0  0.17566  0.60237  0.42612  1.0000
  H   H127      1.0  0.17689  0.61241  0.48582  1.0000
  N   N55       1.0  0.17742  0.56423  0.51075  1.0000
  O   O109      1.0  0.15639  0.55824  0.55994  1.0000
  O   O110      1.0  0.19962  0.58050  0.55364  1.0000
  C   C310      1.0  0.45127  0.61556  0.34578  1.0000
  C   C311      1.0  0.43803  0.60232  0.42813  1.0000
  C   C312      1.0  0.41215  0.57619  0.42611  1.0000
  H   H128      1.0  0.40210  0.56741  0.48582  1.0000
  N   N56       1.0  0.45028  0.61613  0.51066  1.0000
  O   O111      1.0  0.45629  0.60110  0.55987  1.0000
  O   O112      1.0  0.43400  0.62204  0.55353  1.0000
  C   C313      1.0  0.39895  0.83863  0.34579  1.0000
  C   C314      1.0  0.41219  0.83862  0.42811  1.0000
  C   C315      1.0  0.43833  0.83889  0.42604  1.0000
  H   H129      1.0  0.44711  0.83763  0.48575  1.0000
  N   N57       1.0  0.39840  0.83708  0.51067  1.0000
  O   O113      1.0  0.41344  0.85813  0.55984  1.0000
  O   O114      1.0  0.39250  0.81490  0.55356  1.0000
  C   C316      1.0  0.84153  0.44839  0.34582  1.0000
  C   C317      1.0  0.84150  0.43511  0.42812  1.0000
  C   C318      1.0  0.84175  0.40923  0.42604  1.0000
  H   H130      1.0  0.84051  0.39919  0.48574  1.0000
  N   N58       1.0  0.83996  0.44735  0.51069  1.0000
  O   O115      1.0  0.86099  0.45334  0.55990  1.0000
  O   O116      1.0  0.81776  0.43108  0.55354  1.0000
  C   C319      1.0  0.56607  0.39602  0.34591  1.0000
  C   C320      1.0  0.57934  0.40926  0.42821  1.0000
  C   C321      1.0  0.60524  0.43538  0.42617  1.0000
  H   H131      1.0  0.61528  0.44418  0.48587  1.0000
  N   N59       1.0  0.56709  0.39547  0.51076  1.0000
  O   O117      1.0  0.56110  0.41052  0.55996  1.0000
  O   O118      1.0  0.58335  0.38953  0.55362  1.0000
  C   C322      1.0  0.61847  0.17298  0.34586  1.0000
  C   C323      1.0  0.60523  0.17299  0.42819  1.0000
  C   C324      1.0  0.57909  0.17273  0.42617  1.0000
  H   H132      1.0  0.57032  0.17401  0.48589  1.0000
  N   N60       1.0  0.61904  0.17455  0.51073  1.0000
  O   O119      1.0  0.60401  0.15352  0.55996  1.0000
  O   O120      1.0  0.62496  0.19675  0.55358  1.0000
  C   C325      1.0  0.97804  0.27025  0.34641  1.0000
  C   C326      1.0  0.99357  0.27825  0.42848  1.0000
  C   C327      1.0  0.02372  0.29315  0.42689  1.0000
  H   H133      1.0  0.03445  0.29958  0.48685  1.0000
  N   N61       1.0  0.97848  0.27211  0.51087  1.0000
  O   O121      1.0  0.98377  0.25664  0.56053  1.0000
  O   O122      1.0  0.98431  0.29435  0.55331  1.0000
  C   C328      1.0  0.74422  0.71067  0.34642  1.0000
  C   C329      1.0  0.73624  0.71822  0.42850  1.0000
  C   C330      1.0  0.72132  0.73345  0.42692  1.0000
  H   H134      1.0  0.71491  0.73777  0.48688  1.0000
  N   N62       1.0  0.74240  0.70929  0.51089  1.0000
  O   O123      1.0  0.75788  0.73005  0.56050  1.0000
  O   O124      1.0  0.72018  0.69289  0.55339  1.0000
  C   C331      1.0  0.30384  0.03643  0.34636  1.0000
  C   C332      1.0  0.29630  0.02091  0.42844  1.0000
  C   C333      1.0  0.28103  0.99076  0.42683  1.0000
  H   H135      1.0  0.27674  0.98003  0.48678  1.0000
  N   N63       1.0  0.30524  0.03599  0.51085  1.0000
  O   O125      1.0  0.28447  0.03072  0.56045  1.0000
  O   O126      1.0  0.32162  0.03014  0.55335  1.0000
  C   C334      1.0  0.03932  0.74132  0.34642  1.0000
  C   C335      1.0  0.02379  0.73333  0.42848  1.0000
  C   C336      1.0  0.99364  0.71846  0.42687  1.0000
  H   H136      1.0  0.98291  0.71201  0.48681  1.0000
  N   N64       1.0  0.03888  0.73947  0.51088  1.0000
  O   O127      1.0  0.03361  0.75496  0.56051  1.0000
  O   O128      1.0  0.03302  0.71723  0.55335  1.0000
  C   C337      1.0  0.27318  0.30092  0.34646  1.0000
  C   C338      1.0  0.28115  0.29338  0.42854  1.0000
  C   C339      1.0  0.29605  0.27812  0.42696  1.0000
  H   H137      1.0  0.30246  0.27381  0.48692  1.0000
  N   N65       1.0  0.27499  0.30231  0.51092  1.0000
  O   O129      1.0  0.25950  0.28155  0.56052  1.0000
  O   O130      1.0  0.29722  0.31870  0.55344  1.0000
  C   C340      1.0  0.71357  0.97515  0.34646  1.0000
  C   C341      1.0  0.72112  0.99067  0.42853  1.0000
  C   C342      1.0  0.73637  0.02083  0.42694  1.0000
  H   H138      1.0  0.74069  0.03156  0.48689  1.0000
  N   N66       1.0  0.71219  0.97558  0.51091  1.0000
  O   O131      1.0  0.73296  0.98086  0.56051  1.0000
  O   O132      1.0  0.69580  0.98141  0.55344  1.0000
  C   C343      1.0  0.19468  0.32472  0.34632  1.0000
  C   C344      1.0  0.18135  0.32499  0.42840  1.0000
  C   C345      1.0  0.15509  0.32468  0.42692  1.0000
  H   H139      1.0  0.14669  0.32637  0.48685  1.0000
  N   N67       1.0  0.19550  0.32719  0.51073  1.0000
  O   O133      1.0  0.18071  0.30656  0.56168  1.0000
  O   O134      1.0  0.20164  0.34973  0.55178  1.0000
  C   C346      1.0  0.68978  0.87286  0.34630  1.0000
  C   C347      1.0  0.68951  0.85928  0.42838  1.0000
  C   C348      1.0  0.68984  0.83333  0.42693  1.0000
  H   H140      1.0  0.68813  0.82323  0.48687  1.0000
  N   N68       1.0  0.68730  0.87122  0.51069  1.0000
  O   O135      1.0  0.70793  0.87708  0.56167  1.0000
  O   O136      1.0  0.66475  0.85481  0.55173  1.0000
  C   C349      1.0  0.14161  0.81981  0.34644  1.0000
  C   C350      1.0  0.15521  0.83314  0.42848  1.0000
  C   C351      1.0  0.18117  0.85940  0.42696  1.0000
  H   H141      1.0  0.19125  0.86783  0.48689  1.0000
  N   N69       1.0  0.14326  0.81900  0.51082  1.0000
  O   O137      1.0  0.13743  0.83381  0.56176  1.0000
  O   O138      1.0  0.15967  0.81287  0.55188  1.0000
  C   C352      1.0  0.82269  0.68684  0.34641  1.0000
  C   C353      1.0  0.83603  0.68663  0.42852  1.0000
  C   C354      1.0  0.86228  0.68692  0.42700  1.0000
  H   H142      1.0  0.87072  0.68529  0.48693  1.0000
  N   N70       1.0  0.82188  0.68446  0.51083  1.0000
  O   O139      1.0  0.83669  0.70512  0.56168  1.0000
  O   O140      1.0  0.81576  0.66194  0.55198  1.0000
  C   C355      1.0  0.32761  0.13873  0.34627  1.0000
  C   C356      1.0  0.32788  0.15232  0.42837  1.0000
  C   C357      1.0  0.32757  0.17827  0.42684  1.0000
  H   H143      1.0  0.32927  0.18837  0.48677  1.0000
  N   N71       1.0  0.33011  0.14039  0.51071  1.0000
  O   O141      1.0  0.30948  0.13455  0.56168  1.0000
  O   O142      1.0  0.35265  0.15682  0.55171  1.0000
  C   C358      1.0  0.87574  0.19177  0.34628  1.0000
  C   C359      1.0  0.86219  0.17846  0.42840  1.0000
  C   C360      1.0  0.83625  0.15217  0.42692  1.0000
  H   H144      1.0  0.82615  0.14378  0.48685  1.0000
  N   N72       1.0  0.87414  0.19262  0.51071  1.0000
  O   O143      1.0  0.88001  0.17785  0.56164  1.0000
  O   O144      1.0  0.85771  0.19872  0.55180  1.0000
