data_image0
_chemical_formula_structural       C2H2C2H2C2H2C2H2C2H2C2H2C4N2O4C4N2O4C4N2O4C4N2O4C4N2O4C4N2O4C4N2O4C4N2O4C4N2O4C4N2O4C4N2O4C4N2O4NC18H12NC18H12NC18H12NC18H12NC18H12NC18H12NC18H12NC18H12NC18H12NC18H12NC18H12NC18H12C4N2O4C4N2O4C4N2O4C4N2O4C4N2O4C4N2O4C2H2C2H2C2H2C2H2C2H2C2H2C2H2C2H2C2H2C2H2C2H2C2H2
_chemical_formula_sum              "C324 H180 N48 O72"
_cell_length_a       64.1463
_cell_length_b       64.1464
_cell_length_c       14.7138
_cell_angle_alpha    90
_cell_angle_beta     90
_cell_angle_gamma    120

_space_group_name_H-M_alt    "P 1"
_space_group_IT_number       1

loop_
  _space_group_symop_operation_xyz
  'x, y, z'

loop_
  _atom_site_type_symbol
  _atom_site_label
  _atom_site_symmetry_multiplicity
  _atom_site_fract_x
  _atom_site_fract_y
  _atom_site_fract_z
  _atom_site_occupancy
  C   C1        1.0  0.19929  0.40528  0.30744  1.0000
  C   C2        1.0  0.18657  0.37987  0.30650  1.0000
  H   H1        1.0  0.17261  0.37126  0.26160  1.0000
  H   H2        1.0  0.19406  0.41413  0.26324  1.0000
  C   C3        1.0  0.60646  0.78785  0.29998  1.0000
  C   C4        1.0  0.63186  0.80061  0.29800  1.0000
  H   H3        1.0  0.64031  0.79627  0.24872  1.0000
  H   H4        1.0  0.59753  0.77486  0.25177  1.0000
  C   C5        1.0  0.22565  0.81272  0.30908  1.0000
  C   C6        1.0  0.21299  0.82546  0.30814  1.0000
  H   H5        1.0  0.21863  0.83972  0.26451  1.0000
  H   H6        1.0  0.24003  0.81823  0.26614  1.0000
  C   C7        1.0  0.81942  0.59701  0.29900  1.0000
  C   C8        1.0  0.83191  0.62241  0.29709  1.0000
  H   H7        1.0  0.84431  0.63100  0.24664  1.0000
  H   H8        1.0  0.82337  0.58815  0.25011  1.0000
  C   C9        1.0  0.41407  0.21555  0.30538  1.0000
  C   C10       1.0  0.38866  0.20291  0.30439  1.0000
  H   H9        1.0  0.38008  0.20764  0.25698  1.0000
  H   H10       1.0  0.42293  0.22899  0.25869  1.0000
  C   C11       1.0  0.79692  0.19155  0.30049  1.0000
  C   C12       1.0  0.80955  0.17877  0.30026  1.0000
  H   H11       1.0  0.80536  0.16592  0.25133  1.0000
  H   H12       1.0  0.78394  0.18728  0.25205  1.0000
  C   C13       1.0  0.21783  0.18314  0.33763  1.0000
  C   C14       1.0  0.19139  0.20899  0.33721  1.0000
  C   C15       1.0  0.18244  0.18658  0.29022  1.0000
  C   C16       1.0  0.19550  0.17389  0.29023  1.0000
  N   N1        1.0  0.15986  0.17505  0.24506  1.0000
  N   N2        1.0  0.18491  0.15166  0.24269  1.0000
  O   O1        1.0  0.14254  0.17171  0.29486  1.0000
  O   O2        1.0  0.19701  0.15218  0.17482  1.0000
  O   O3        1.0  0.15977  0.18528  0.17257  1.0000
  O   O4        1.0  0.18079  0.13414  0.29278  1.0000
  C   C17       1.0  0.82866  0.02721  0.33514  1.0000
  C   C18       1.0  0.80276  0.97493  0.33475  1.0000
  C   C19       1.0  0.82460  0.98835  0.28436  1.0000
  C   C20       1.0  0.83733  0.01409  0.28443  1.0000
  N   N3        1.0  0.83552  0.97723  0.23546  1.0000
  N   N4        1.0  0.85907  0.02568  0.23378  1.0000
  O   O5        1.0  0.83951  0.96335  0.28313  1.0000
  O   O6        1.0  0.85788  0.03715  0.16679  1.0000
  O   O7        1.0  0.82428  0.96674  0.16467  1.0000
  O   O8        1.0  0.87709  0.03913  0.28160  1.0000
  C   C21       1.0  0.98478  0.79448  0.33863  1.0000
  C   C22       1.0  0.03710  0.82070  0.33828  1.0000
  C   C23       1.0  0.02374  0.82989  0.29217  1.0000
  C   C24       1.0  0.99799  0.81696  0.29221  1.0000
  N   N5        1.0  0.03493  0.85260  0.24788  1.0000
  N   N6        1.0  0.98650  0.82794  0.24618  1.0000
  O   O9        1.0  0.04893  0.86974  0.29829  1.0000
  O   O10       1.0  0.97517  0.81646  0.17691  1.0000
  O   O11       1.0  0.04529  0.85282  0.17532  1.0000
  O   O12       1.0  0.97300  0.83175  0.29688  1.0000
  C   C25       1.0  0.80339  0.82005  0.33587  1.0000
  C   C26       1.0  0.83025  0.79461  0.33549  1.0000
  C   C27       1.0  0.83869  0.81665  0.28642  1.0000
  C   C28       1.0  0.82542  0.82914  0.28646  1.0000
  N   N7        1.0  0.86092  0.82799  0.23889  1.0000
  N   N8        1.0  0.83563  0.85112  0.23731  1.0000
  O   O13       1.0  0.87865  0.83189  0.28727  1.0000
  O   O14       1.0  0.82332  0.85011  0.16944  1.0000
  O   O15       1.0  0.86057  0.81720  0.16735  1.0000
  O   O16       1.0  0.83974  0.86885  0.28607  1.0000
  C   C29       1.0  0.19223  0.97558  0.33897  1.0000
  C   C30       1.0  0.21792  0.02788  0.33814  1.0000
  C   C31       1.0  0.19546  0.01433  0.29155  1.0000
  C   C32       1.0  0.18286  0.98858  0.29175  1.0000
  N   N9        1.0  0.18380  0.02528  0.24662  1.0000
  N   N10       1.0  0.16057  0.97684  0.24456  1.0000
  O   O17       1.0  0.18050  0.03929  0.29638  1.0000
  O   O18       1.0  0.16107  0.96527  0.17659  1.0000
  O   O19       1.0  0.19384  0.03549  0.17375  1.0000
  O   O20       1.0  0.14313  0.96340  0.29491  1.0000
  C   C33       1.0  0.03628  0.20899  0.33804  1.0000
  C   C34       1.0  0.98399  0.18243  0.33724  1.0000
  C   C35       1.0  0.99752  0.17348  0.29078  1.0000
  C   C36       1.0  0.02326  0.18660  0.29098  1.0000
  N   N11       1.0  0.98655  0.15082  0.24616  1.0000
  N   N12       1.0  0.03499  0.17602  0.24389  1.0000
  O   O21       1.0  0.97252  0.13356  0.29605  1.0000
  O   O22       1.0  0.04656  0.18806  0.17590  1.0000
  O   O23       1.0  0.97636  0.15060  0.17314  1.0000
  O   O24       1.0  0.04840  0.17201  0.29429  1.0000
  C   C37       1.0  0.24820  0.59801  0.33057  1.0000
  C   C38       1.0  0.24782  0.64303  0.35039  1.0000
  C   C39       1.0  0.24755  0.63325  0.26255  1.0000
  C   C40       1.0  0.24690  0.61075  0.25297  1.0000
  N   N13       1.0  0.25062  0.64599  0.18009  1.0000
  N   N14       1.0  0.24269  0.60109  0.16351  1.0000
  O   O25       1.0  0.26802  0.66720  0.17753  1.0000
  O   O26       1.0  0.22662  0.57940  0.15508  1.0000
  O   O27       1.0  0.23167  0.64397  0.14713  1.0000
  O   O28       1.0  0.26121  0.60635  0.11800  1.0000
  C   C41       1.0  0.41354  0.64268  0.32978  1.0000
  C   C42       1.0  0.36853  0.59728  0.34970  1.0000
  C   C43       1.0  0.37827  0.60680  0.26184  1.0000
  C   C44       1.0  0.40077  0.62865  0.25220  1.0000
  N   N15       1.0  0.36554  0.59708  0.17942  1.0000
  N   N16       1.0  0.41041  0.63408  0.16272  1.0000
  O   O29       1.0  0.34431  0.59320  0.17687  1.0000
  O   O30       1.0  0.43209  0.63965  0.15426  1.0000
  O   O31       1.0  0.36761  0.58018  0.14650  1.0000
  O   O32       1.0  0.40523  0.64743  0.11741  1.0000
  C   C45       1.0  0.36902  0.76335  0.33123  1.0000
  C   C46       1.0  0.41439  0.76366  0.35076  1.0000
  C   C47       1.0  0.40488  0.76399  0.26299  1.0000
  C   C48       1.0  0.38305  0.76468  0.25355  1.0000
  N   N17       1.0  0.41457  0.76102  0.18043  1.0000
  N   N18       1.0  0.37765  0.76902  0.16421  1.0000
  O   O33       1.0  0.41843  0.74365  0.17752  1.0000
  O   O34       1.0  0.37208  0.78514  0.15614  1.0000
  O   O35       1.0  0.43146  0.78000  0.14749  1.0000
  O   O36       1.0  0.36433  0.75056  0.11848  1.0000
  C   C49       1.0  0.77254  0.40436  0.32838  1.0000
  C   C50       1.0  0.77296  0.35938  0.34866  1.0000
  C   C51       1.0  0.77317  0.36908  0.26071  1.0000
  C   C52       1.0  0.77381  0.39157  0.25088  1.0000
  N   N19       1.0  0.77007  0.35628  0.17840  1.0000
  N   N20       1.0  0.77792  0.40114  0.16130  1.0000
  O   O37       1.0  0.75265  0.33508  0.17606  1.0000
  O   O38       1.0  0.79396  0.42283  0.15258  1.0000
  O   O39       1.0  0.78900  0.35823  0.14558  1.0000
  O   O40       1.0  0.75933  0.39587  0.11617  1.0000
  C   C53       1.0  0.60698  0.35962  0.33014  1.0000
  C   C54       1.0  0.65203  0.40497  0.34972  1.0000
  C   C55       1.0  0.64219  0.39548  0.26194  1.0000
  C   C56       1.0  0.61967  0.37366  0.25247  1.0000
  N   N21       1.0  0.65488  0.40515  0.17939  1.0000
  N   N22       1.0  0.60996  0.36822  0.16310  1.0000
  O   O41       1.0  0.67609  0.40896  0.17663  1.0000
  O   O42       1.0  0.58828  0.36263  0.15490  1.0000
  O   O43       1.0  0.65287  0.42210  0.14654  1.0000
  O   O44       1.0  0.61513  0.35489  0.11757  1.0000
  C   C57       1.0  0.65132  0.23884  0.33105  1.0000
  C   C58       1.0  0.60594  0.23848  0.35098  1.0000
  C   C59       1.0  0.61543  0.23819  0.26312  1.0000
  C   C60       1.0  0.63726  0.23751  0.25347  1.0000
  N   N23       1.0  0.60571  0.24119  0.18066  1.0000
  N   N24       1.0  0.64264  0.23320  0.16405  1.0000
  O   O45       1.0  0.60189  0.25857  0.17792  1.0000
  O   O46       1.0  0.64826  0.21713  0.15583  1.0000
  O   O47       1.0  0.58878  0.22221  0.14784  1.0000
  O   O48       1.0  0.65591  0.25168  0.11830  1.0000
  N   N25       1.0  0.14031  0.26216  0.34877  1.0000
  C   C61       1.0  0.11438  0.24909  0.34665  1.0000
  C   C62       1.0  0.15308  0.28809  0.35210  1.0000
  C   C63       1.0  0.15332  0.24924  0.34635  1.0000
  C   C64       1.0  0.15779  0.23975  0.42608  1.0000
  C   C65       1.0  0.17027  0.22674  0.42312  1.0000
  C   C66       1.0  0.17895  0.22262  0.34028  1.0000
  C   C67       1.0  0.17508  0.23282  0.26107  1.0000
  C   C68       1.0  0.16229  0.24550  0.26383  1.0000
  C   C69       1.0  0.10159  0.24956  0.26909  1.0000
  C   C70       1.0  0.07610  0.23674  0.26654  1.0000
  C   C71       1.0  0.06225  0.22277  0.34137  1.0000
  C   C72       1.0  0.07507  0.22268  0.41964  1.0000
  C   C73       1.0  0.10055  0.23552  0.42209  1.0000
  C   C74       1.0  0.15152  0.30044  0.42915  1.0000
  C   C75       1.0  0.16398  0.32590  0.43332  1.0000
  C   C76       1.0  0.17894  0.34025  0.36126  1.0000
  C   C77       1.0  0.18006  0.32786  0.28333  1.0000
  C   C78       1.0  0.16741  0.30240  0.27889  1.0000
  H   H13       1.0  0.06764  0.23757  0.20883  1.0000
  H   H14       1.0  0.11091  0.25926  0.21332  1.0000
  H   H15       1.0  0.10906  0.23494  0.47995  1.0000
  H   H16       1.0  0.06586  0.21291  0.47550  1.0000
  H   H17       1.0  0.15184  0.24224  0.48735  1.0000
  H   H18       1.0  0.17271  0.21992  0.48250  1.0000
  H   H19       1.0  0.14113  0.29080  0.48317  1.0000
  H   H20       1.0  0.16198  0.33395  0.49003  1.0000
  H   H21       1.0  0.19048  0.33738  0.22912  1.0000
  H   H22       1.0  0.16879  0.29429  0.22125  1.0000
  H   H23       1.0  0.15951  0.25206  0.20455  1.0000
  H   H24       1.0  0.18172  0.23120  0.19995  1.0000
  N   N26       1.0  0.74998  0.87069  0.34754  1.0000
  C   C79       1.0  0.76300  0.85778  0.34560  1.0000
  C   C80       1.0  0.72407  0.85750  0.35023  1.0000
  C   C81       1.0  0.76281  0.89663  0.34465  1.0000
  C   C82       1.0  0.77354  0.91065  0.42332  1.0000
  C   C83       1.0  0.78644  0.93614  0.42016  1.0000
  C   C84       1.0  0.78919  0.94887  0.33810  1.0000
  C   C85       1.0  0.77777  0.93476  0.26012  1.0000
  C   C86       1.0  0.76515  0.90929  0.26306  1.0000
  C   C87       1.0  0.76282  0.84485  0.26742  1.0000
  C   C88       1.0  0.77570  0.83226  0.26453  1.0000
  C   C89       1.0  0.78952  0.83215  0.33953  1.0000
  C   C90       1.0  0.78925  0.84467  0.41848  1.0000
  C   C91       1.0  0.77632  0.85722  0.42133  1.0000
  C   C92       1.0  0.71166  0.84578  0.43059  1.0000
  C   C93       1.0  0.68620  0.83293  0.43448  1.0000
  C   C94       1.0  0.67182  0.83118  0.35829  1.0000
  C   C95       1.0  0.68439  0.84254  0.27732  1.0000
  C   C96       1.0  0.70986  0.85541  0.27345  1.0000
  H   H25       1.0  0.77500  0.82314  0.20646  1.0000
  H   H26       1.0  0.75329  0.84467  0.21141  1.0000
  H   H27       1.0  0.77666  0.86600  0.47971  1.0000
  H   H28       1.0  0.79887  0.84504  0.47458  1.0000
  H   H29       1.0  0.77201  0.90228  0.48407  1.0000
  H   H30       1.0  0.79417  0.94544  0.47869  1.0000
  H   H31       1.0  0.72125  0.84667  0.48745  1.0000
  H   H32       1.0  0.67813  0.82462  0.49415  1.0000
  H   H33       1.0  0.67499  0.84192  0.22021  1.0000
  H   H34       1.0  0.71805  0.86327  0.21349  1.0000
  H   H35       1.0  0.75769  0.89994  0.20451  1.0000
  H   H36       1.0  0.77846  0.94300  0.19978  1.0000
  N   N27       1.0  0.14135  0.87154  0.34981  1.0000
  C   C97       1.0  0.15425  0.89747  0.34773  1.0000
  C   C98       1.0  0.15448  0.85873  0.35285  1.0000
  C   C99       1.0  0.11541  0.85855  0.34739  1.0000
  C   C100      1.0  0.10147  0.85408  0.42714  1.0000
  C   C101      1.0  0.07598  0.84165  0.42422  1.0000
  C   C102      1.0  0.06317  0.83303  0.34137  1.0000
  C   C103      1.0  0.07723  0.83691  0.26211  1.0000
  C   C104      1.0  0.10270  0.84964  0.26485  1.0000
  C   C105      1.0  0.16748  0.91026  0.27011  1.0000
  C   C106      1.0  0.18013  0.93574  0.26752  1.0000
  C   C107      1.0  0.18005  0.94960  0.34238  1.0000
  C   C108      1.0  0.16717  0.93678  0.42071  1.0000
  C   C109      1.0  0.15453  0.91130  0.42319  1.0000
  C   C110      1.0  0.16817  0.86001  0.43019  1.0000
  C   C111      1.0  0.18110  0.84747  0.43414  1.0000
  C   C112      1.0  0.18066  0.83275  0.36146  1.0000
  C   C113      1.0  0.16736  0.83192  0.28325  1.0000
  C   C114      1.0  0.15459  0.84461  0.27910  1.0000
  H   H37       1.0  0.18941  0.94419  0.20977  1.0000
  H   H38       1.0  0.16784  0.90093  0.21431  1.0000
  H   H39       1.0  0.14546  0.90280  0.48108  1.0000
  H   H40       1.0  0.16662  0.94600  0.47658  1.0000
  H   H41       1.0  0.10992  0.85999  0.48842  1.0000
  H   H42       1.0  0.06672  0.83920  0.48362  1.0000
  H   H43       1.0  0.16880  0.87022  0.48464  1.0000
  H   H44       1.0  0.19097  0.84922  0.49118  1.0000
  H   H45       1.0  0.16659  0.82167  0.22864  1.0000
  H   H46       1.0  0.14526  0.84344  0.22127  1.0000
  H   H47       1.0  0.11203  0.85243  0.20554  1.0000
  H   H48       1.0  0.06895  0.83034  0.20095  1.0000
  N   N28       1.0  0.88067  0.74084  0.35409  1.0000
  C   C115      1.0  0.90664  0.75447  0.34955  1.0000
  C   C116      1.0  0.86746  0.71454  0.35230  1.0000
  C   C117      1.0  0.86867  0.75478  0.34860  1.0000
  C   C118      1.0  0.86458  0.76495  0.42714  1.0000
  C   C119      1.0  0.85215  0.77798  0.42266  1.0000
  C   C120      1.0  0.84304  0.78133  0.33945  1.0000
  C   C121      1.0  0.84667  0.77058  0.26135  1.0000
  C   C122      1.0  0.85948  0.75792  0.26552  1.0000
  C   C123      1.0  0.91920  0.75526  0.26940  1.0000
  C   C124      1.0  0.94468  0.76810  0.26593  1.0000
  C   C125      1.0  0.95878  0.78089  0.34226  1.0000
  C   C126      1.0  0.94616  0.77970  0.42291  1.0000
  C   C127      1.0  0.92069  0.76681  0.42639  1.0000
  C   C128      1.0  0.87862  0.70082  0.37438  1.0000
  C   C129      1.0  0.86579  0.67533  0.37609  1.0000
  C   C130      1.0  0.84085  0.66199  0.35683  1.0000
  C   C131      1.0  0.82961  0.67540  0.33318  1.0000
  C   C132      1.0  0.84248  0.70087  0.33197  1.0000
  H   H49       1.0  0.95296  0.76798  0.20664  1.0000
  H   H50       1.0  0.90971  0.74628  0.21279  1.0000
  H   H51       1.0  0.91234  0.76631  0.48618  1.0000
  H   H52       1.0  0.95552  0.78850  0.48008  1.0000
  H   H53       1.0  0.87056  0.76275  0.48883  1.0000
  H   H54       1.0  0.84983  0.78515  0.48133  1.0000
  H   H55       1.0  0.89645  0.70940  0.39130  1.0000
  H   H56       1.0  0.87476  0.66649  0.39401  1.0000
  H   H57       1.0  0.81169  0.66663  0.31700  1.0000
  H   H58       1.0  0.83311  0.70937  0.31597  1.0000
  H   H59       1.0  0.86158  0.75038  0.20752  1.0000
  H   H60       1.0  0.83959  0.77152  0.20025  1.0000
  N   N29       1.0  0.27088  0.13215  0.34863  1.0000
  C   C133      1.0  0.25778  0.14497  0.34626  1.0000
  C   C134      1.0  0.29681  0.14534  0.35228  1.0000
  C   C135      1.0  0.25798  0.10621  0.34655  1.0000
  C   C136      1.0  0.24877  0.09230  0.42652  1.0000
  C   C137      1.0  0.23580  0.06681  0.42380  1.0000
  C   C138      1.0  0.23148  0.05396  0.34096  1.0000
  C   C139      1.0  0.24143  0.06800  0.26149  1.0000
  C   C140      1.0  0.25404  0.09347  0.26401  1.0000
  C   C141      1.0  0.25836  0.15833  0.26881  1.0000
  C   C142      1.0  0.24557  0.17102  0.26622  1.0000
  C   C143      1.0  0.23153  0.17086  0.34092  1.0000
  C   C144      1.0  0.23133  0.15785  0.41905  1.0000
  C   C145      1.0  0.24413  0.14517  0.42151  1.0000
  C   C146      1.0  0.30910  0.15980  0.42831  1.0000
  C   C147      1.0  0.33456  0.17287  0.43265  1.0000
  C   C148      1.0  0.34898  0.17173  0.36201  1.0000
  C   C149      1.0  0.33665  0.15765  0.28506  1.0000
  C   C150      1.0  0.31119  0.14481  0.28029  1.0000
  H   H61       1.0  0.24650  0.18040  0.20865  1.0000
  H   H62       1.0  0.26814  0.15877  0.21320  1.0000
  H   H63       1.0  0.24348  0.13602  0.47930  1.0000
  H   H64       1.0  0.22151  0.15725  0.47481  1.0000
  H   H65       1.0  0.25142  0.10079  0.48779  1.0000
  H   H66       1.0  0.22919  0.05758  0.48336  1.0000
  H   H67       1.0  0.29943  0.16096  0.48135  1.0000
  H   H68       1.0  0.34255  0.18341  0.48840  1.0000
  H   H69       1.0  0.34621  0.15634  0.23186  1.0000
  H   H70       1.0  0.30314  0.13490  0.22340  1.0000
  H   H71       1.0  0.26043  0.10278  0.20458  1.0000
  H   H72       1.0  0.23969  0.05971  0.20033  1.0000
  N   N30       1.0  0.87973  0.13124  0.34763  1.0000
  C   C151      1.0  0.86691  0.10532  0.34476  1.0000
  C   C152      1.0  0.86653  0.14398  0.35133  1.0000
  C   C153      1.0  0.90566  0.14427  0.34560  1.0000
  C   C154      1.0  0.91956  0.14906  0.42565  1.0000
  C   C155      1.0  0.94505  0.16155  0.42294  1.0000
  C   C156      1.0  0.95790  0.16995  0.34005  1.0000
  C   C157      1.0  0.94388  0.16575  0.26049  1.0000
  C   C158      1.0  0.91841  0.15291  0.26299  1.0000
  C   C159      1.0  0.85333  0.09262  0.26761  1.0000
  C   C160      1.0  0.84060  0.06714  0.26472  1.0000
  C   C161      1.0  0.84100  0.05319  0.33869  1.0000
  C   C162      1.0  0.85424  0.06592  0.41656  1.0000
  C   C163      1.0  0.86693  0.09140  0.41939  1.0000
  C   C164      1.0  0.85163  0.14138  0.42641  1.0000
  C   C165      1.0  0.83848  0.15368  0.43059  1.0000
  C   C166      1.0  0.84003  0.16967  0.36094  1.0000
  C   C167      1.0  0.85458  0.17187  0.28494  1.0000
  C   C168      1.0  0.86744  0.15927  0.28016  1.0000
  H   H73       1.0  0.83099  0.05876  0.20748  1.0000
  H   H74       1.0  0.85269  0.10201  0.21252  1.0000
  H   H75       1.0  0.87624  0.09983  0.47698  1.0000
  H   H76       1.0  0.85500  0.05665  0.47185  1.0000
  H   H77       1.0  0.91107  0.14332  0.48695  1.0000
  H   H78       1.0  0.95428  0.16424  0.48257  1.0000
  H   H79       1.0  0.85014  0.13021  0.47873  1.0000
  H   H80       1.0  0.82753  0.15071  0.48539  1.0000
  H   H81       1.0  0.85619  0.18303  0.23237  1.0000
  H   H82       1.0  0.87767  0.16146  0.22392  1.0000
  H   H83       1.0  0.90910  0.14991  0.20350  1.0000
  H   H84       1.0  0.95217  0.17221  0.19927  1.0000
  N   N31       1.0  0.27059  0.52274  0.35851  1.0000
  C   C169      1.0  0.29607  0.53682  0.37636  1.0000
  C   C170      1.0  0.25738  0.49684  0.36009  1.0000
  C   C171      1.0  0.25944  0.53671  0.33497  1.0000
  C   C172      1.0  0.26987  0.55458  0.26667  1.0000
  C   C173      1.0  0.26609  0.57441  0.26535  1.0000
  C   C174      1.0  0.25001  0.57636  0.32617  1.0000
  C   C175      1.0  0.23784  0.55709  0.38873  1.0000
  C   C176      1.0  0.24282  0.53802  0.39440  1.0000
  C   C177      1.0  0.31297  0.53551  0.31853  1.0000
  C   C178      1.0  0.33722  0.55424  0.31582  1.0000
  C   C179      1.0  0.34527  0.57595  0.36506  1.0000
  C   C180      1.0  0.32869  0.57616  0.42849  1.0000
  C   C181      1.0  0.30495  0.55669  0.43651  1.0000
  C   C182      1.0  0.25650  0.48300  0.28378  1.0000
  C   C183      1.0  0.24378  0.45751  0.28630  1.0000
  C   C184      1.0  0.23117  0.44464  0.36508  1.0000
  C   C185      1.0  0.23136  0.45861  0.44010  1.0000
  C   C186      1.0  0.24441  0.48408  0.43809  1.0000
  H   H85       1.0  0.34867  0.55230  0.27320  1.0000
  H   H86       1.0  0.30741  0.52162  0.27343  1.0000
  H   H87       1.0  0.29320  0.55884  0.47704  1.0000
  H   H88       1.0  0.33320  0.59134  0.46553  1.0000
  H   H89       1.0  0.28312  0.55515  0.22613  1.0000
  H   H90       1.0  0.27706  0.58852  0.22443  1.0000
  H   H91       1.0  0.26532  0.49152  0.22548  1.0000
  H   H92       1.0  0.24406  0.44831  0.22991  1.0000
  H   H93       1.0  0.22184  0.45027  0.49748  1.0000
  H   H94       1.0  0.24440  0.49338  0.49451  1.0000
  H   H95       1.0  0.23568  0.52613  0.44718  1.0000
  H   H96       1.0  0.22627  0.55758  0.43542  1.0000
  N   N32       1.0  0.48899  0.74026  0.35804  1.0000
  C   C187      1.0  0.47493  0.75169  0.37611  1.0000
  C   C188      1.0  0.51492  0.75294  0.35940  1.0000
  C   C189      1.0  0.47498  0.71514  0.33442  1.0000
  C   C190      1.0  0.45715  0.70777  0.26599  1.0000
  C   C191      1.0  0.43724  0.68419  0.26474  1.0000
  C   C192      1.0  0.43524  0.66610  0.32537  1.0000
  C   C193      1.0  0.45451  0.67311  0.38782  1.0000
  C   C194      1.0  0.47358  0.69715  0.39378  1.0000
  C   C195      1.0  0.47615  0.76994  0.31875  1.0000
  C   C196      1.0  0.45740  0.77543  0.31648  1.0000
  C   C197      1.0  0.43572  0.76172  0.36583  1.0000
  C   C198      1.0  0.43557  0.74491  0.42897  1.0000
  C   C199      1.0  0.45501  0.74058  0.43612  1.0000
  C   C200      1.0  0.52877  0.76684  0.28462  1.0000
  C   C201      1.0  0.55426  0.77959  0.28706  1.0000
  C   C202      1.0  0.56719  0.77885  0.36406  1.0000
  C   C203      1.0  0.55320  0.76406  0.43716  1.0000
  C   C204      1.0  0.52774  0.75173  0.43550  1.0000
  H   H97       1.0  0.45932  0.78888  0.27421  1.0000
  H   H98       1.0  0.49001  0.77837  0.27364  1.0000
  H   H99       1.0  0.45295  0.72673  0.47678  1.0000
  H   H100      1.0  0.42041  0.73419  0.46604  1.0000
  H   H101      1.0  0.45654  0.72045  0.22570  1.0000
  H   H102      1.0  0.42313  0.68110  0.22392  1.0000
  H   H103      1.0  0.52026  0.76780  0.22736  1.0000
  H   H104      1.0  0.56342  0.78976  0.23185  1.0000
  H   H105      1.0  0.56153  0.76196  0.49278  1.0000
  H   H106      1.0  0.51849  0.74176  0.49085  1.0000
  H   H107      1.0  0.48546  0.70180  0.44649  1.0000
  H   H108      1.0  0.45398  0.66103  0.43446  1.0000
  N   N33       1.0  0.27145  0.74108  0.35957  1.0000
  C   C205      1.0  0.25998  0.71558  0.37705  1.0000
  C   C206      1.0  0.25875  0.75428  0.36081  1.0000
  C   C207      1.0  0.29654  0.75221  0.33573  1.0000
  C   C208      1.0  0.30395  0.74182  0.26722  1.0000
  C   C209      1.0  0.32755  0.74555  0.26606  1.0000
  C   C210      1.0  0.34559  0.76161  0.32690  1.0000
  C   C211      1.0  0.33851  0.77377  0.38955  1.0000
  C   C212      1.0  0.31445  0.76877  0.39534  1.0000
  C   C213      1.0  0.24178  0.69870  0.31918  1.0000
  C   C214      1.0  0.23622  0.67443  0.31644  1.0000
  C   C215      1.0  0.24984  0.66633  0.36568  1.0000
  C   C216      1.0  0.26666  0.68289  0.42905  1.0000
  C   C217      1.0  0.27103  0.70666  0.43685  1.0000
  C   C218      1.0  0.24612  0.75543  0.28391  1.0000
  C   C219      1.0  0.23334  0.76814  0.28616  1.0000
  C   C220      1.0  0.23274  0.78046  0.36529  1.0000
  C   C221      1.0  0.24618  0.77999  0.44097  1.0000
  C   C222      1.0  0.25863  0.76697  0.43917  1.0000
  H   H109      1.0  0.22283  0.66301  0.27377  1.0000
  H   H110      1.0  0.23346  0.70429  0.27417  1.0000
  H   H111      1.0  0.28485  0.71837  0.47777  1.0000
  H   H112      1.0  0.27729  0.67835  0.46620  1.0000
  H   H113      1.0  0.29130  0.72852  0.22683  1.0000
  H   H114      1.0  0.33069  0.73456  0.22521  1.0000
  H   H115      1.0  0.24605  0.74679  0.22541  1.0000
  H   H116      1.0  0.22410  0.76806  0.22934  1.0000
  H   H117      1.0  0.24707  0.78928  0.49871  1.0000
  H   H118      1.0  0.26772  0.76679  0.49599  1.0000
  H   H119      1.0  0.30972  0.77594  0.44805  1.0000
  H   H120      1.0  0.35057  0.78531  0.43630  1.0000
  N   N34       1.0  0.75002  0.47951  0.35696  1.0000
  C   C223      1.0  0.72454  0.46543  0.37510  1.0000
  C   C224      1.0  0.76323  0.50542  0.35845  1.0000
  C   C225      1.0  0.76119  0.46557  0.33321  1.0000
  C   C226      1.0  0.75068  0.44766  0.26508  1.0000
  C   C227      1.0  0.75454  0.42788  0.26340  1.0000
  C   C228      1.0  0.77074  0.42600  0.32382  1.0000
  C   C229      1.0  0.78297  0.44529  0.38619  1.0000
  C   C230      1.0  0.77791  0.46430  0.39222  1.0000
  C   C231      1.0  0.70751  0.46670  0.31791  1.0000
  C   C232      1.0  0.68327  0.44797  0.31566  1.0000
  C   C233      1.0  0.67531  0.42627  0.36481  1.0000
  C   C234      1.0  0.69199  0.42605  0.42768  1.0000
  C   C235      1.0  0.71576  0.44549  0.43495  1.0000
  C   C236      1.0  0.76314  0.51926  0.28373  1.0000
  C   C237      1.0  0.77581  0.54475  0.28634  1.0000
  C   C238      1.0  0.78946  0.55766  0.36341  1.0000
  C   C239      1.0  0.79035  0.54367  0.43634  1.0000
  C   C240      1.0  0.77724  0.51821  0.43458  1.0000
  H   H121      1.0  0.67173  0.44992  0.27356  1.0000
  H   H122      1.0  0.71293  0.48059  0.27294  1.0000
  H   H123      1.0  0.72756  0.44342  0.47548  1.0000
  H   H124      1.0  0.68754  0.41089  0.46477  1.0000
  H   H125      1.0  0.73739  0.44703  0.22467  1.0000
  H   H126      1.0  0.74353  0.41373  0.22269  1.0000
  H   H127      1.0  0.75368  0.51077  0.22646  1.0000
  H   H128      1.0  0.77474  0.55391  0.23125  1.0000
  H   H129      1.0  0.80082  0.55198  0.49186  1.0000
  H   H130      1.0  0.77800  0.50896  0.48984  1.0000
  H   H131      1.0  0.78514  0.47618  0.44493  1.0000
  H   H132      1.0  0.79461  0.44485  0.43263  1.0000
  N   N35       1.0  0.53154  0.26211  0.35907  1.0000
  C   C241      1.0  0.54557  0.25064  0.37697  1.0000
  C   C242      1.0  0.50563  0.24950  0.36078  1.0000
  C   C243      1.0  0.54556  0.28722  0.33533  1.0000
  C   C244      1.0  0.56337  0.29453  0.26685  1.0000
  C   C245      1.0  0.58325  0.31811  0.26527  1.0000
  C   C246      1.0  0.58528  0.33622  0.32588  1.0000
  C   C247      1.0  0.56607  0.32924  0.38857  1.0000
  C   C248      1.0  0.54696  0.30521  0.39464  1.0000
  C   C249      1.0  0.54422  0.23236  0.31951  1.0000
  C   C250      1.0  0.56293  0.22681  0.31703  1.0000
  C   C251      1.0  0.58465  0.24048  0.36623  1.0000
  C   C252      1.0  0.58490  0.25734  0.42938  1.0000
  C   C253      1.0  0.56549  0.26171  0.43691  1.0000
  C   C254      1.0  0.49171  0.23598  0.28549  1.0000
  C   C255      1.0  0.46622  0.22332  0.28817  1.0000
  C   C256      1.0  0.45341  0.22376  0.36604  1.0000
  C   C257      1.0  0.46746  0.23813  0.43982  1.0000
  C   C258      1.0  0.49292  0.25041  0.43777  1.0000
  H   H133      1.0  0.56096  0.21335  0.27473  1.0000
  H   H134      1.0  0.53032  0.22397  0.27452  1.0000
  H   H135      1.0  0.56760  0.27557  0.47762  1.0000
  H   H136      1.0  0.60007  0.26800  0.46652  1.0000
  H   H137      1.0  0.56386  0.28184  0.22620  1.0000
  H   H138      1.0  0.59730  0.32122  0.22406  1.0000
  H   H139      1.0  0.50016  0.23521  0.22774  1.0000
  H   H140      1.0  0.45698  0.21340  0.23260  1.0000
  H   H141      1.0  0.45919  0.23991  0.49629  1.0000
  H   H142      1.0  0.50225  0.26011  0.49349  1.0000
  H   H143      1.0  0.53513  0.30057  0.44753  1.0000
  H   H144      1.0  0.56663  0.34134  0.43521  1.0000
  N   N36       1.0  0.74892  0.26134  0.35861  1.0000
  C   C259      1.0  0.76045  0.28680  0.37634  1.0000
  C   C260      1.0  0.76161  0.24817  0.35973  1.0000
  C   C261      1.0  0.72385  0.25024  0.33473  1.0000
  C   C262      1.0  0.71641  0.26074  0.26680  1.0000
  C   C263      1.0  0.69278  0.25688  0.26582  1.0000
  C   C264      1.0  0.67478  0.24067  0.32645  1.0000
  C   C265      1.0  0.68193  0.22848  0.38872  1.0000
  C   C266      1.0  0.70602  0.23355  0.39422  1.0000
  C   C267      1.0  0.77870  0.30353  0.31826  1.0000
  C   C268      1.0  0.78438  0.32782  0.31514  1.0000
  C   C269      1.0  0.77086  0.33606  0.36426  1.0000
  C   C270      1.0  0.75400  0.31963  0.42783  1.0000
  C   C271      1.0  0.74952  0.29583  0.43611  1.0000
  C   C272      1.0  0.77218  0.24504  0.28038  1.0000
  C   C273      1.0  0.78499  0.23236  0.28243  1.0000
  C   C274      1.0  0.78774  0.22203  0.36372  1.0000
  C   C275      1.0  0.77645  0.22473  0.44235  1.0000
  C   C276      1.0  0.76392  0.23766  0.44069  1.0000
  H   H145      1.0  0.79778  0.33916  0.27230  1.0000
  H   H146      1.0  0.78688  0.29776  0.27325  1.0000
  H   H147      1.0  0.73562  0.28415  0.47683  1.0000
  H   H148      1.0  0.74342  0.32426  0.46479  1.0000
  H   H149      1.0  0.72903  0.27402  0.22626  1.0000
  H   H150      1.0  0.68955  0.26782  0.22505  1.0000
  H   H151      1.0  0.77082  0.25232  0.22038  1.0000
  H   H152      1.0  0.79280  0.23114  0.22356  1.0000
  H   H153      1.0  0.77713  0.21705  0.50240  1.0000
  H   H154      1.0  0.75630  0.23931  0.49931  1.0000
  H   H155      1.0  0.71086  0.22639  0.44669  1.0000
  H   H156      1.0  0.66992  0.21690  0.43549  1.0000
  C   C277      1.0  0.21861  0.41858  0.36814  1.0000
  C   C278      1.0  0.19239  0.36626  0.36629  1.0000
  C   C279      1.0  0.21235  0.37936  0.42609  1.0000
  C   C280      1.0  0.22527  0.40511  0.42695  1.0000
  N   N37       1.0  0.22101  0.36784  0.48499  1.0000
  N   N38       1.0  0.24543  0.41620  0.48612  1.0000
  O   O49       1.0  0.20693  0.35693  0.54945  1.0000
  O   O50       1.0  0.24218  0.42636  0.55299  1.0000
  O   O51       1.0  0.22661  0.35411  0.44434  1.0000
  O   O52       1.0  0.26479  0.43033  0.44650  1.0000
  C   C281      1.0  0.59328  0.79227  0.36689  1.0000
  C   C282      1.0  0.64569  0.81857  0.36289  1.0000
  C   C283      1.0  0.63275  0.82372  0.42951  1.0000
  C   C284      1.0  0.60692  0.81085  0.43156  1.0000
  N   N39       1.0  0.64656  0.84269  0.49139  1.0000
  N   N40       1.0  0.59603  0.81857  0.49718  1.0000
  O   O53       1.0  0.64326  0.83565  0.57257  1.0000
  O   O54       1.0  0.58623  0.80395  0.56117  1.0000
  O   O55       1.0  0.64283  0.86006  0.48321  1.0000
  O   O56       1.0  0.58178  0.82462  0.46401  1.0000
  C   C285      1.0  0.21921  0.79299  0.36811  1.0000
  C   C286      1.0  0.19315  0.81924  0.36624  1.0000
  C   C287      1.0  0.18588  0.79887  0.42431  1.0000
  C   C288      1.0  0.19870  0.78595  0.42519  1.0000
  N   N41       1.0  0.16532  0.78987  0.48141  1.0000
  N   N42       1.0  0.18923  0.76539  0.48243  1.0000
  O   O57       1.0  0.14627  0.78448  0.43910  1.0000
  O   O58       1.0  0.20226  0.76814  0.55004  1.0000
  O   O59       1.0  0.16805  0.80362  0.54656  1.0000
  O   O60       1.0  0.18419  0.74630  0.44108  1.0000
  C   C289      1.0  0.80201  0.58373  0.36640  1.0000
  C   C290      1.0  0.82752  0.63602  0.36196  1.0000
  C   C291      1.0  0.81003  0.62300  0.43074  1.0000
  C   C292      1.0  0.79732  0.59726  0.43245  1.0000
  N   N43       1.0  0.80519  0.63463  0.50306  1.0000
  N   N44       1.0  0.77906  0.58633  0.49954  1.0000
  O   O61       1.0  0.82358  0.64836  0.54868  1.0000
  O   O62       1.0  0.75863  0.57184  0.46799  1.0000
  O   O63       1.0  0.79460  0.64560  0.47793  1.0000
  O   O64       1.0  0.78442  0.57689  0.56327  1.0000
  C   C293      1.0  0.42734  0.21036  0.36931  1.0000
  C   C294      1.0  0.37500  0.18434  0.36739  1.0000
  C   C295      1.0  0.38807  0.17830  0.43068  1.0000
  C   C296      1.0  0.41382  0.19109  0.43158  1.0000
  N   N45       1.0  0.37653  0.15896  0.49327  1.0000
  N   N46       1.0  0.42484  0.18280  0.49453  1.0000
  O   O65       1.0  0.36589  0.16313  0.55603  1.0000
  O   O66       1.0  0.43911  0.17716  0.45862  1.0000
  O   O67       1.0  0.36262  0.13911  0.45625  1.0000
  O   O68       1.0  0.43472  0.19692  0.55986  1.0000
  C   C297      1.0  0.80132  0.20942  0.36623  1.0000
  C   C298      1.0  0.82731  0.18299  0.36608  1.0000
  C   C299      1.0  0.83249  0.20136  0.43184  1.0000
  C   C300      1.0  0.81965  0.21435  0.43170  1.0000
  N   N47       1.0  0.85109  0.20855  0.49727  1.0000
  N   N48       1.0  0.82527  0.23328  0.49438  1.0000
  O   O69       1.0  0.87137  0.21493  0.46324  1.0000
  O   O70       1.0  0.84639  0.25052  0.48528  1.0000
  O   O71       1.0  0.84630  0.19321  0.55851  1.0000
  O   O72       1.0  0.82185  0.22613  0.57546  1.0000
  C   C301      1.0  0.22608  0.20492  0.38600  1.0000
  C   C302      1.0  0.21323  0.21749  0.38568  1.0000
  H   H157      1.0  0.22024  0.23331  0.42115  1.0000
  H   H158      1.0  0.24186  0.21203  0.42179  1.0000
  C   C303      1.0  0.80745  0.01369  0.38672  1.0000
  C   C304      1.0  0.79485  0.98828  0.38644  1.0000
  H   H159      1.0  0.77946  0.97947  0.42441  1.0000
  H   H160      1.0  0.80076  0.02238  0.42495  1.0000
  C   C305      1.0  0.99825  0.78603  0.38629  1.0000
  C   C306      1.0  0.02366  0.79875  0.38600  1.0000
  H   H161      1.0  0.03242  0.79158  0.42090  1.0000
  H   H162      1.0  0.98952  0.77014  0.42147  1.0000
  C   C307      1.0  0.79567  0.79864  0.38619  1.0000
  C   C308      1.0  0.80872  0.78628  0.38589  1.0000
  H   H163      1.0  0.80211  0.77074  0.42296  1.0000
  H   H164      1.0  0.78014  0.79164  0.42348  1.0000
  C   C309      1.0  0.21405  0.98920  0.38698  1.0000
  C   C310      1.0  0.22654  0.01461  0.38645  1.0000
  H   H165      1.0  0.24241  0.02350  0.42164  1.0000
  H   H166      1.0  0.22127  0.98060  0.42263  1.0000
  C   C311      1.0  0.02268  0.21724  0.38588  1.0000
  C   C312      1.0  0.99727  0.20434  0.38537  1.0000
  H   H167      1.0  0.98839  0.21135  0.42043  1.0000
  H   H168      1.0  0.03129  0.23308  0.42139  1.0000
  C   C313      1.0  0.24874  0.60813  0.41668  1.0000
  C   C314      1.0  0.24802  0.62956  0.42627  1.0000
  H   H169      1.0  0.24832  0.63565  0.49086  1.0000
  H   H170      1.0  0.25013  0.60013  0.47480  1.0000
  C   C315      1.0  0.40344  0.63310  0.41592  1.0000
  C   C316      1.0  0.38201  0.61094  0.42556  1.0000
  H   H171      1.0  0.37595  0.60514  0.49017  1.0000
  H   H172      1.0  0.41147  0.64247  0.47403  1.0000
  C   C317      1.0  0.37858  0.76273  0.41728  1.0000
  C   C318      1.0  0.40073  0.76341  0.42674  1.0000
  H   H173      1.0  0.40653  0.76310  0.49129  1.0000
  H   H174      1.0  0.36922  0.76135  0.47544  1.0000
  C   C319      1.0  0.77209  0.39434  0.41461  1.0000
  C   C320      1.0  0.77284  0.37292  0.42441  1.0000
  H   H175      1.0  0.77261  0.36691  0.48908  1.0000
  H   H176      1.0  0.77076  0.40239  0.47266  1.0000
  C   C321      1.0  0.61717  0.36916  0.41621  1.0000
  C   C322      1.0  0.63863  0.39130  0.42570  1.0000
  H   H177      1.0  0.64477  0.39708  0.49025  1.0000
  H   H178      1.0  0.60920  0.35977  0.47435  1.0000
  C   C323      1.0  0.64177  0.23939  0.41720  1.0000
  C   C324      1.0  0.61962  0.23869  0.42684  1.0000
  H   H179      1.0  0.61384  0.23901  0.49144  1.0000
  H   H180      1.0  0.65117  0.24078  0.47527  1.0000
