data_image0
_chemical_formula_structural       C15H12C3HOH3C10H4C3H2C6HOHC15H12C3HOH3C10H4C3H2C6HOHC15H12C3HOH3C10H4C3H2C6HOHC15H12C3HOH3C10H4C3H2C6HOHC15H12C3HOH3C10H4C3H2C6HOHC15H12C3HOH3C10H4C3H2C6HOHC15H12C3HOH3C10H4C3H2C6HOHC15H12C3HOH3C10H4C3H2C6HOHC15H12C3HOH3C10H4C3H2C6HOH
_chemical_formula_sum              "C333 H216 O18"
_cell_length_a       36.4007
_cell_length_b       36.4013
_cell_length_c       15.0991
_cell_angle_alpha    90
_cell_angle_beta     90
_cell_angle_gamma    89.9301

_space_group_name_H-M_alt    "P 1"
_space_group_IT_number       1

loop_
  _space_group_symop_operation_xyz
  'x, y, z'

loop_
  _atom_site_type_symbol
  _atom_site_label
  _atom_site_symmetry_multiplicity
  _atom_site_fract_x
  _atom_site_fract_y
  _atom_site_fract_z
  _atom_site_occupancy
  C   C1        1.0  0.99617  0.24031  0.29137  1.0000
  C   C2        1.0  0.02972  0.25599  0.26397  1.0000
  C   C3        1.0  0.02987  0.28478  0.20215  1.0000
  C   C4        1.0  0.99678  0.29829  0.16435  1.0000
  C   C5        1.0  0.29674  0.28556  0.20214  1.0000
  C   C6        1.0  0.29628  0.25693  0.26427  1.0000
  C   C7        1.0  0.99700  0.99669  0.09889  1.0000
  C   C8        1.0  0.99667  0.02804  0.16539  1.0000
  C   C9        1.0  0.29660  0.04069  0.20336  1.0000
  C   C10       1.0  0.29607  0.06925  0.26568  1.0000
  C   C11       1.0  0.99594  0.08585  0.29233  1.0000
  C   C12       1.0  0.02957  0.07000  0.26576  1.0000
  C   C13       1.0  0.02974  0.04122  0.20390  1.0000
  C   C14       1.0  0.02873  0.99686  0.03342  1.0000
  C   C15       1.0  0.29894  0.33016  0.03249  1.0000
  H   H1        1.0  0.29511  0.05488  0.01736  1.0000
  H   H2        1.0  0.29598  0.27217  0.01489  1.0000
  H   H3        1.0  0.03182  0.27222  0.01546  1.0000
  H   H4        1.0  0.03250  0.05492  0.01860  1.0000
  H   H5        1.0  0.05465  0.03177  0.18246  1.0000
  H   H6        1.0  0.05398  0.08269  0.27996  1.0000
  H   H7        1.0  0.27137  0.08132  0.28047  1.0000
  H   H8        1.0  0.27191  0.03091  0.18152  1.0000
  H   H9        1.0  0.27202  0.29543  0.18050  1.0000
  H   H10       1.0  0.05476  0.29424  0.18077  1.0000
  H   H11       1.0  0.05413  0.24326  0.27822  1.0000
  H   H12       1.0  0.27154  0.24505  0.27934  1.0000
  C   C16       1.0  0.99556  0.12444  0.29765  1.0000
  C   C17       1.0  0.99342  0.14405  0.21671  1.0000
  C   C18       1.0  0.32632  0.18236  0.21775  1.0000
  H   H13       1.0  0.32463  0.19601  0.15844  1.0000
  O   O1        1.0  0.99074  0.12701  0.13646  1.0000
  H   H14       1.0  0.01587  0.12534  0.11289  1.0000
  H   H15       1.0  0.19653  0.32558  0.03758  1.0000
  H   H16       1.0  0.13168  0.32555  0.03835  1.0000
  C   C19       1.0  0.28564  0.03010  0.66191  1.0000
  C   C20       1.0  0.25676  0.03024  0.60037  1.0000
  C   C21       1.0  0.24103  0.33020  0.57183  1.0000
  C   C22       1.0  0.25773  0.29685  0.59776  1.0000
  C   C23       1.0  0.28619  0.29699  0.66039  1.0000
  C   C24       1.0  0.04160  0.29705  0.66122  1.0000
  C   C25       1.0  0.07019  0.29695  0.59895  1.0000
  C   C26       1.0  0.08669  0.99701  0.57293  1.0000
  C   C27       1.0  0.07091  0.03039  0.60148  1.0000
  C   C28       1.0  0.04207  0.03016  0.66316  1.0000
  H   H17       1.0  0.24422  0.05475  0.58607  1.0000
  H   H18       1.0  0.24569  0.27222  0.58252  1.0000
  H   H19       1.0  0.08229  0.27234  0.58342  1.0000
  H   H20       1.0  0.08353  0.05487  0.58774  1.0000
  C   C29       1.0  0.32878  0.20183  0.29839  1.0000
  C   C30       1.0  0.33174  0.18244  0.37901  1.0000
  C   C31       1.0  0.99835  0.14369  0.37863  1.0000
  H   H21       1.0  0.00041  0.12972  0.43721  1.0000
  H   H22       1.0  0.33392  0.19627  0.43773  1.0000
  C   C32       1.0  0.12516  0.32969  0.56495  1.0000
  C   C33       1.0  0.14490  0.32713  0.64516  1.0000
  C   C34       1.0  0.18310  0.32714  0.64467  1.0000
  C   C35       1.0  0.20256  0.32961  0.56395  1.0000
  C   C36       1.0  0.18313  0.33216  0.48288  1.0000
  C   C37       1.0  0.14429  0.33251  0.48385  1.0000
  H   H23       1.0  0.13009  0.33481  0.42563  1.0000
  O   O2        1.0  0.20104  0.33567  0.40423  1.0000
  H   H24       1.0  0.21004  0.31101  0.38868  1.0000
  C   C38       1.0  0.99617  0.57365  0.29137  1.0000
  C   C39       1.0  0.02972  0.58932  0.26397  1.0000
  C   C40       1.0  0.02987  0.61811  0.20215  1.0000
  C   C41       1.0  0.99678  0.63163  0.16435  1.0000
  C   C42       1.0  0.29674  0.61889  0.20214  1.0000
  C   C43       1.0  0.29628  0.59026  0.26427  1.0000
  C   C44       1.0  0.99700  0.33002  0.09889  1.0000
  C   C45       1.0  0.99667  0.36137  0.16539  1.0000
  C   C46       1.0  0.29660  0.37402  0.20336  1.0000
  C   C47       1.0  0.29607  0.40259  0.26568  1.0000
  C   C48       1.0  0.99594  0.41919  0.29233  1.0000
  C   C49       1.0  0.02957  0.40333  0.26576  1.0000
  C   C50       1.0  0.02974  0.37455  0.20390  1.0000
  C   C51       1.0  0.02873  0.33019  0.03342  1.0000
  C   C52       1.0  0.29894  0.66349  0.03249  1.0000
  H   H25       1.0  0.29511  0.38821  0.01736  1.0000
  H   H26       1.0  0.29598  0.60550  0.01489  1.0000
  H   H27       1.0  0.03182  0.60555  0.01546  1.0000
  H   H28       1.0  0.03250  0.38825  0.01860  1.0000
  H   H29       1.0  0.05465  0.36511  0.18246  1.0000
  H   H30       1.0  0.05398  0.41603  0.27996  1.0000
  H   H31       1.0  0.27137  0.41466  0.28047  1.0000
  H   H32       1.0  0.27191  0.36424  0.18152  1.0000
  H   H33       1.0  0.27202  0.62876  0.18050  1.0000
  H   H34       1.0  0.05476  0.62757  0.18077  1.0000
  H   H35       1.0  0.05413  0.57659  0.27822  1.0000
  H   H36       1.0  0.27154  0.57838  0.27934  1.0000
  C   C53       1.0  0.99556  0.45777  0.29765  1.0000
  C   C54       1.0  0.99342  0.47738  0.21671  1.0000
  C   C55       1.0  0.32632  0.51570  0.21775  1.0000
  H   H37       1.0  0.32463  0.52934  0.15844  1.0000
  O   O3        1.0  0.99074  0.46034  0.13646  1.0000
  H   H38       1.0  0.01587  0.45867  0.11289  1.0000
  H   H39       1.0  0.19653  0.65892  0.03758  1.0000
  H   H40       1.0  0.13168  0.65888  0.03835  1.0000
  C   C56       1.0  0.28564  0.36344  0.66191  1.0000
  C   C57       1.0  0.25676  0.36358  0.60037  1.0000
  C   C58       1.0  0.24103  0.66353  0.57183  1.0000
  C   C59       1.0  0.25773  0.63019  0.59776  1.0000
  C   C60       1.0  0.28619  0.63032  0.66039  1.0000
  C   C61       1.0  0.04160  0.63038  0.66122  1.0000
  C   C62       1.0  0.07020  0.63028  0.59895  1.0000
  C   C63       1.0  0.08669  0.33034  0.57293  1.0000
  C   C64       1.0  0.07091  0.36372  0.60148  1.0000
  C   C65       1.0  0.04207  0.36350  0.66316  1.0000
  H   H41       1.0  0.24422  0.38808  0.58607  1.0000
  H   H42       1.0  0.24569  0.60555  0.58252  1.0000
  H   H43       1.0  0.08229  0.60568  0.58342  1.0000
  H   H44       1.0  0.08353  0.38821  0.58774  1.0000
  C   C66       1.0  0.32878  0.53516  0.29839  1.0000
  C   C67       1.0  0.33174  0.51577  0.37901  1.0000
  C   C68       1.0  0.99835  0.47702  0.37864  1.0000
  H   H45       1.0  0.00041  0.46305  0.43721  1.0000
  H   H46       1.0  0.33392  0.52961  0.43773  1.0000
  C   C69       1.0  0.12516  0.66302  0.56495  1.0000
  C   C70       1.0  0.14490  0.66046  0.64516  1.0000
  C   C71       1.0  0.18310  0.66047  0.64467  1.0000
  C   C72       1.0  0.20256  0.66295  0.56395  1.0000
  C   C73       1.0  0.18313  0.66549  0.48288  1.0000
  C   C74       1.0  0.14429  0.66585  0.48385  1.0000
  H   H47       1.0  0.13009  0.66814  0.42563  1.0000
  O   O4        1.0  0.20104  0.66900  0.40423  1.0000
  H   H48       1.0  0.21004  0.64435  0.38868  1.0000
  C   C75       1.0  0.99617  0.90698  0.29137  1.0000
  C   C76       1.0  0.02972  0.92265  0.26397  1.0000
  C   C77       1.0  0.02987  0.95145  0.20215  1.0000
  C   C78       1.0  0.99678  0.96496  0.16435  1.0000
  C   C79       1.0  0.29674  0.95222  0.20214  1.0000
  C   C80       1.0  0.29628  0.92360  0.26427  1.0000
  C   C81       1.0  0.99700  0.66335  0.09889  1.0000
  C   C82       1.0  0.99667  0.69470  0.16539  1.0000
  C   C83       1.0  0.29660  0.70736  0.20336  1.0000
  C   C84       1.0  0.29607  0.73592  0.26568  1.0000
  C   C85       1.0  0.99594  0.75252  0.29233  1.0000
  C   C86       1.0  0.02957  0.73666  0.26576  1.0000
  C   C87       1.0  0.02974  0.70788  0.20390  1.0000
  C   C88       1.0  0.02873  0.66352  0.03342  1.0000
  C   C89       1.0  0.29894  0.99682  0.03249  1.0000
  H   H49       1.0  0.29511  0.72155  0.01736  1.0000
  H   H50       1.0  0.29598  0.93884  0.01489  1.0000
  H   H51       1.0  0.03182  0.93889  0.01546  1.0000
  H   H52       1.0  0.03250  0.72159  0.01860  1.0000
  H   H53       1.0  0.05465  0.69844  0.18246  1.0000
  H   H54       1.0  0.05398  0.74936  0.27996  1.0000
  H   H55       1.0  0.27137  0.74799  0.28047  1.0000
  H   H56       1.0  0.27191  0.69757  0.18152  1.0000
  H   H57       1.0  0.27202  0.96209  0.18050  1.0000
  H   H58       1.0  0.05476  0.96091  0.18077  1.0000
  H   H59       1.0  0.05413  0.90992  0.27822  1.0000
  H   H60       1.0  0.27154  0.91172  0.27934  1.0000
  C   C90       1.0  0.99556  0.79111  0.29765  1.0000
  C   C91       1.0  0.99342  0.81071  0.21671  1.0000
  C   C92       1.0  0.32632  0.84903  0.21775  1.0000
  H   H61       1.0  0.32463  0.86267  0.15844  1.0000
  O   O5        1.0  0.99074  0.79367  0.13646  1.0000
  H   H62       1.0  0.01587  0.79200  0.11289  1.0000
  H   H63       1.0  0.19653  0.99225  0.03758  1.0000
  H   H64       1.0  0.13168  0.99221  0.03835  1.0000
  C   C93       1.0  0.28564  0.69677  0.66191  1.0000
  C   C94       1.0  0.25676  0.69691  0.60037  1.0000
  C   C95       1.0  0.24103  0.99686  0.57183  1.0000
  C   C96       1.0  0.25773  0.96352  0.59776  1.0000
  C   C97       1.0  0.28619  0.96365  0.66039  1.0000
  C   C98       1.0  0.04160  0.96372  0.66122  1.0000
  C   C99       1.0  0.07020  0.96361  0.59895  1.0000
  C   C100      1.0  0.08669  0.66367  0.57293  1.0000
  C   C101      1.0  0.07091  0.69705  0.60148  1.0000
  C   C102      1.0  0.04207  0.69683  0.66316  1.0000
  H   H65       1.0  0.24422  0.72142  0.58607  1.0000
  H   H66       1.0  0.24569  0.93889  0.58252  1.0000
  H   H67       1.0  0.08229  0.93901  0.58342  1.0000
  H   H68       1.0  0.08353  0.72154  0.58774  1.0000
  C   C103      1.0  0.32878  0.86849  0.29839  1.0000
  C   C104      1.0  0.33174  0.84910  0.37901  1.0000
  C   C105      1.0  0.99835  0.81035  0.37863  1.0000
  H   H69       1.0  0.00041  0.79639  0.43721  1.0000
  H   H70       1.0  0.33392  0.86294  0.43773  1.0000
  C   C106      1.0  0.12516  0.99635  0.56495  1.0000
  C   C107      1.0  0.14490  0.99380  0.64516  1.0000
  C   C108      1.0  0.18310  0.99380  0.64467  1.0000
  C   C109      1.0  0.20256  0.99628  0.56395  1.0000
  C   C110      1.0  0.18313  0.99882  0.48288  1.0000
  C   C111      1.0  0.14429  0.99918  0.48385  1.0000
  H   H71       1.0  0.13009  0.00148  0.42563  1.0000
  O   O6        1.0  0.20104  0.00233  0.40423  1.0000
  H   H72       1.0  0.21004  0.97768  0.38868  1.0000
  C   C112      1.0  0.32950  0.24031  0.29137  1.0000
  C   C113      1.0  0.36305  0.25599  0.26397  1.0000
  C   C114      1.0  0.36320  0.28478  0.20215  1.0000
  C   C115      1.0  0.33011  0.29829  0.16435  1.0000
  C   C116      1.0  0.63007  0.28556  0.20214  1.0000
  C   C117      1.0  0.62961  0.25693  0.26427  1.0000
  C   C118      1.0  0.33033  0.99669  0.09889  1.0000
  C   C119      1.0  0.33001  0.02804  0.16539  1.0000
  C   C120      1.0  0.62993  0.04069  0.20336  1.0000
  C   C121      1.0  0.62940  0.06925  0.26568  1.0000
  C   C122      1.0  0.32927  0.08585  0.29233  1.0000
  C   C123      1.0  0.36291  0.07000  0.26576  1.0000
  C   C124      1.0  0.36307  0.04122  0.20390  1.0000
  C   C125      1.0  0.36207  0.99686  0.03342  1.0000
  C   C126      1.0  0.63228  0.33016  0.03249  1.0000
  H   H73       1.0  0.62844  0.05488  0.01736  1.0000
  H   H74       1.0  0.62931  0.27217  0.01489  1.0000
  H   H75       1.0  0.36515  0.27222  0.01546  1.0000
  H   H76       1.0  0.36584  0.05492  0.01860  1.0000
  H   H77       1.0  0.38798  0.03177  0.18246  1.0000
  H   H78       1.0  0.38732  0.08269  0.27996  1.0000
  H   H79       1.0  0.60470  0.08132  0.28047  1.0000
  H   H80       1.0  0.60524  0.03091  0.18152  1.0000
  H   H81       1.0  0.60536  0.29543  0.18050  1.0000
  H   H82       1.0  0.38809  0.29424  0.18077  1.0000
  H   H83       1.0  0.38747  0.24326  0.27822  1.0000
  H   H84       1.0  0.60488  0.24505  0.27934  1.0000
  C   C127      1.0  0.32890  0.12444  0.29765  1.0000
  C   C128      1.0  0.32676  0.14405  0.21671  1.0000
  C   C129      1.0  0.65966  0.18236  0.21775  1.0000
  H   H85       1.0  0.65797  0.19601  0.15844  1.0000
  O   O7        1.0  0.32407  0.12701  0.13646  1.0000
  H   H86       1.0  0.34920  0.12534  0.11289  1.0000
  H   H87       1.0  0.52987  0.32558  0.03758  1.0000
  H   H88       1.0  0.46501  0.32555  0.03835  1.0000
  C   C130      1.0  0.61898  0.03010  0.66191  1.0000
  C   C131      1.0  0.59010  0.03024  0.60037  1.0000
  C   C132      1.0  0.57436  0.33020  0.57183  1.0000
  C   C133      1.0  0.59107  0.29685  0.59776  1.0000
  C   C134      1.0  0.61953  0.29699  0.66039  1.0000
  C   C135      1.0  0.37493  0.29705  0.66122  1.0000
  C   C136      1.0  0.40353  0.29695  0.59895  1.0000
  C   C137      1.0  0.42003  0.99701  0.57293  1.0000
  C   C138      1.0  0.40425  0.03039  0.60148  1.0000
  C   C139      1.0  0.37540  0.03016  0.66316  1.0000
  H   H89       1.0  0.57755  0.05475  0.58607  1.0000
  H   H90       1.0  0.57903  0.27222  0.58252  1.0000
  H   H91       1.0  0.41563  0.27234  0.58342  1.0000
  H   H92       1.0  0.41686  0.05487  0.58774  1.0000
  C   C140      1.0  0.66211  0.20183  0.29839  1.0000
  C   C141      1.0  0.66507  0.18244  0.37901  1.0000
  C   C142      1.0  0.33168  0.14369  0.37863  1.0000
  H   H93       1.0  0.33374  0.12972  0.43721  1.0000
  H   H94       1.0  0.66725  0.19627  0.43773  1.0000
  C   C143      1.0  0.45850  0.32969  0.56495  1.0000
  C   C144      1.0  0.47823  0.32713  0.64516  1.0000
  C   C145      1.0  0.51644  0.32714  0.64467  1.0000
  C   C146      1.0  0.53589  0.32961  0.56395  1.0000
  C   C147      1.0  0.51647  0.33216  0.48288  1.0000
  C   C148      1.0  0.47762  0.33251  0.48385  1.0000
  H   H95       1.0  0.46343  0.33481  0.42563  1.0000
  O   O8        1.0  0.53437  0.33567  0.40423  1.0000
  H   H96       1.0  0.54337  0.31101  0.38868  1.0000
  C   C149      1.0  0.32950  0.57365  0.29137  1.0000
  C   C150      1.0  0.36305  0.58932  0.26397  1.0000
  C   C151      1.0  0.36320  0.61811  0.20215  1.0000
  C   C152      1.0  0.33011  0.63163  0.16435  1.0000
  C   C153      1.0  0.63007  0.61889  0.20214  1.0000
  C   C154      1.0  0.62961  0.59026  0.26427  1.0000
  C   C155      1.0  0.33034  0.33002  0.09889  1.0000
  C   C156      1.0  0.33001  0.36137  0.16539  1.0000
  C   C157      1.0  0.62993  0.37402  0.20336  1.0000
  C   C158      1.0  0.62940  0.40259  0.26568  1.0000
  C   C159      1.0  0.32927  0.41919  0.29233  1.0000
  C   C160      1.0  0.36291  0.40333  0.26576  1.0000
  C   C161      1.0  0.36307  0.37455  0.20390  1.0000
  C   C162      1.0  0.36207  0.33019  0.03342  1.0000
  C   C163      1.0  0.63228  0.66349  0.03249  1.0000
  H   H97       1.0  0.62844  0.38821  0.01736  1.0000
  H   H98       1.0  0.62931  0.60550  0.01489  1.0000
  H   H99       1.0  0.36515  0.60555  0.01546  1.0000
  H   H100      1.0  0.36584  0.38825  0.01860  1.0000
  H   H101      1.0  0.38798  0.36511  0.18246  1.0000
  H   H102      1.0  0.38732  0.41603  0.27996  1.0000
  H   H103      1.0  0.60470  0.41466  0.28047  1.0000
  H   H104      1.0  0.60524  0.36424  0.18152  1.0000
  H   H105      1.0  0.60536  0.62876  0.18050  1.0000
  H   H106      1.0  0.38809  0.62757  0.18077  1.0000
  H   H107      1.0  0.38747  0.57659  0.27822  1.0000
  H   H108      1.0  0.60488  0.57838  0.27934  1.0000
  C   C164      1.0  0.32890  0.45777  0.29765  1.0000
  C   C165      1.0  0.32676  0.47738  0.21671  1.0000
  C   C166      1.0  0.65966  0.51570  0.21775  1.0000
  H   H109      1.0  0.65797  0.52934  0.15844  1.0000
  O   O9        1.0  0.32407  0.46034  0.13646  1.0000
  H   H110      1.0  0.34920  0.45867  0.11289  1.0000
  H   H111      1.0  0.52987  0.65892  0.03758  1.0000
  H   H112      1.0  0.46501  0.65888  0.03835  1.0000
  C   C167      1.0  0.61898  0.36344  0.66191  1.0000
  C   C168      1.0  0.59010  0.36358  0.60037  1.0000
  C   C169      1.0  0.57436  0.66353  0.57183  1.0000
  C   C170      1.0  0.59107  0.63019  0.59776  1.0000
  C   C171      1.0  0.61953  0.63032  0.66039  1.0000
  C   C172      1.0  0.37493  0.63038  0.66122  1.0000
  C   C173      1.0  0.40353  0.63028  0.59895  1.0000
  C   C174      1.0  0.42003  0.33034  0.57293  1.0000
  C   C175      1.0  0.40425  0.36372  0.60148  1.0000
  C   C176      1.0  0.37540  0.36350  0.66316  1.0000
  H   H113      1.0  0.57755  0.38808  0.58607  1.0000
  H   H114      1.0  0.57903  0.60555  0.58252  1.0000
  H   H115      1.0  0.41563  0.60568  0.58342  1.0000
  H   H116      1.0  0.41686  0.38821  0.58774  1.0000
  C   C177      1.0  0.66211  0.53516  0.29839  1.0000
  C   C178      1.0  0.66507  0.51577  0.37901  1.0000
  C   C179      1.0  0.33168  0.47702  0.37864  1.0000
  H   H117      1.0  0.33374  0.46305  0.43721  1.0000
  H   H118      1.0  0.66725  0.52961  0.43773  1.0000
  C   C180      1.0  0.45850  0.66302  0.56495  1.0000
  C   C181      1.0  0.47823  0.66046  0.64516  1.0000
  C   C182      1.0  0.51644  0.66047  0.64467  1.0000
  C   C183      1.0  0.53589  0.66295  0.56395  1.0000
  C   C184      1.0  0.51647  0.66549  0.48288  1.0000
  C   C185      1.0  0.47762  0.66585  0.48385  1.0000
  H   H119      1.0  0.46343  0.66814  0.42563  1.0000
  O   O10       1.0  0.53437  0.66900  0.40423  1.0000
  H   H120      1.0  0.54337  0.64435  0.38868  1.0000
  C   C186      1.0  0.32950  0.90698  0.29137  1.0000
  C   C187      1.0  0.36305  0.92265  0.26397  1.0000
  C   C188      1.0  0.36320  0.95145  0.20215  1.0000
  C   C189      1.0  0.33011  0.96496  0.16435  1.0000
  C   C190      1.0  0.63007  0.95222  0.20214  1.0000
  C   C191      1.0  0.62961  0.92360  0.26427  1.0000
  C   C192      1.0  0.33034  0.66335  0.09889  1.0000
  C   C193      1.0  0.33001  0.69470  0.16539  1.0000
  C   C194      1.0  0.62993  0.70736  0.20336  1.0000
  C   C195      1.0  0.62940  0.73592  0.26568  1.0000
  C   C196      1.0  0.32927  0.75252  0.29233  1.0000
  C   C197      1.0  0.36291  0.73666  0.26576  1.0000
  C   C198      1.0  0.36307  0.70788  0.20390  1.0000
  C   C199      1.0  0.36207  0.66352  0.03342  1.0000
  C   C200      1.0  0.63228  0.99682  0.03249  1.0000
  H   H121      1.0  0.62844  0.72155  0.01736  1.0000
  H   H122      1.0  0.62931  0.93884  0.01489  1.0000
  H   H123      1.0  0.36515  0.93889  0.01546  1.0000
  H   H124      1.0  0.36584  0.72159  0.01860  1.0000
  H   H125      1.0  0.38798  0.69844  0.18246  1.0000
  H   H126      1.0  0.38732  0.74936  0.27996  1.0000
  H   H127      1.0  0.60470  0.74799  0.28047  1.0000
  H   H128      1.0  0.60524  0.69757  0.18152  1.0000
  H   H129      1.0  0.60536  0.96209  0.18050  1.0000
  H   H130      1.0  0.38809  0.96091  0.18077  1.0000
  H   H131      1.0  0.38747  0.90992  0.27822  1.0000
  H   H132      1.0  0.60488  0.91172  0.27934  1.0000
  C   C201      1.0  0.32890  0.79111  0.29765  1.0000
  C   C202      1.0  0.32676  0.81071  0.21671  1.0000
  C   C203      1.0  0.65966  0.84903  0.21775  1.0000
  H   H133      1.0  0.65797  0.86267  0.15844  1.0000
  O   O11       1.0  0.32407  0.79367  0.13646  1.0000
  H   H134      1.0  0.34920  0.79200  0.11289  1.0000
  H   H135      1.0  0.52987  0.99225  0.03758  1.0000
  H   H136      1.0  0.46501  0.99221  0.03835  1.0000
  C   C204      1.0  0.61898  0.69677  0.66191  1.0000
  C   C205      1.0  0.59010  0.69691  0.60037  1.0000
  C   C206      1.0  0.57436  0.99686  0.57183  1.0000
  C   C207      1.0  0.59107  0.96352  0.59776  1.0000
  C   C208      1.0  0.61953  0.96365  0.66039  1.0000
  C   C209      1.0  0.37493  0.96372  0.66122  1.0000
  C   C210      1.0  0.40353  0.96361  0.59895  1.0000
  C   C211      1.0  0.42003  0.66367  0.57293  1.0000
  C   C212      1.0  0.40425  0.69705  0.60148  1.0000
  C   C213      1.0  0.37540  0.69683  0.66316  1.0000
  H   H137      1.0  0.57755  0.72142  0.58607  1.0000
  H   H138      1.0  0.57903  0.93889  0.58252  1.0000
  H   H139      1.0  0.41563  0.93901  0.58342  1.0000
  H   H140      1.0  0.41686  0.72154  0.58774  1.0000
  C   C214      1.0  0.66211  0.86849  0.29839  1.0000
  C   C215      1.0  0.66507  0.84910  0.37901  1.0000
  C   C216      1.0  0.33168  0.81035  0.37863  1.0000
  H   H141      1.0  0.33374  0.79639  0.43721  1.0000
  H   H142      1.0  0.66725  0.86294  0.43773  1.0000
  C   C217      1.0  0.45850  0.99635  0.56495  1.0000
  C   C218      1.0  0.47823  0.99380  0.64516  1.0000
  C   C219      1.0  0.51644  0.99380  0.64467  1.0000
  C   C220      1.0  0.53589  0.99628  0.56395  1.0000
  C   C221      1.0  0.51647  0.99882  0.48288  1.0000
  C   C222      1.0  0.47762  0.99918  0.48385  1.0000
  H   H143      1.0  0.46343  0.00148  0.42563  1.0000
  O   O12       1.0  0.53437  0.00233  0.40423  1.0000
  H   H144      1.0  0.54337  0.97768  0.38868  1.0000
  C   C223      1.0  0.66283  0.24031  0.29137  1.0000
  C   C224      1.0  0.69639  0.25599  0.26397  1.0000
  C   C225      1.0  0.69654  0.28478  0.20215  1.0000
  C   C226      1.0  0.66344  0.29829  0.16435  1.0000
  C   C227      1.0  0.96340  0.28556  0.20214  1.0000
  C   C228      1.0  0.96295  0.25693  0.26427  1.0000
  C   C229      1.0  0.66367  0.99669  0.09889  1.0000
  C   C230      1.0  0.66334  0.02804  0.16539  1.0000
  C   C231      1.0  0.96327  0.04069  0.20336  1.0000
  C   C232      1.0  0.96273  0.06925  0.26568  1.0000
  C   C233      1.0  0.66260  0.08585  0.29233  1.0000
  C   C234      1.0  0.69624  0.07000  0.26576  1.0000
  C   C235      1.0  0.69641  0.04122  0.20390  1.0000
  C   C236      1.0  0.69540  0.99686  0.03342  1.0000
  C   C237      1.0  0.96561  0.33016  0.03249  1.0000
  H   H145      1.0  0.96177  0.05488  0.01736  1.0000
  H   H146      1.0  0.96264  0.27217  0.01489  1.0000
  H   H147      1.0  0.69848  0.27222  0.01546  1.0000
  H   H148      1.0  0.69917  0.05492  0.01860  1.0000
  H   H149      1.0  0.72131  0.03177  0.18246  1.0000
  H   H150      1.0  0.72065  0.08269  0.27996  1.0000
  H   H151      1.0  0.93804  0.08132  0.28047  1.0000
  H   H152      1.0  0.93857  0.03091  0.18152  1.0000
  H   H153      1.0  0.93869  0.29543  0.18050  1.0000
  H   H154      1.0  0.72143  0.29424  0.18077  1.0000
  H   H155      1.0  0.72080  0.24326  0.27822  1.0000
  H   H156      1.0  0.93821  0.24505  0.27934  1.0000
  C   C238      1.0  0.66223  0.12444  0.29765  1.0000
  C   C239      1.0  0.66009  0.14405  0.21671  1.0000
  C   C240      1.0  0.99299  0.18236  0.21775  1.0000
  H   H157      1.0  0.99130  0.19601  0.15844  1.0000
  O   O13       1.0  0.65740  0.12701  0.13646  1.0000
  H   H158      1.0  0.68254  0.12534  0.11289  1.0000
  H   H159      1.0  0.86320  0.32558  0.03758  1.0000
  H   H160      1.0  0.79835  0.32555  0.03835  1.0000
  C   C241      1.0  0.95231  0.03010  0.66191  1.0000
  C   C242      1.0  0.92343  0.03024  0.60037  1.0000
  C   C243      1.0  0.90769  0.33020  0.57183  1.0000
  C   C244      1.0  0.92440  0.29685  0.59776  1.0000
  C   C245      1.0  0.95286  0.29699  0.66039  1.0000
  C   C246      1.0  0.70826  0.29705  0.66122  1.0000
  C   C247      1.0  0.73686  0.29695  0.59895  1.0000
  C   C248      1.0  0.75336  0.99701  0.57293  1.0000
  C   C249      1.0  0.73758  0.03039  0.60148  1.0000
  C   C250      1.0  0.70873  0.03016  0.66316  1.0000
  H   H161      1.0  0.91089  0.05475  0.58607  1.0000
  H   H162      1.0  0.91236  0.27222  0.58252  1.0000
  H   H163      1.0  0.74896  0.27234  0.58342  1.0000
  H   H164      1.0  0.75020  0.05487  0.58774  1.0000
  C   C251      1.0  0.99544  0.20183  0.29839  1.0000
  C   C252      1.0  0.99841  0.18244  0.37901  1.0000
  C   C253      1.0  0.66501  0.14369  0.37863  1.0000
  H   H165      1.0  0.66707  0.12972  0.43721  1.0000
  H   H166      1.0  0.00059  0.19627  0.43773  1.0000
  C   C254      1.0  0.79183  0.32969  0.56495  1.0000
  C   C255      1.0  0.81157  0.32713  0.64516  1.0000
  C   C256      1.0  0.84977  0.32714  0.64467  1.0000
  C   C257      1.0  0.86922  0.32961  0.56395  1.0000
  C   C258      1.0  0.84980  0.33216  0.48288  1.0000
  C   C259      1.0  0.81095  0.33251  0.48385  1.0000
  H   H167      1.0  0.79676  0.33481  0.42563  1.0000
  O   O14       1.0  0.86770  0.33567  0.40423  1.0000
  H   H168      1.0  0.87671  0.31101  0.38868  1.0000
  C   C260      1.0  0.66283  0.57365  0.29137  1.0000
  C   C261      1.0  0.69639  0.58932  0.26397  1.0000
  C   C262      1.0  0.69654  0.61811  0.20215  1.0000
  C   C263      1.0  0.66344  0.63163  0.16435  1.0000
  C   C264      1.0  0.96340  0.61889  0.20214  1.0000
  C   C265      1.0  0.96295  0.59026  0.26427  1.0000
  C   C266      1.0  0.66367  0.33002  0.09889  1.0000
  C   C267      1.0  0.66334  0.36137  0.16539  1.0000
  C   C268      1.0  0.96327  0.37402  0.20336  1.0000
  C   C269      1.0  0.96273  0.40259  0.26568  1.0000
  C   C270      1.0  0.66260  0.41919  0.29233  1.0000
  C   C271      1.0  0.69624  0.40333  0.26576  1.0000
  C   C272      1.0  0.69641  0.37455  0.20390  1.0000
  C   C273      1.0  0.69540  0.33019  0.03342  1.0000
  C   C274      1.0  0.96561  0.66349  0.03249  1.0000
  H   H169      1.0  0.96177  0.38821  0.01736  1.0000
  H   H170      1.0  0.96264  0.60550  0.01489  1.0000
  H   H171      1.0  0.69848  0.60555  0.01546  1.0000
  H   H172      1.0  0.69917  0.38825  0.01860  1.0000
  H   H173      1.0  0.72131  0.36511  0.18246  1.0000
  H   H174      1.0  0.72065  0.41603  0.27996  1.0000
  H   H175      1.0  0.93804  0.41466  0.28047  1.0000
  H   H176      1.0  0.93857  0.36424  0.18152  1.0000
  H   H177      1.0  0.93869  0.62876  0.18050  1.0000
  H   H178      1.0  0.72143  0.62757  0.18077  1.0000
  H   H179      1.0  0.72080  0.57659  0.27822  1.0000
  H   H180      1.0  0.93821  0.57838  0.27934  1.0000
  C   C275      1.0  0.66223  0.45777  0.29765  1.0000
  C   C276      1.0  0.66009  0.47738  0.21671  1.0000
  C   C277      1.0  0.99299  0.51570  0.21775  1.0000
  H   H181      1.0  0.99130  0.52934  0.15844  1.0000
  O   O15       1.0  0.65740  0.46034  0.13646  1.0000
  H   H182      1.0  0.68254  0.45867  0.11289  1.0000
  H   H183      1.0  0.86320  0.65892  0.03758  1.0000
  H   H184      1.0  0.79835  0.65888  0.03835  1.0000
  C   C278      1.0  0.95231  0.36344  0.66191  1.0000
  C   C279      1.0  0.92343  0.36358  0.60037  1.0000
  C   C280      1.0  0.90769  0.66353  0.57183  1.0000
  C   C281      1.0  0.92440  0.63019  0.59776  1.0000
  C   C282      1.0  0.95286  0.63032  0.66039  1.0000
  C   C283      1.0  0.70826  0.63038  0.66122  1.0000
  C   C284      1.0  0.73686  0.63028  0.59895  1.0000
  C   C285      1.0  0.75336  0.33034  0.57293  1.0000
  C   C286      1.0  0.73758  0.36372  0.60148  1.0000
  C   C287      1.0  0.70873  0.36350  0.66316  1.0000
  H   H185      1.0  0.91089  0.38808  0.58607  1.0000
  H   H186      1.0  0.91236  0.60555  0.58252  1.0000
  H   H187      1.0  0.74896  0.60568  0.58342  1.0000
  H   H188      1.0  0.75020  0.38821  0.58774  1.0000
  C   C288      1.0  0.99544  0.53516  0.29839  1.0000
  C   C289      1.0  0.99841  0.51577  0.37901  1.0000
  C   C290      1.0  0.66501  0.47702  0.37864  1.0000
  H   H189      1.0  0.66707  0.46305  0.43721  1.0000
  H   H190      1.0  0.00059  0.52961  0.43773  1.0000
  C   C291      1.0  0.79183  0.66302  0.56495  1.0000
  C   C292      1.0  0.81157  0.66046  0.64516  1.0000
  C   C293      1.0  0.84977  0.66047  0.64467  1.0000
  C   C294      1.0  0.86922  0.66295  0.56395  1.0000
  C   C295      1.0  0.84980  0.66549  0.48288  1.0000
  C   C296      1.0  0.81095  0.66585  0.48385  1.0000
  H   H191      1.0  0.79676  0.66814  0.42563  1.0000
  O   O16       1.0  0.86770  0.66900  0.40423  1.0000
  H   H192      1.0  0.87671  0.64435  0.38868  1.0000
  C   C297      1.0  0.66283  0.90698  0.29137  1.0000
  C   C298      1.0  0.69639  0.92265  0.26397  1.0000
  C   C299      1.0  0.69654  0.95145  0.20215  1.0000
  C   C300      1.0  0.66344  0.96496  0.16435  1.0000
  C   C301      1.0  0.96340  0.95222  0.20214  1.0000
  C   C302      1.0  0.96295  0.92360  0.26427  1.0000
  C   C303      1.0  0.66367  0.66335  0.09889  1.0000
  C   C304      1.0  0.66334  0.69470  0.16539  1.0000
  C   C305      1.0  0.96327  0.70736  0.20336  1.0000
  C   C306      1.0  0.96273  0.73592  0.26568  1.0000
  C   C307      1.0  0.66260  0.75252  0.29233  1.0000
  C   C308      1.0  0.69624  0.73666  0.26576  1.0000
  C   C309      1.0  0.69641  0.70788  0.20390  1.0000
  C   C310      1.0  0.69540  0.66352  0.03342  1.0000
  C   C311      1.0  0.96561  0.99682  0.03249  1.0000
  H   H193      1.0  0.96177  0.72155  0.01736  1.0000
  H   H194      1.0  0.96264  0.93884  0.01489  1.0000
  H   H195      1.0  0.69848  0.93889  0.01546  1.0000
  H   H196      1.0  0.69917  0.72159  0.01860  1.0000
  H   H197      1.0  0.72131  0.69844  0.18246  1.0000
  H   H198      1.0  0.72065  0.74936  0.27996  1.0000
  H   H199      1.0  0.93804  0.74799  0.28047  1.0000
  H   H200      1.0  0.93857  0.69757  0.18152  1.0000
  H   H201      1.0  0.93869  0.96209  0.18050  1.0000
  H   H202      1.0  0.72143  0.96091  0.18077  1.0000
  H   H203      1.0  0.72080  0.90992  0.27822  1.0000
  H   H204      1.0  0.93821  0.91172  0.27934  1.0000
  C   C312      1.0  0.66223  0.79111  0.29765  1.0000
  C   C313      1.0  0.66009  0.81071  0.21671  1.0000
  C   C314      1.0  0.99299  0.84903  0.21775  1.0000
  H   H205      1.0  0.99130  0.86267  0.15844  1.0000
  O   O17       1.0  0.65740  0.79367  0.13646  1.0000
  H   H206      1.0  0.68254  0.79200  0.11289  1.0000
  H   H207      1.0  0.86320  0.99225  0.03758  1.0000
  H   H208      1.0  0.79835  0.99221  0.03835  1.0000
  C   C315      1.0  0.95231  0.69677  0.66191  1.0000
  C   C316      1.0  0.92343  0.69691  0.60037  1.0000
  C   C317      1.0  0.90770  0.99686  0.57183  1.0000
  C   C318      1.0  0.92440  0.96352  0.59776  1.0000
  C   C319      1.0  0.95286  0.96365  0.66039  1.0000
  C   C320      1.0  0.70826  0.96372  0.66122  1.0000
  C   C321      1.0  0.73686  0.96361  0.59895  1.0000
  C   C322      1.0  0.75336  0.66367  0.57293  1.0000
  C   C323      1.0  0.73758  0.69705  0.60148  1.0000
  C   C324      1.0  0.70873  0.69683  0.66316  1.0000
  H   H209      1.0  0.91089  0.72142  0.58607  1.0000
  H   H210      1.0  0.91236  0.93889  0.58252  1.0000
  H   H211      1.0  0.74896  0.93901  0.58342  1.0000
  H   H212      1.0  0.75020  0.72154  0.58774  1.0000
  C   C325      1.0  0.99544  0.86849  0.29839  1.0000
  C   C326      1.0  0.99841  0.84910  0.37901  1.0000
  C   C327      1.0  0.66501  0.81035  0.37863  1.0000
  H   H213      1.0  0.66707  0.79639  0.43721  1.0000
  H   H214      1.0  0.00059  0.86294  0.43773  1.0000
  C   C328      1.0  0.79183  0.99635  0.56495  1.0000
  C   C329      1.0  0.81157  0.99380  0.64516  1.0000
  C   C330      1.0  0.84977  0.99380  0.64467  1.0000
  C   C331      1.0  0.86922  0.99628  0.56395  1.0000
  C   C332      1.0  0.84980  0.99882  0.48288  1.0000
  C   C333      1.0  0.81096  0.99918  0.48385  1.0000
  H   H215      1.0  0.79676  0.00148  0.42563  1.0000
  O   O18       1.0  0.86770  0.00233  0.40423  1.0000
  H   H216      1.0  0.87671  0.97768  0.38868  1.0000
