data_image0
_chemical_formula_structural       C2HN2C2HC8H8C8H8C8H8C8H8C8H8C8H8CNCHNCNCHNCNCHNCNCHNCNCHNCNCHN3CNCHNCNCHNC2HNCNCHNCNCHNC3NC3NC5NC5NC20H18C4H4C3NC3NC5NC5NC20H18C4H4C3NC3NC5NC5NC20H18C4H4C3NC3NC5NC5NC20H18C4H4C3NC3NC5NC5NC20H18C4H4C3NC3NC5NC5NC20H18C4H4C2NHNC2NHNC2NHNC2NHNC2NHNC2NHNC2HNC2NHNC2NHN3C2NHNC2NHN
_chemical_formula_sum              "C336 H204 N72"
_cell_length_a       69.0879
_cell_length_b       69.0878
_cell_length_c       14.8
_cell_angle_alpha    90.0008
_cell_angle_beta     89.9852
_cell_angle_gamma    120

_space_group_name_H-M_alt    "P 1"
_space_group_IT_number       1

loop_
  _space_group_symop_operation_xyz
  'x, y, z'

loop_
  _atom_site_type_symbol
  _atom_site_label
  _atom_site_symmetry_multiplicity
  _atom_site_fract_x
  _atom_site_fract_y
  _atom_site_fract_z
  _atom_site_occupancy
  C   C1        1.0  0.04028  0.32513  0.27067  1.0000
  C   C2        1.0  0.02724  0.31311  0.34585  1.0000
  H   H1        1.0  0.03295  0.32571  0.21153  1.0000
  N   N1        1.0  0.03900  0.71812  0.27713  1.0000
  N   N2        1.0  0.03856  0.31350  0.42190  1.0000
  C   C3        1.0  0.02762  0.71782  0.35273  1.0000
  C   C4        1.0  0.04072  0.72984  0.42819  1.0000
  H   H2        1.0  0.03360  0.73033  0.48788  1.0000
  C   C5        1.0  0.29399  0.38745  0.29081  1.0000
  C   C6        1.0  0.30337  0.37349  0.30063  1.0000
  C   C7        1.0  0.35459  0.52295  0.29198  1.0000
  C   C8        1.0  0.37643  0.54115  0.30276  1.0000
  C   C9        1.0  0.23930  0.54096  0.30187  1.0000
  C   C10       1.0  0.24241  0.52242  0.29158  1.0000
  C   C11       1.0  0.16796  0.38692  0.29452  1.0000
  C   C12       1.0  0.14465  0.37290  0.30551  1.0000
  H   H3        1.0  0.13464  0.36896  0.24970  1.0000
  H   H4        1.0  0.17413  0.39308  0.23163  1.0000
  H   H5        1.0  0.24540  0.51842  0.22848  1.0000
  H   H6        1.0  0.23983  0.54975  0.24538  1.0000
  H   H7        1.0  0.34724  0.51985  0.22958  1.0000
  H   H8        1.0  0.38449  0.55061  0.24727  1.0000
  H   H9        1.0  0.31030  0.37051  0.24505  1.0000
  H   H10       1.0  0.29473  0.39445  0.22904  1.0000
  C   C13       1.0  0.69071  0.90988  0.29096  1.0000
  C   C14       1.0  0.70468  0.93323  0.30073  1.0000
  C   C15       1.0  0.55522  0.83498  0.29197  1.0000
  C   C16       1.0  0.53702  0.83863  0.30277  1.0000
  C   C17       1.0  0.53724  0.70169  0.30209  1.0000
  C   C18       1.0  0.55578  0.72335  0.29186  1.0000
  C   C19       1.0  0.69123  0.78437  0.29472  1.0000
  C   C20       1.0  0.70526  0.77509  0.30571  1.0000
  H   H11       1.0  0.70919  0.76900  0.24990  1.0000
  H   H12       1.0  0.68508  0.78438  0.23183  1.0000
  H   H13       1.0  0.55979  0.73035  0.22879  1.0000
  H   H14       1.0  0.52846  0.69343  0.24558  1.0000
  H   H15       1.0  0.55832  0.83074  0.22956  1.0000
  H   H16       1.0  0.52756  0.83723  0.24728  1.0000
  H   H17       1.0  0.70766  0.94313  0.24513  1.0000
  H   H18       1.0  0.68369  0.90361  0.22922  1.0000
  C   C21       1.0  0.16829  0.78420  0.29073  1.0000
  C   C22       1.0  0.14495  0.77483  0.30051  1.0000
  C   C23       1.0  0.24321  0.72360  0.29188  1.0000
  C   C24       1.0  0.23954  0.70175  0.30262  1.0000
  C   C25       1.0  0.37648  0.83888  0.30188  1.0000
  C   C26       1.0  0.35483  0.83577  0.29158  1.0000
  C   C27       1.0  0.29378  0.91022  0.29442  1.0000
  C   C28       1.0  0.30306  0.93353  0.30546  1.0000
  H   H19       1.0  0.30915  0.94355  0.24966  1.0000
  H   H20       1.0  0.29378  0.90406  0.23153  1.0000
  H   H21       1.0  0.34784  0.83277  0.22849  1.0000
  H   H22       1.0  0.38475  0.83834  0.24540  1.0000
  H   H23       1.0  0.24748  0.73096  0.22951  1.0000
  H   H24       1.0  0.24097  0.69371  0.24713  1.0000
  H   H25       1.0  0.13505  0.76792  0.24490  1.0000
  H   H26       1.0  0.17456  0.78347  0.22897  1.0000
  C   C29       1.0  0.80801  0.66690  0.29091  1.0000
  C   C30       1.0  0.79862  0.68086  0.30074  1.0000
  C   C31       1.0  0.74741  0.53139  0.29220  1.0000
  C   C32       1.0  0.72557  0.51318  0.30303  1.0000
  C   C33       1.0  0.86270  0.51340  0.30222  1.0000
  C   C34       1.0  0.85960  0.53196  0.29196  1.0000
  C   C35       1.0  0.93403  0.66743  0.29465  1.0000
  C   C36       1.0  0.95734  0.68146  0.30561  1.0000
  H   H27       1.0  0.96735  0.68539  0.24978  1.0000
  H   H28       1.0  0.92787  0.66126  0.23178  1.0000
  H   H29       1.0  0.85658  0.53594  0.22890  1.0000
  H   H30       1.0  0.86215  0.50460  0.24573  1.0000
  H   H31       1.0  0.75477  0.53446  0.22982  1.0000
  H   H32       1.0  0.71753  0.50371  0.24757  1.0000
  H   H33       1.0  0.79172  0.68386  0.24513  1.0000
  H   H34       1.0  0.80727  0.65989  0.22917  1.0000
  C   C37       1.0  0.41127  0.14446  0.29098  1.0000
  C   C38       1.0  0.39731  0.12112  0.30076  1.0000
  C   C39       1.0  0.54676  0.21935  0.29231  1.0000
  C   C40       1.0  0.56496  0.21571  0.30309  1.0000
  C   C41       1.0  0.56478  0.35266  0.30232  1.0000
  C   C42       1.0  0.54624  0.33101  0.29202  1.0000
  C   C43       1.0  0.41075  0.26997  0.29478  1.0000
  C   C44       1.0  0.39672  0.27924  0.30575  1.0000
  H   H35       1.0  0.39280  0.28533  0.24993  1.0000
  H   H36       1.0  0.41692  0.26996  0.23190  1.0000
  H   H37       1.0  0.54224  0.32402  0.22892  1.0000
  H   H38       1.0  0.57358  0.36093  0.24584  1.0000
  H   H39       1.0  0.54367  0.22361  0.22992  1.0000
  H   H40       1.0  0.57442  0.21712  0.24759  1.0000
  H   H41       1.0  0.39434  0.11122  0.24516  1.0000
  H   H42       1.0  0.41828  0.15074  0.22923  1.0000
  C   C45       1.0  0.93370  0.27018  0.29090  1.0000
  C   C46       1.0  0.95705  0.27955  0.30066  1.0000
  C   C47       1.0  0.85880  0.33077  0.29202  1.0000
  C   C48       1.0  0.86245  0.35261  0.30282  1.0000
  C   C49       1.0  0.72550  0.21544  0.30217  1.0000
  C   C50       1.0  0.74716  0.21856  0.29188  1.0000
  C   C51       1.0  0.80818  0.14414  0.29467  1.0000
  C   C52       1.0  0.79891  0.12083  0.30565  1.0000
  H   H43       1.0  0.79282  0.11082  0.24984  1.0000
  H   H44       1.0  0.80820  0.15030  0.23178  1.0000
  H   H45       1.0  0.75416  0.22156  0.22880  1.0000
  H   H46       1.0  0.71724  0.21598  0.24568  1.0000
  H   H47       1.0  0.85456  0.32343  0.22961  1.0000
  H   H48       1.0  0.86105  0.36067  0.24734  1.0000
  H   H49       1.0  0.96695  0.28648  0.24506  1.0000
  H   H50       1.0  0.92743  0.27093  0.22917  1.0000
  C   C53       1.0  0.24463  0.61488  0.27042  1.0000
  N   N3        1.0  0.24421  0.63431  0.27635  1.0000
  C   C54       1.0  0.23843  0.60067  0.34624  1.0000
  H   H51       1.0  0.24956  0.61092  0.21150  1.0000
  N   N4        1.0  0.23923  0.58184  0.34234  1.0000
  C   C55       1.0  0.46330  0.63312  0.27061  1.0000
  N   N5        1.0  0.44386  0.61328  0.27655  1.0000
  C   C56       1.0  0.47752  0.64112  0.34639  1.0000
  H   H52       1.0  0.46726  0.64201  0.21170  1.0000
  N   N6        1.0  0.49635  0.66075  0.34251  1.0000
  C   C57       1.0  0.44506  0.83352  0.27056  1.0000
  N   N7        1.0  0.46490  0.83393  0.27653  1.0000
  C   C58       1.0  0.43704  0.83973  0.34634  1.0000
  H   H53       1.0  0.43617  0.82859  0.21163  1.0000
  N   N8        1.0  0.41741  0.83894  0.34240  1.0000
  C   C59       1.0  0.85738  0.43949  0.27069  1.0000
  N   N9        1.0  0.85778  0.42005  0.27663  1.0000
  C   C60       1.0  0.86357  0.45370  0.34651  1.0000
  H   H54       1.0  0.85246  0.44346  0.21177  1.0000
  N   N10       1.0  0.86277  0.47252  0.34262  1.0000
  C   C61       1.0  0.63870  0.42125  0.27087  1.0000
  N   N11       1.0  0.65813  0.44109  0.27680  1.0000
  C   C62       1.0  0.62449  0.41322  0.34671  1.0000
  H   H55       1.0  0.63473  0.41236  0.21194  1.0000
  N   N12       1.0  0.60566  0.39359  0.34280  1.0000
  C   C63       1.0  0.65693  0.22081  0.27082  1.0000
  N   N13       1.0  0.63709  0.22040  0.27678  1.0000
  C   C64       1.0  0.66493  0.21458  0.34659  1.0000
  H   H56       1.0  0.66582  0.22574  0.21189  1.0000
  N   N14       1.0  0.68456  0.21539  0.34267  1.0000
  N   N15       1.0  0.06299  0.33622  0.27711  1.0000
  N   N16       1.0  0.00488  0.30241  0.34097  1.0000
  C   C65       1.0  0.75305  0.71851  0.27084  1.0000
  N   N17       1.0  0.74196  0.73013  0.27729  1.0000
  C   C66       1.0  0.76507  0.71750  0.34601  1.0000
  H   H57       1.0  0.75248  0.71060  0.21171  1.0000
  N   N18       1.0  0.77576  0.70583  0.34113  1.0000
  C   C67       1.0  0.35966  0.03790  0.27075  1.0000
  N   N19       1.0  0.34804  0.01519  0.27716  1.0000
  C   C68       1.0  0.36067  0.05092  0.34594  1.0000
  H   H58       1.0  0.36758  0.04524  0.21163  1.0000
  N   N20       1.0  0.37233  0.07328  0.34109  1.0000
  C   C69       1.0  0.06171  0.72921  0.27067  1.0000
  C   C70       1.0  0.07474  0.74126  0.34579  1.0000
  H   H59       1.0  0.06905  0.72862  0.21156  1.0000
  N   N21       1.0  0.09710  0.75194  0.34091  1.0000
  C   C71       1.0  0.34897  0.33586  0.27082  1.0000
  N   N22       1.0  0.36006  0.32424  0.27728  1.0000
  C   C72       1.0  0.33694  0.33687  0.34596  1.0000
  H   H60       1.0  0.34956  0.34378  0.21168  1.0000
  N   N23       1.0  0.32624  0.34853  0.34106  1.0000
  C   C73       1.0  0.74235  0.01646  0.27073  1.0000
  N   N24       1.0  0.75396  0.03917  0.27718  1.0000
  C   C74       1.0  0.74132  0.00342  0.34592  1.0000
  H   H61       1.0  0.73445  0.00913  0.21159  1.0000
  N   N25       1.0  0.72965  0.98107  0.34105  1.0000
  C   C75       1.0  0.21753  0.38089  0.36266  1.0000
  C   C76       1.0  0.23752  0.38079  0.36202  1.0000
  C   C77       1.0  0.25509  0.40289  0.36036  1.0000
  N   N26       1.0  0.24496  0.41547  0.35940  1.0000
  C   C78       1.0  0.22225  0.40305  0.36122  1.0000
  C   C79       1.0  0.20585  0.40989  0.36154  1.0000
  C   C80       1.0  0.21102  0.43260  0.36007  1.0000
  N   N27       1.0  0.23140  0.45128  0.35748  1.0000
  C   C81       1.0  0.23002  0.47014  0.35874  1.0000
  C   C82       1.0  0.20727  0.46314  0.36178  1.0000
  C   C83       1.0  0.19560  0.44008  0.36296  1.0000
  C   C84       1.0  0.24774  0.49268  0.35917  1.0000
  C   C85       1.0  0.27085  0.49936  0.35847  1.0000
  N   N28       1.0  0.28085  0.48678  0.35284  1.0000
  C   C86       1.0  0.30345  0.49924  0.35809  1.0000
  C   C87       1.0  0.30822  0.52137  0.36572  1.0000
  C   C88       1.0  0.28831  0.52144  0.36599  1.0000
  C   C89       1.0  0.31977  0.49241  0.35845  1.0000
  C   C90       1.0  0.31473  0.46979  0.35759  1.0000
  N   N29       1.0  0.29441  0.45101  0.35635  1.0000
  C   C91       1.0  0.29594  0.43223  0.35838  1.0000
  C   C92       1.0  0.31882  0.43956  0.36119  1.0000
  C   C93       1.0  0.33036  0.46262  0.36006  1.0000
  C   C94       1.0  0.27829  0.40955  0.35970  1.0000
  C   C95       1.0  0.28469  0.39273  0.36560  1.0000
  C   C96       1.0  0.30384  0.36426  0.38562  1.0000
  C   C97       1.0  0.29406  0.36927  0.45975  1.0000
  C   C98       1.0  0.28484  0.38333  0.45022  1.0000
  C   C99       1.0  0.34267  0.50950  0.36666  1.0000
  C   C100      1.0  0.38699  0.54644  0.38847  1.0000
  C   C101      1.0  0.37499  0.53269  0.46268  1.0000
  C   C102      1.0  0.35313  0.51460  0.45217  1.0000
  C   C103      1.0  0.24213  0.50990  0.36754  1.0000
  C   C104      1.0  0.23856  0.51625  0.45386  1.0000
  C   C105      1.0  0.23543  0.53476  0.46393  1.0000
  C   C106      1.0  0.23595  0.54761  0.38838  1.0000
  C   C107      1.0  0.18263  0.39322  0.36938  1.0000
  C   C108      1.0  0.17326  0.38497  0.45539  1.0000
  C   C109      1.0  0.13512  0.36470  0.39178  1.0000
  C   C110      1.0  0.15002  0.37090  0.46614  1.0000
  H   H62       1.0  0.14400  0.36564  0.53007  1.0000
  H   H63       1.0  0.18326  0.38968  0.51148  1.0000
  H   H64       1.0  0.20209  0.36684  0.36370  1.0000
  H   H65       1.0  0.23877  0.36666  0.36257  1.0000
  H   H66       1.0  0.25304  0.43152  0.35852  1.0000
  H   H67       1.0  0.27281  0.47081  0.34580  1.0000
  H   H68       1.0  0.17858  0.43058  0.36661  1.0000
  H   H69       1.0  0.20010  0.47298  0.36427  1.0000
  H   H70       1.0  0.23882  0.50781  0.51029  1.0000
  H   H71       1.0  0.23328  0.53906  0.52784  1.0000
  H   H72       1.0  0.28710  0.53552  0.37302  1.0000
  H   H73       1.0  0.32354  0.53538  0.37308  1.0000
  H   H74       1.0  0.32624  0.42998  0.36489  1.0000
  H   H75       1.0  0.34738  0.47234  0.36259  1.0000
  H   H76       1.0  0.34474  0.50542  0.50781  1.0000
  H   H77       1.0  0.38190  0.53600  0.52600  1.0000
  H   H78       1.0  0.27884  0.38725  0.50641  1.0000
  H   H79       1.0  0.29416  0.36324  0.52286  1.0000
  C   C111      1.0  0.40844  0.56445  0.40203  1.0000
  C   C112      1.0  0.23343  0.56622  0.40153  1.0000
  C   C113      1.0  0.11208  0.35098  0.40619  1.0000
  C   C114      1.0  0.31364  0.35092  0.39911  1.0000
  H   H80       1.0  0.41685  0.56423  0.45616  1.0000
  H   H81       1.0  0.22738  0.56777  0.46050  1.0000
  H   H82       1.0  0.10723  0.34296  0.46488  1.0000
  H   H83       1.0  0.31107  0.34311  0.45821  1.0000
  C   C115      1.0  0.69728  0.84001  0.36265  1.0000
  C   C116      1.0  0.69738  0.86010  0.36198  1.0000
  C   C117      1.0  0.67527  0.85556  0.36048  1.0000
  N   N30       1.0  0.66270  0.83286  0.35957  1.0000
  C   C118      1.0  0.67512  0.82257  0.36135  1.0000
  C   C119      1.0  0.66828  0.79933  0.36171  1.0000
  C   C120      1.0  0.64558  0.78179  0.36028  1.0000
  N   N31       1.0  0.62690  0.78349  0.35771  1.0000
  C   C121      1.0  0.60803  0.76324  0.35908  1.0000
  C   C122      1.0  0.61503  0.74748  0.36221  1.0000
  C   C123      1.0  0.63810  0.75888  0.36336  1.0000
  C   C124      1.0  0.58549  0.75840  0.35954  1.0000
  C   C125      1.0  0.57881  0.77484  0.35857  1.0000
  N   N32       1.0  0.59138  0.79742  0.35286  1.0000
  C   C126      1.0  0.57892  0.80755  0.35807  1.0000
  C   C127      1.0  0.55679  0.79019  0.36576  1.0000
  C   C128      1.0  0.55672  0.77021  0.36580  1.0000
  C   C129      1.0  0.58575  0.83070  0.35838  1.0000
  C   C130      1.0  0.60837  0.84829  0.35776  1.0000
  N   N33       1.0  0.62715  0.84676  0.35655  1.0000
  C   C131      1.0  0.64593  0.86707  0.35867  1.0000
  C   C132      1.0  0.63860  0.88261  0.36146  1.0000
  C   C133      1.0  0.61553  0.87109  0.36028  1.0000
  C   C134      1.0  0.66861  0.87210  0.35988  1.0000
  C   C135      1.0  0.68543  0.89533  0.36580  1.0000
  C   C136      1.0  0.71392  0.94294  0.38569  1.0000
  C   C137      1.0  0.70891  0.92815  0.45984  1.0000
  C   C138      1.0  0.69486  0.90487  0.45036  1.0000
  C   C139      1.0  0.56866  0.83651  0.36664  1.0000
  C   C140      1.0  0.53172  0.84389  0.38848  1.0000
  C   C141      1.0  0.54547  0.84566  0.46268  1.0000
  C   C142      1.0  0.56355  0.84187  0.45216  1.0000
  C   C143      1.0  0.56827  0.73558  0.36787  1.0000
  C   C144      1.0  0.56190  0.72565  0.45415  1.0000
  C   C145      1.0  0.54341  0.70401  0.46417  1.0000
  C   C146      1.0  0.53057  0.69168  0.38857  1.0000
  C   C147      1.0  0.68496  0.79278  0.36953  1.0000
  C   C148      1.0  0.69320  0.79166  0.45555  1.0000
  C   C149      1.0  0.71346  0.77377  0.39196  1.0000
  C   C150      1.0  0.70726  0.78248  0.46631  1.0000
  H   H84       1.0  0.71253  0.78175  0.53023  1.0000
  H   H85       1.0  0.68851  0.79698  0.51163  1.0000
  H   H86       1.0  0.71133  0.83862  0.36354  1.0000
  H   H87       1.0  0.71151  0.87547  0.36240  1.0000
  H   H88       1.0  0.64665  0.82488  0.35901  1.0000
  H   H89       1.0  0.60736  0.80535  0.34594  1.0000
  H   H90       1.0  0.64760  0.75137  0.36700  1.0000
  H   H91       1.0  0.60520  0.73048  0.36478  1.0000
  H   H92       1.0  0.57035  0.73434  0.51060  1.0000
  H   H93       1.0  0.53910  0.69754  0.52805  1.0000
  H   H94       1.0  0.54265  0.75494  0.37331  1.0000
  H   H95       1.0  0.54278  0.79150  0.37305  1.0000
  H   H96       1.0  0.64817  0.89962  0.36490  1.0000
  H   H97       1.0  0.60581  0.87838  0.36244  1.0000
  H   H98       1.0  0.57272  0.84265  0.50780  1.0000
  H   H99       1.0  0.54214  0.84923  0.52602  1.0000
  H   H100      1.0  0.69093  0.89497  0.50658  1.0000
  H   H101      1.0  0.71495  0.93429  0.52292  1.0000
  C   C151      1.0  0.51370  0.84733  0.40205  1.0000
  C   C152      1.0  0.51197  0.67054  0.40167  1.0000
  C   C153      1.0  0.72718  0.76445  0.40638  1.0000
  C   C154      1.0  0.72726  0.96608  0.39914  1.0000
  H   H102      1.0  0.51391  0.85595  0.45624  1.0000
  H   H103      1.0  0.51043  0.66293  0.46059  1.0000
  H   H104      1.0  0.73521  0.76764  0.46503  1.0000
  H   H105      1.0  0.73506  0.97132  0.45823  1.0000
  C   C155      1.0  0.23816  0.86063  0.36252  1.0000
  C   C156      1.0  0.21807  0.84064  0.36190  1.0000
  C   C157      1.0  0.22261  0.82307  0.36027  1.0000
  N   N34       1.0  0.24531  0.83320  0.35928  1.0000
  C   C158      1.0  0.25560  0.85591  0.36109  1.0000
  C   C159      1.0  0.27884  0.87231  0.36135  1.0000
  C   C160      1.0  0.29638  0.86714  0.35990  1.0000
  N   N35       1.0  0.29468  0.84677  0.35734  1.0000
  C   C161      1.0  0.31493  0.84815  0.35861  1.0000
  C   C162      1.0  0.33069  0.87091  0.36176  1.0000
  C   C163      1.0  0.31928  0.88257  0.36293  1.0000
  C   C164      1.0  0.31976  0.83044  0.35912  1.0000
  C   C165      1.0  0.30332  0.80732  0.35832  1.0000
  N   N36       1.0  0.28075  0.79732  0.35271  1.0000
  C   C166      1.0  0.27061  0.77472  0.35802  1.0000
  C   C167      1.0  0.28797  0.76996  0.36578  1.0000
  C   C168      1.0  0.30795  0.78987  0.36583  1.0000
  C   C169      1.0  0.24746  0.75840  0.35834  1.0000
  C   C170      1.0  0.22987  0.76343  0.35763  1.0000
  N   N37       1.0  0.23141  0.78375  0.35643  1.0000
  C   C171      1.0  0.21110  0.78222  0.35846  1.0000
  C   C172      1.0  0.19555  0.75934  0.36117  1.0000
  C   C173      1.0  0.20708  0.74780  0.36003  1.0000
  C   C174      1.0  0.20607  0.79987  0.35963  1.0000
  C   C175      1.0  0.18284  0.79346  0.36558  1.0000
  C   C176      1.0  0.13523  0.77435  0.38548  1.0000
  C   C177      1.0  0.15000  0.78410  0.45966  1.0000
  C   C178      1.0  0.17329  0.79333  0.45017  1.0000
  C   C179      1.0  0.24164  0.73550  0.36657  1.0000
  C   C180      1.0  0.23423  0.69117  0.38830  1.0000
  C   C181      1.0  0.23244  0.70314  0.46250  1.0000
  C   C182      1.0  0.23622  0.72500  0.45203  1.0000
  C   C183      1.0  0.34258  0.83605  0.36753  1.0000
  C   C184      1.0  0.35249  0.83961  0.45384  1.0000
  C   C185      1.0  0.37414  0.84277  0.46393  1.0000
  C   C186      1.0  0.38647  0.84223  0.38839  1.0000
  C   C187      1.0  0.28539  0.89553  0.36925  1.0000
  C   C188      1.0  0.28649  0.90489  0.45528  1.0000
  C   C189      1.0  0.30438  0.94304  0.39173  1.0000
  C   C190      1.0  0.29567  0.92812  0.46607  1.0000
  H   H106      1.0  0.29639  0.93413  0.53000  1.0000
  H   H107      1.0  0.28117  0.89487  0.51135  1.0000
  H   H108      1.0  0.23955  0.87607  0.36351  1.0000
  H   H109      1.0  0.20269  0.83939  0.36241  1.0000
  H   H110      1.0  0.25328  0.82512  0.35846  1.0000
  H   H111      1.0  0.27281  0.80536  0.34565  1.0000
  H   H112      1.0  0.32680  0.89959  0.36655  1.0000
  H   H113      1.0  0.34769  0.87807  0.36429  1.0000
  H   H114      1.0  0.34380  0.83938  0.51025  1.0000
  H   H115      1.0  0.38058  0.84492  0.52784  1.0000
  H   H116      1.0  0.32323  0.79107  0.37312  1.0000
  H   H117      1.0  0.28666  0.75464  0.37310  1.0000
  H   H118      1.0  0.17854  0.75191  0.36444  1.0000
  H   H119      1.0  0.19978  0.73079  0.36211  1.0000
  H   H120      1.0  0.23543  0.73339  0.50767  1.0000
  H   H121      1.0  0.22882  0.69621  0.52580  1.0000
  H   H122      1.0  0.18319  0.79931  0.50637  1.0000
  H   H123      1.0  0.14386  0.78401  0.52274  1.0000
  C   C191      1.0  0.23078  0.66970  0.40180  1.0000
  C   C192      1.0  0.40761  0.84476  0.40155  1.0000
  C   C193      1.0  0.31369  0.96608  0.40617  1.0000
  C   C194      1.0  0.11208  0.76456  0.39893  1.0000
  H   H124      1.0  0.22212  0.66128  0.45590  1.0000
  H   H125      1.0  0.41519  0.85080  0.46053  1.0000
  H   H126      1.0  0.31048  0.97091  0.46482  1.0000
  H   H127      1.0  0.10684  0.76716  0.45796  1.0000
  C   C195      1.0  0.88445  0.67347  0.36269  1.0000
  C   C196      1.0  0.86446  0.67356  0.36202  1.0000
  C   C197      1.0  0.84689  0.65146  0.36047  1.0000
  N   N38       1.0  0.85702  0.63889  0.35961  1.0000
  C   C198      1.0  0.87973  0.65131  0.36137  1.0000
  C   C199      1.0  0.89613  0.64447  0.36173  1.0000
  C   C200      1.0  0.89097  0.62176  0.36034  1.0000
  N   N39       1.0  0.87059  0.60308  0.35779  1.0000
  C   C201      1.0  0.87197  0.58422  0.35911  1.0000
  C   C202      1.0  0.89473  0.59122  0.36213  1.0000
  C   C203      1.0  0.90639  0.61429  0.36338  1.0000
  C   C204      1.0  0.85426  0.56168  0.35966  1.0000
  C   C205      1.0  0.83115  0.55500  0.35873  1.0000
  N   N40       1.0  0.82114  0.56757  0.35304  1.0000
  C   C206      1.0  0.79855  0.55511  0.35823  1.0000
  C   C207      1.0  0.79378  0.53298  0.36607  1.0000
  C   C208      1.0  0.81369  0.53291  0.36620  1.0000
  C   C209      1.0  0.78222  0.56194  0.35855  1.0000
  C   C210      1.0  0.78725  0.58455  0.35781  1.0000
  N   N41       1.0  0.80757  0.60334  0.35659  1.0000
  C   C211      1.0  0.80604  0.62212  0.35869  1.0000
  C   C212      1.0  0.78317  0.61478  0.36153  1.0000
  C   C213      1.0  0.77163  0.59172  0.36028  1.0000
  C   C214      1.0  0.82369  0.64479  0.35981  1.0000
  C   C215      1.0  0.81728  0.66162  0.36574  1.0000
  C   C216      1.0  0.79816  0.69010  0.38571  1.0000
  C   C217      1.0  0.80792  0.68508  0.45986  1.0000
  C   C218      1.0  0.81715  0.67103  0.45034  1.0000
  C   C219      1.0  0.75932  0.54485  0.36685  1.0000
  C   C220      1.0  0.71500  0.50790  0.38874  1.0000
  C   C221      1.0  0.72699  0.52167  0.46290  1.0000
  C   C222      1.0  0.74884  0.53976  0.45236  1.0000
  C   C223      1.0  0.85987  0.54446  0.36795  1.0000
  C   C224      1.0  0.86345  0.53811  0.45424  1.0000
  C   C225      1.0  0.86659  0.51961  0.46428  1.0000
  C   C226      1.0  0.86605  0.50675  0.38871  1.0000
  C   C227      1.0  0.91936  0.66114  0.36952  1.0000
  C   C228      1.0  0.92872  0.66941  0.45551  1.0000
  C   C229      1.0  0.96686  0.68966  0.39185  1.0000
  C   C230      1.0  0.95196  0.68346  0.46623  1.0000
  H   H128      1.0  0.95797  0.68875  0.53014  1.0000
  H   H129      1.0  0.91871  0.66470  0.51163  1.0000
  H   H130      1.0  0.89989  0.68752  0.36363  1.0000
  H   H131      1.0  0.86321  0.68769  0.36245  1.0000
  H   H132      1.0  0.84895  0.62284  0.35883  1.0000
  H   H133      1.0  0.82918  0.58354  0.34603  1.0000
  H   H134      1.0  0.92341  0.62379  0.36690  1.0000
  H   H135      1.0  0.90190  0.58139  0.36476  1.0000
  H   H136      1.0  0.86319  0.54655  0.51069  1.0000
  H   H137      1.0  0.86873  0.51530  0.52817  1.0000
  H   H138      1.0  0.81490  0.51884  0.37357  1.0000
  H   H139      1.0  0.77846  0.51897  0.37336  1.0000
  H   H140      1.0  0.77573  0.62436  0.36494  1.0000
  H   H141      1.0  0.75461  0.58200  0.36264  1.0000
  H   H142      1.0  0.75723  0.54895  0.50796  1.0000
  H   H143      1.0  0.72007  0.51837  0.52623  1.0000
  H   H144      1.0  0.82314  0.66710  0.50653  1.0000
  H   H145      1.0  0.80784  0.69113  0.52294  1.0000
  C   C231      1.0  0.69355  0.48988  0.40233  1.0000
  C   C232      1.0  0.86857  0.48814  0.40182  1.0000
  C   C233      1.0  0.98990  0.70338  0.40623  1.0000
  C   C234      1.0  0.78836  0.70345  0.39918  1.0000
  H   H146      1.0  0.68514  0.49011  0.45649  1.0000
  H   H147      1.0  0.87461  0.48658  0.46080  1.0000
  H   H148      1.0  0.99474  0.71142  0.46488  1.0000
  H   H149      1.0  0.79094  0.71127  0.45824  1.0000
  C   C235      1.0  0.40470  0.21435  0.36289  1.0000
  C   C236      1.0  0.40461  0.19426  0.36223  1.0000
  C   C237      1.0  0.42671  0.19879  0.36061  1.0000
  N   N42       1.0  0.43928  0.22149  0.35967  1.0000
  C   C238      1.0  0.42687  0.23179  0.36149  1.0000
  C   C239      1.0  0.43371  0.25503  0.36184  1.0000
  C   C240      1.0  0.45642  0.27256  0.36040  1.0000
  N   N43       1.0  0.47509  0.27086  0.35784  1.0000
  C   C241      1.0  0.49396  0.29111  0.35913  1.0000
  C   C242      1.0  0.48696  0.30687  0.36218  1.0000
  C   C243      1.0  0.46390  0.29547  0.36332  1.0000
  C   C244      1.0  0.51650  0.29594  0.35959  1.0000
  C   C245      1.0  0.52318  0.27950  0.35888  1.0000
  N   N44       1.0  0.51060  0.25692  0.35323  1.0000
  C   C246      1.0  0.52306  0.24678  0.35846  1.0000
  C   C247      1.0  0.54519  0.26414  0.36612  1.0000
  C   C248      1.0  0.54526  0.28412  0.36641  1.0000
  C   C249      1.0  0.51623  0.22363  0.35880  1.0000
  C   C250      1.0  0.49361  0.20605  0.35790  1.0000
  N   N45       1.0  0.47483  0.20759  0.35665  1.0000
  C   C251      1.0  0.45604  0.18728  0.35865  1.0000
  C   C252      1.0  0.46337  0.17173  0.36146  1.0000
  C   C253      1.0  0.48644  0.18325  0.36036  1.0000
  C   C254      1.0  0.43337  0.18225  0.35994  1.0000
  C   C255      1.0  0.41654  0.15902  0.36580  1.0000
  C   C256      1.0  0.38807  0.11140  0.38573  1.0000
  C   C257      1.0  0.39307  0.12618  0.45988  1.0000
  C   C258      1.0  0.40713  0.14947  0.45040  1.0000
  C   C259      1.0  0.53331  0.21781  0.36700  1.0000
  C   C260      1.0  0.57025  0.21044  0.38879  1.0000
  C   C261      1.0  0.55650  0.20867  0.46300  1.0000
  C   C262      1.0  0.53841  0.21244  0.45250  1.0000
  C   C263      1.0  0.53371  0.31876  0.36798  1.0000
  C   C264      1.0  0.54007  0.32867  0.45430  1.0000
  C   C265      1.0  0.55857  0.35030  0.46439  1.0000
  C   C266      1.0  0.57143  0.36264  0.38884  1.0000
  C   C267      1.0  0.41704  0.26158  0.36964  1.0000
  C   C268      1.0  0.40877  0.26269  0.45565  1.0000
  C   C269      1.0  0.38852  0.28057  0.39200  1.0000
  C   C270      1.0  0.39471  0.27186  0.46637  1.0000
  H   H150      1.0  0.38943  0.27261  0.53029  1.0000
  H   H151      1.0  0.41347  0.25738  0.51175  1.0000
  H   H152      1.0  0.39065  0.21574  0.36392  1.0000
  H   H153      1.0  0.39048  0.17888  0.36276  1.0000
  H   H154      1.0  0.45533  0.22947  0.35883  1.0000
  H   H155      1.0  0.49463  0.24899  0.34618  1.0000
  H   H156      1.0  0.45439  0.30299  0.36696  1.0000
  H   H157      1.0  0.49680  0.32387  0.36469  1.0000
  H   H158      1.0  0.53162  0.31996  0.51072  1.0000
  H   H159      1.0  0.56287  0.35674  0.52830  1.0000
  H   H160      1.0  0.55934  0.29940  0.37345  1.0000
  H   H161      1.0  0.55919  0.26283  0.37348  1.0000
  H   H162      1.0  0.45379  0.15472  0.36513  1.0000
  H   H163      1.0  0.49615  0.17595  0.36288  1.0000
  H   H164      1.0  0.52923  0.21166  0.50815  1.0000
  H   H165      1.0  0.55981  0.20507  0.52632  1.0000
  H   H166      1.0  0.41105  0.15937  0.50660  1.0000
  H   H167      1.0  0.38704  0.12004  0.52298  1.0000
  C   C271      1.0  0.58827  0.20700  0.40234  1.0000
  C   C272      1.0  0.59004  0.38377  0.40200  1.0000
  C   C273      1.0  0.37480  0.28989  0.40639  1.0000
  C   C274      1.0  0.37473  0.08826  0.39918  1.0000
  H   H168      1.0  0.58805  0.19837  0.45648  1.0000
  H   H169      1.0  0.59159  0.39136  0.46099  1.0000
  H   H170      1.0  0.36677  0.28671  0.46506  1.0000
  H   H171      1.0  0.36692  0.08301  0.45827  1.0000
  C   C275      1.0  0.86383  0.19372  0.36258  1.0000
  C   C276      1.0  0.88391  0.21372  0.36190  1.0000
  C   C277      1.0  0.87938  0.23129  0.36043  1.0000
  N   N46       1.0  0.85668  0.22115  0.35953  1.0000
  C   C278      1.0  0.84639  0.19844  0.36130  1.0000
  C   C279      1.0  0.82315  0.18204  0.36168  1.0000
  C   C280      1.0  0.80561  0.18721  0.36025  1.0000
  N   N47       1.0  0.80730  0.20759  0.35768  1.0000
  C   C281      1.0  0.78706  0.20620  0.35905  1.0000
  C   C282      1.0  0.77130  0.18344  0.36219  1.0000
  C   C283      1.0  0.78270  0.17178  0.36335  1.0000
  C   C284      1.0  0.78222  0.22391  0.35947  1.0000
  C   C285      1.0  0.79866  0.24703  0.35857  1.0000
  N   N48       1.0  0.82124  0.25703  0.35286  1.0000
  C   C286      1.0  0.83137  0.27963  0.35810  1.0000
  C   C287      1.0  0.81401  0.28439  0.36582  1.0000
  C   C288      1.0  0.79403  0.26448  0.36584  1.0000
  C   C289      1.0  0.85452  0.29595  0.35840  1.0000
  C   C290      1.0  0.87211  0.29092  0.35776  1.0000
  N   N49       1.0  0.87057  0.27060  0.35655  1.0000
  C   C291      1.0  0.89089  0.27213  0.35864  1.0000
  C   C292      1.0  0.90643  0.29501  0.36144  1.0000
  C   C293      1.0  0.89490  0.30655  0.36028  1.0000
  C   C294      1.0  0.89592  0.25449  0.35984  1.0000
  C   C295      1.0  0.91915  0.26089  0.36574  1.0000
  C   C296      1.0  0.96676  0.28001  0.38561  1.0000
  C   C297      1.0  0.95197  0.27023  0.45977  1.0000
  C   C298      1.0  0.92868  0.26099  0.45029  1.0000
  C   C299      1.0  0.86033  0.31885  0.36668  1.0000
  C   C300      1.0  0.86772  0.36317  0.38854  1.0000
  C   C301      1.0  0.86948  0.35118  0.46272  1.0000
  C   C302      1.0  0.86570  0.32931  0.45220  1.0000
  C   C303      1.0  0.75940  0.21830  0.36786  1.0000
  C   C304      1.0  0.74947  0.21474  0.45417  1.0000
  C   C305      1.0  0.72784  0.21159  0.46424  1.0000
  C   C306      1.0  0.71550  0.21210  0.38867  1.0000
  C   C307      1.0  0.81660  0.15882  0.36948  1.0000
  C   C308      1.0  0.81548  0.14944  0.45549  1.0000
  C   C309      1.0  0.79759  0.11130  0.39190  1.0000
  C   C310      1.0  0.80629  0.12620  0.46625  1.0000
  H   H172      1.0  0.80556  0.12019  0.53017  1.0000
  H   H173      1.0  0.82079  0.15945  0.51158  1.0000
  H   H174      1.0  0.86244  0.17828  0.36346  1.0000
  H   H175      1.0  0.89929  0.21496  0.36232  1.0000
  H   H176      1.0  0.84870  0.22923  0.35900  1.0000
  H   H177      1.0  0.82917  0.24899  0.34589  1.0000
  H   H178      1.0  0.77519  0.15476  0.36698  1.0000
  H   H179      1.0  0.75430  0.17628  0.36475  1.0000
  H   H180      1.0  0.75817  0.21498  0.51060  1.0000
  H   H181      1.0  0.72137  0.20942  0.52814  1.0000
  H   H182      1.0  0.77875  0.26328  0.37334  1.0000
  H   H183      1.0  0.81532  0.29971  0.37314  1.0000
  H   H184      1.0  0.92344  0.30244  0.36486  1.0000
  H   H185      1.0  0.90220  0.32357  0.36244  1.0000
  H   H186      1.0  0.86648  0.32092  0.50782  1.0000
  H   H187      1.0  0.87306  0.35808  0.52606  1.0000
  H   H188      1.0  0.91878  0.25502  0.50651  1.0000
  H   H189      1.0  0.95811  0.27031  0.52284  1.0000
  C   C311      1.0  0.87116  0.38463  0.40211  1.0000
  C   C312      1.0  0.69436  0.20956  0.40182  1.0000
  C   C313      1.0  0.78826  0.08826  0.40631  1.0000
  C   C314      1.0  0.98990  0.28981  0.39905  1.0000
  H   H190      1.0  0.87979  0.39303  0.45625  1.0000
  H   H191      1.0  0.68676  0.20350  0.46076  1.0000
  H   H192      1.0  0.79144  0.08342  0.46497  1.0000
  H   H193      1.0  0.99514  0.28725  0.45813  1.0000
  C   C315      1.0  0.23793  0.64094  0.35197  1.0000
  C   C316      1.0  0.23187  0.62674  0.42821  1.0000
  N   N50       1.0  0.23240  0.60740  0.42242  1.0000
  H   H194      1.0  0.22744  0.63077  0.48807  1.0000
  N   N51       1.0  0.23880  0.66062  0.34901  1.0000
  C   C317      1.0  0.43722  0.60036  0.35217  1.0000
  C   C318      1.0  0.45143  0.60849  0.42836  1.0000
  N   N52       1.0  0.47078  0.62834  0.42255  1.0000
  H   H195      1.0  0.44740  0.60001  0.48819  1.0000
  N   N53       1.0  0.41754  0.58155  0.34919  1.0000
  C   C319      1.0  0.47780  0.84020  0.35216  1.0000
  C   C320      1.0  0.46967  0.84630  0.42833  1.0000
  N   N54       1.0  0.44980  0.84577  0.42251  1.0000
  H   H196      1.0  0.47812  0.85072  0.48819  1.0000
  N   N55       1.0  0.49661  0.83934  0.34919  1.0000
  C   C321      1.0  0.86404  0.41341  0.35226  1.0000
  C   C322      1.0  0.87010  0.42761  0.42848  1.0000
  N   N56       1.0  0.86958  0.44695  0.42269  1.0000
  H   H197      1.0  0.87450  0.42356  0.48836  1.0000
  N   N57       1.0  0.86316  0.39372  0.34928  1.0000
  C   C323      1.0  0.66476  0.45399  0.35244  1.0000
  C   C324      1.0  0.65056  0.44584  0.42870  1.0000
  N   N58       1.0  0.63123  0.42598  0.42290  1.0000
  H   H198      1.0  0.65460  0.45429  0.48856  1.0000
  N   N59       1.0  0.68445  0.47280  0.34946  1.0000
  C   C325      1.0  0.62418  0.21413  0.35242  1.0000
  C   C326      1.0  0.63231  0.20804  0.42861  1.0000
  N   N60       1.0  0.65216  0.20855  0.42277  1.0000
  H   H199      1.0  0.62384  0.20360  0.48846  1.0000
  N   N61       1.0  0.60536  0.21500  0.34947  1.0000
  C   C327      1.0  0.07436  0.33654  0.35272  1.0000
  C   C328      1.0  0.06126  0.32453  0.42823  1.0000
  H   H200      1.0  0.06838  0.32407  0.48795  1.0000
  N   N62       1.0  0.09677  0.34842  0.34951  1.0000
  C   C329      1.0  0.74164  0.74119  0.35290  1.0000
  C   C330      1.0  0.75363  0.74008  0.42840  1.0000
  N   N63       1.0  0.76467  0.72843  0.42207  1.0000
  H   H201      1.0  0.75409  0.74766  0.48813  1.0000
  N   N64       1.0  0.72975  0.75170  0.34970  1.0000
  C   C331      1.0  0.33697  0.00380  0.35276  1.0000
  C   C332      1.0  0.33808  0.01690  0.42830  1.0000
  N   N65       1.0  0.34973  0.03959  0.42199  1.0000
  H   H202      1.0  0.33048  0.00977  0.48801  1.0000
  N   N66       1.0  0.32646  0.98140  0.34954  1.0000
  N   N67       1.0  0.06342  0.74088  0.42183  1.0000
  N   N68       1.0  0.00522  0.70594  0.34955  1.0000
  C   C333      1.0  0.36037  0.31317  0.35289  1.0000
  C   C334      1.0  0.34835  0.31427  0.42836  1.0000
  N   N69       1.0  0.33731  0.32592  0.42201  1.0000
  H   H203      1.0  0.34787  0.30667  0.48809  1.0000
  N   N70       1.0  0.37224  0.30265  0.34970  1.0000
  C   C335      1.0  0.76500  0.05055  0.35282  1.0000
  C   C336      1.0  0.76387  0.03744  0.42835  1.0000
  N   N71       1.0  0.75222  0.01475  0.42201  1.0000
  H   H204      1.0  0.77144  0.04456  0.48811  1.0000
  N   N72       1.0  0.77551  0.07295  0.34962  1.0000
