data_image0
_chemical_formula_structural       C4NH3C4NH3C4NH3C4NH3C4NH3C4NH3N24C4NH3C4NH3C4NH3C4NH3C4NH3C4NH3N24C4NH3C4NH3C4NH3C4NH3C4NH3C4NH3N12C4NH3C4NH3C4NH3C4NH3C4NH3C4NH3CNCNCNCNCNCNCNCNCNCNCNCNCNCNCNCNCNCNCNCNCNCNCNCNCNCNCNCNCNCNCNCNCNCNCNCNCNCNCNCNCNCNCNCNCNCNCNCNCNCNCNCNCNCNCNCNCNCNCNCNCNCNCNCNCNCNCNCNCNCNCNCNCNCNCNCNCNCNCNCNCNCNCNCNCNCNCNCNCNCNCNCNCNCNCNCNCNCNCNCNCNCNCNCNCNCNCNCN13C4NH3C4NH3C4NH3C4NH3C4NH3C4NH3C4NH3C4NH3C4NH3C4NH3C4NH3C4NH3N12C4NH3C4NH3C4NH3C4NH3C4NH3C4NH3C4NH3C4NH3C4NH3C4NH3C4NH3C4NH3N12C4NH3C4NH3C4NH3C4NH3C4NH3C4NH3N12
_chemical_formula_sum              "C324 N270 H162"
_cell_length_a       66.5495
_cell_length_b       66.5494
_cell_length_c       14.8792
_cell_angle_alpha    90
_cell_angle_beta     90
_cell_angle_gamma    120

_space_group_name_H-M_alt    "P 1"
_space_group_IT_number       1

loop_
  _space_group_symop_operation_xyz
  'x, y, z'

loop_
  _atom_site_type_symbol
  _atom_site_label
  _atom_site_symmetry_multiplicity
  _atom_site_fract_x
  _atom_site_fract_y
  _atom_site_fract_z
  _atom_site_occupancy
  C   C1        1.0  0.12475  0.31835  0.39990  1.0000
  C   C2        1.0  0.10962  0.32358  0.35175  1.0000
  C   C3        1.0  0.11151  0.34590  0.35684  1.0000
  C   C4        1.0  0.13029  0.36357  0.40770  1.0000
  N   N1        1.0  0.09674  0.34966  0.30587  1.0000
  H   H1        1.0  0.08431  0.33715  0.27181  1.0000
  H   H2        1.0  0.09667  0.36415  0.30783  1.0000
  H   H3        1.0  0.09861  0.31176  0.30570  1.0000
  C   C5        1.0  0.69214  0.80825  0.39780  1.0000
  C   C6        1.0  0.68685  0.78808  0.34819  1.0000
  C   C7        1.0  0.66453  0.76767  0.35350  1.0000
  C   C8        1.0  0.64701  0.76871  0.40574  1.0000
  N   N2        1.0  0.66058  0.74929  0.30123  1.0000
  H   H4        1.0  0.67299  0.74943  0.26617  1.0000
  H   H5        1.0  0.64606  0.73475  0.30299  1.0000
  H   H6        1.0  0.69856  0.78900  0.30136  1.0000
  C   C9        1.0  0.20199  0.88614  0.39518  1.0000
  C   C10       1.0  0.22193  0.90063  0.34358  1.0000
  C   C11       1.0  0.24233  0.89868  0.34800  1.0000
  C   C12       1.0  0.24152  0.88043  0.40157  1.0000
  N   N3        1.0  0.26039  0.91267  0.29354  1.0000
  H   H7        1.0  0.26009  0.92470  0.25742  1.0000
  H   H8        1.0  0.27484  0.91251  0.29401  1.0000
  H   H9        1.0  0.22079  0.91113  0.29595  1.0000
  C   C13       1.0  0.88767  0.69000  0.40232  1.0000
  C   C14       1.0  0.90273  0.68494  0.35284  1.0000
  C   C15       1.0  0.90078  0.66258  0.35638  1.0000
  C   C16       1.0  0.88211  0.64479  0.40734  1.0000
  N   N4        1.0  0.91533  0.65887  0.30385  1.0000
  H   H10       1.0  0.92759  0.67138  0.26915  1.0000
  H   H11       1.0  0.91513  0.64424  0.30353  1.0000
  H   H12       1.0  0.91354  0.69683  0.30656  1.0000
  C   C17       1.0  0.32030  0.19963  0.40001  1.0000
  C   C18       1.0  0.32552  0.21999  0.35185  1.0000
  C   C19       1.0  0.34785  0.24041  0.35689  1.0000
  C   C20       1.0  0.36553  0.23931  0.40773  1.0000
  N   N5        1.0  0.35161  0.25894  0.30591  1.0000
  H   H13       1.0  0.33910  0.25886  0.27186  1.0000
  H   H14       1.0  0.36610  0.27349  0.30784  1.0000
  H   H15       1.0  0.31370  0.21918  0.30580  1.0000
  C   C21       1.0  0.81034  0.12253  0.39871  1.0000
  C   C22       1.0  0.79010  0.10749  0.34980  1.0000
  C   C23       1.0  0.76968  0.10938  0.35516  1.0000
  C   C24       1.0  0.77076  0.12806  0.40671  1.0000
  N   N6        1.0  0.75121  0.09477  0.30359  1.0000
  H   H16       1.0  0.75131  0.08242  0.26903  1.0000
  H   H17       1.0  0.73665  0.09471  0.30556  1.0000
  H   H18       1.0  0.79096  0.09659  0.30337  1.0000
  N   N7        1.0  0.37143  0.16284  0.26229  1.0000
  N   N8        1.0  0.35193  0.16247  0.26559  1.0000
  N   N9        1.0  0.79964  0.63866  0.26506  1.0000
  N   N10       1.0  0.81874  0.65819  0.26877  1.0000
  N   N11       1.0  0.84696  0.21052  0.26061  1.0000
  N   N12       1.0  0.84732  0.19137  0.26386  1.0000
  N   N13       1.0  0.64056  0.84489  0.26178  1.0000
  N   N14       1.0  0.66008  0.84526  0.26479  1.0000
  N   N15       1.0  0.21267  0.36952  0.26206  1.0000
  N   N16       1.0  0.19353  0.35001  0.26535  1.0000
  N   N17       1.0  0.16497  0.79753  0.26345  1.0000
  N   N18       1.0  0.16462  0.81669  0.26561  1.0000
  N   N19       1.0  0.20956  0.44339  0.32773  1.0000
  N   N20       1.0  0.22983  0.44620  0.30496  1.0000
  N   N21       1.0  0.56664  0.76791  0.32810  1.0000
  N   N22       1.0  0.56363  0.78524  0.30535  1.0000
  N   N23       1.0  0.24211  0.80035  0.32919  1.0000
  N   N24       1.0  0.22471  0.77990  0.30794  1.0000
  N   N25       1.0  0.80262  0.56463  0.32748  1.0000
  N   N26       1.0  0.78227  0.56171  0.30548  1.0000
  N   N27       1.0  0.44533  0.23980  0.32776  1.0000
  N   N28       1.0  0.44814  0.22234  0.30502  1.0000
  N   N29       1.0  0.76992  0.20745  0.32698  1.0000
  N   N30       1.0  0.78727  0.22774  0.30382  1.0000
  C   C25       1.0  0.12769  0.43460  0.34226  1.0000
  C   C26       1.0  0.10519  0.42333  0.30493  1.0000
  C   C27       1.0  0.09253  0.43512  0.29468  1.0000
  C   C28       1.0  0.10267  0.45831  0.32790  1.0000
  N   N31       1.0  0.07169  0.42390  0.25175  1.0000
  H   H19       1.0  0.06586  0.40841  0.22710  1.0000
  H   H20       1.0  0.06388  0.43213  0.23210  1.0000
  H   H21       1.0  0.09810  0.40651  0.28367  1.0000
  C   C29       1.0  0.57581  0.69516  0.34121  1.0000
  C   C30       1.0  0.58700  0.68389  0.30355  1.0000
  C   C31       1.0  0.57515  0.65944  0.29329  1.0000
  C   C32       1.0  0.55199  0.64643  0.32679  1.0000
  N   N32       1.0  0.58628  0.64978  0.25003  1.0000
  H   H22       1.0  0.60186  0.65936  0.22595  1.0000
  H   H23       1.0  0.57814  0.63367  0.23128  1.0000
  H   H24       1.0  0.60380  0.69359  0.28199  1.0000
  C   C33       1.0  0.31496  0.88242  0.33772  1.0000
  C   C34       1.0  0.32630  0.90480  0.29937  1.0000
  C   C35       1.0  0.35076  0.91734  0.28947  1.0000
  C   C36       1.0  0.36370  0.90720  0.32386  1.0000
  N   N33       1.0  0.36054  0.93810  0.24589  1.0000
  H   H25       1.0  0.35098  0.94395  0.22046  1.0000
  H   H26       1.0  0.37662  0.94582  0.22678  1.0000
  H   H27       1.0  0.31666  0.91192  0.27730  1.0000
  C   C37       1.0  0.88467  0.57374  0.34104  1.0000
  C   C38       1.0  0.90719  0.58498  0.30393  1.0000
  C   C39       1.0  0.91980  0.57313  0.29367  1.0000
  C   C40       1.0  0.90957  0.54990  0.32653  1.0000
  N   N34       1.0  0.94068  0.58433  0.25103  1.0000
  H   H28       1.0  0.94658  0.59985  0.22658  1.0000
  H   H29       1.0  0.94846  0.57607  0.23139  1.0000
  H   H30       1.0  0.91435  0.60183  0.28287  1.0000
  C   C41       1.0  0.43658  0.31290  0.34208  1.0000
  C   C42       1.0  0.42531  0.32414  0.30477  1.0000
  C   C43       1.0  0.43712  0.34858  0.29446  1.0000
  C   C44       1.0  0.46031  0.36162  0.32761  1.0000
  N   N35       1.0  0.42590  0.35822  0.25159  1.0000
  H   H31       1.0  0.41041  0.34857  0.22698  1.0000
  H   H32       1.0  0.43414  0.37426  0.23193  1.0000
  H   H33       1.0  0.40848  0.31442  0.28357  1.0000
  C   C45       1.0  0.69715  0.12556  0.34188  1.0000
  C   C46       1.0  0.68590  0.10307  0.30443  1.0000
  C   C47       1.0  0.66145  0.09043  0.29427  1.0000
  C   C48       1.0  0.64842  0.10057  0.32769  1.0000
  N   N36       1.0  0.65181  0.06962  0.25117  1.0000
  H   H34       1.0  0.66140  0.06363  0.22714  1.0000
  H   H35       1.0  0.63570  0.06162  0.23247  1.0000
  H   H36       1.0  0.69561  0.09598  0.28293  1.0000
  N   N37       1.0  0.47012  0.12328  0.33763  1.0000
  N   N38       1.0  0.46111  0.13672  0.32866  1.0000
  N   N39       1.0  0.66135  0.53980  0.33780  1.0000
  N   N40       1.0  0.68380  0.54881  0.32892  1.0000
  N   N41       1.0  0.88663  0.34878  0.33685  1.0000
  N   N42       1.0  0.87318  0.32633  0.32778  1.0000
  N   N43       1.0  0.54197  0.88453  0.33804  1.0000
  N   N44       1.0  0.55097  0.87108  0.32896  1.0000
  N   N45       1.0  0.35089  0.46823  0.33774  1.0000
  N   N46       1.0  0.32844  0.45921  0.32876  1.0000
  N   N47       1.0  0.12549  0.65934  0.33943  1.0000
  N   N48       1.0  0.13892  0.68180  0.33060  1.0000
  N   N49       1.0  0.10651  0.23452  0.33823  1.0000
  N   N50       1.0  0.09535  0.21180  0.33669  1.0000
  N   N51       1.0  0.77574  0.87414  0.33762  1.0000
  N   N52       1.0  0.79846  0.88575  0.33628  1.0000
  N   N53       1.0  0.13605  0.90382  0.33506  1.0000
  N   N54       1.0  0.12446  0.91495  0.33375  1.0000
  N   N55       1.0  0.90575  0.77382  0.33807  1.0000
  N   N56       1.0  0.91688  0.79654  0.33614  1.0000
  N   N57       1.0  0.23644  0.13407  0.33802  1.0000
  N   N58       1.0  0.21372  0.12251  0.33639  1.0000
  N   N59       1.0  0.87606  0.10455  0.33777  1.0000
  N   N60       1.0  0.88765  0.09342  0.33644  1.0000
  C   C49       1.0  0.09939  0.57283  0.37378  1.0000
  C   C50       1.0  0.10803  0.56743  0.29630  1.0000
  C   C51       1.0  0.10784  0.54598  0.29000  1.0000
  C   C52       1.0  0.09912  0.53045  0.36433  1.0000
  N   N61       1.0  0.11433  0.54030  0.21183  1.0000
  H   H37       1.0  0.12008  0.55105  0.16141  1.0000
  H   H38       1.0  0.11440  0.52582  0.20507  1.0000
  H   H39       1.0  0.11209  0.57789  0.24092  1.0000
  C   C53       1.0  0.43743  0.52857  0.37270  1.0000
  C   C54       1.0  0.44287  0.54260  0.29514  1.0000
  C   C55       1.0  0.46430  0.56388  0.28888  1.0000
  C   C56       1.0  0.47981  0.57074  0.36331  1.0000
  N   N62       1.0  0.47001  0.57601  0.21059  1.0000
  H   H40       1.0  0.45928  0.57096  0.16009  1.0000
  H   H41       1.0  0.48448  0.59056  0.20384  1.0000
  H   H42       1.0  0.43244  0.53618  0.23967  1.0000
  C   C57       1.0  0.48165  0.91078  0.37341  1.0000
  C   C58       1.0  0.46758  0.90197  0.29601  1.0000
  C   C59       1.0  0.44630  0.90211  0.28931  1.0000
  C   C60       1.0  0.43952  0.91103  0.36310  1.0000
  N   N63       1.0  0.43414  0.89545  0.21112  1.0000
  H   H43       1.0  0.43916  0.88960  0.16109  1.0000
  H   H44       1.0  0.41960  0.89537  0.20400  1.0000
  H   H45       1.0  0.47398  0.89780  0.24091  1.0000
  C   C61       1.0  0.91273  0.43528  0.37180  1.0000
  C   C62       1.0  0.90412  0.44074  0.29436  1.0000
  C   C63       1.0  0.90437  0.46222  0.28822  1.0000
  C   C64       1.0  0.91308  0.47768  0.36275  1.0000
  N   N64       1.0  0.89795  0.46797  0.21005  1.0000
  H   H46       1.0  0.89231  0.45730  0.15938  1.0000
  H   H47       1.0  0.89802  0.48252  0.20322  1.0000
  H   H48       1.0  0.90016  0.43034  0.23883  1.0000
  C   C65       1.0  0.57485  0.47945  0.37272  1.0000
  C   C66       1.0  0.56942  0.46537  0.29535  1.0000
  C   C67       1.0  0.54798  0.44411  0.28925  1.0000
  C   C68       1.0  0.53249  0.43733  0.36366  1.0000
  N   N65       1.0  0.54228  0.43189  0.21118  1.0000
  H   H49       1.0  0.55301  0.43688  0.16070  1.0000
  H   H50       1.0  0.52780  0.41733  0.20456  1.0000
  H   H51       1.0  0.57986  0.47175  0.23991  1.0000
  C   C69       1.0  0.53040  0.09699  0.37325  1.0000
  C   C70       1.0  0.54454  0.10572  0.29601  1.0000
  C   C71       1.0  0.56584  0.10560  0.28996  1.0000
  C   C72       1.0  0.57260  0.09683  0.36428  1.0000
  N   N66       1.0  0.57807  0.11216  0.21193  1.0000
  H   H52       1.0  0.57308  0.11792  0.16150  1.0000
  H   H53       1.0  0.59263  0.11226  0.20530  1.0000
  H   H54       1.0  0.53819  0.10982  0.24057  1.0000
  N   N67       1.0  0.01828  0.43647  0.34563  1.0000
  N   N68       1.0  0.99558  0.42466  0.34245  1.0000
  N   N69       1.0  0.57373  0.58383  0.34528  1.0000
  N   N70       1.0  0.58552  0.57291  0.34231  1.0000
  N   N71       1.0  0.42609  0.99160  0.34419  1.0000
  N   N72       1.0  0.43700  0.01431  0.34134  1.0000
  N   N73       1.0  0.99388  0.57168  0.34628  1.0000
  N   N74       1.0  0.01659  0.58349  0.34349  1.0000
  N   N75       1.0  0.43852  0.42420  0.34580  1.0000
  N   N76       1.0  0.42672  0.43511  0.34274  1.0000
  N   N77       1.0  0.58597  0.01619  0.34667  1.0000
  N   N78       1.0  0.57508  0.99348  0.34369  1.0000
  C   C73       1.0  0.12828  0.10052  0.32243  1.0000
  C   C74       1.0  0.10598  0.09014  0.28308  1.0000
  C   C75       1.0  0.09364  0.10226  0.27465  1.0000
  C   C76       1.0  0.10360  0.12484  0.31359  1.0000
  N   N79       1.0  0.07362  0.09202  0.22600  1.0000
  H   H55       1.0  0.06814  0.07698  0.19765  1.0000
  H   H56       1.0  0.06689  0.10100  0.20361  1.0000
  H   H57       1.0  0.09906  0.07394  0.25555  1.0000
  C   C77       1.0  0.90969  0.03004  0.32280  1.0000
  C   C78       1.0  0.92009  0.01813  0.28351  1.0000
  C   C79       1.0  0.90796  0.99367  0.27495  1.0000
  C   C80       1.0  0.88536  0.98103  0.31371  1.0000
  N   N80       1.0  0.91822  0.98391  0.22626  1.0000
  H   H58       1.0  0.93327  0.99348  0.19800  1.0000
  H   H59       1.0  0.90924  0.96821  0.20371  1.0000
  H   H60       1.0  0.93629  0.02742  0.25606  1.0000
  C   C81       1.0  0.98021  0.88198  0.32177  1.0000
  C   C82       1.0  0.99210  0.90430  0.28264  1.0000
  C   C83       1.0  0.01656  0.91664  0.27396  1.0000
  C   C84       1.0  0.02920  0.90664  0.31240  1.0000
  N   N81       1.0  0.02631  0.93668  0.22540  1.0000
  H   H61       1.0  0.01672  0.94217  0.19734  1.0000
  H   H62       1.0  0.04199  0.94339  0.20275  1.0000
  H   H63       1.0  0.98281  0.91124  0.25543  1.0000
  C   C85       1.0  0.88383  0.90780  0.32244  1.0000
  C   C86       1.0  0.90607  0.91814  0.28262  1.0000
  C   C87       1.0  0.91838  0.90600  0.27397  1.0000
  C   C88       1.0  0.90849  0.88345  0.31319  1.0000
  N   N82       1.0  0.93830  0.91618  0.22468  1.0000
  H   H64       1.0  0.94391  0.93130  0.19682  1.0000
  H   H65       1.0  0.94526  0.90734  0.20302  1.0000
  H   H66       1.0  0.91293  0.93430  0.25474  1.0000
  C   C89       1.0  0.10242  0.97832  0.32140  1.0000
  C   C90       1.0  0.09204  0.99025  0.28219  1.0000
  C   C91       1.0  0.10417  0.01471  0.27383  1.0000
  C   C92       1.0  0.12676  0.02732  0.31275  1.0000
  N   N83       1.0  0.09394  0.02451  0.22527  1.0000
  H   H67       1.0  0.07890  0.01496  0.19691  1.0000
  H   H68       1.0  0.10293  0.04022  0.20290  1.0000
  H   H69       1.0  0.07584  0.98098  0.25466  1.0000
  C   C93       1.0  0.03191  0.12638  0.32278  1.0000
  C   C94       1.0  0.01999  0.10409  0.28339  1.0000
  C   C95       1.0  0.99552  0.09177  0.27488  1.0000
  C   C96       1.0  0.98290  0.10173  0.31374  1.0000
  N   N84       1.0  0.98574  0.07176  0.22612  1.0000
  H   H70       1.0  0.99531  0.06628  0.19779  1.0000
  H   H71       1.0  0.97004  0.06506  0.20365  1.0000
  H   H72       1.0  0.02926  0.09717  0.25588  1.0000
  C   C97       1.0  0.17513  0.42480  0.40992  1.0000
  N   N85       1.0  0.16351  0.43516  0.37666  1.0000
  C   C98       1.0  0.14015  0.42296  0.36224  1.0000
  N   N86       1.0  0.12889  0.39943  0.37388  1.0000
  C   C99       1.0  0.13969  0.38801  0.40484  1.0000
  N   N87       1.0  0.16276  0.40150  0.42285  1.0000
  C   C100      1.0  0.58585  0.75247  0.40920  1.0000
  N   N88       1.0  0.57539  0.73049  0.37605  1.0000
  C   C101      1.0  0.58752  0.71927  0.36124  1.0000
  N   N89       1.0  0.61106  0.73149  0.37238  1.0000
  C   C102      1.0  0.62256  0.75372  0.40328  1.0000
  N   N90       1.0  0.60916  0.76337  0.42179  1.0000
  C   C103      1.0  0.25765  0.83546  0.40744  1.0000
  N   N91       1.0  0.27961  0.84684  0.37387  1.0000
  C   C104      1.0  0.29085  0.87014  0.35772  1.0000
  N   N92       1.0  0.27869  0.88155  0.36810  1.0000
  C   C105      1.0  0.25651  0.87098  0.39955  1.0000
  N   N93       1.0  0.24686  0.84800  0.41929  1.0000
  C   C106      1.0  0.83726  0.58359  0.40854  1.0000
  N   N94       1.0  0.84887  0.57323  0.37533  1.0000
  C   C107      1.0  0.87224  0.58543  0.36090  1.0000
  N   N95       1.0  0.88352  0.60895  0.37266  1.0000
  C   C108      1.0  0.87270  0.62036  0.40370  1.0000
  N   N96       1.0  0.84964  0.60687  0.42184  1.0000
  C   C109      1.0  0.42674  0.25566  0.40989  1.0000
  N   N97       1.0  0.43711  0.27763  0.37657  1.0000
  C   C110      1.0  0.42492  0.28880  0.36211  1.0000
  N   N98       1.0  0.40140  0.27655  0.37379  1.0000
  C   C111      1.0  0.38996  0.25433  0.40482  1.0000
  N   N99       1.0  0.40345  0.24474  0.42285  1.0000
  C   C112      1.0  0.75448  0.17295  0.40900  1.0000
  N   N100      1.0  0.73248  0.16137  0.37603  1.0000
  C   C113      1.0  0.72127  0.13800  0.36177  1.0000
  N   N101      1.0  0.73350  0.12671  0.37325  1.0000
  C   C114      1.0  0.75575  0.13749  0.40397  1.0000
  N   N102      1.0  0.76539  0.16057  0.42193  1.0000
  C   C115      1.0  0.43549  0.18265  0.32177  1.0000
  N   N103      1.0  0.44292  0.16740  0.34001  1.0000
  C   C116      1.0  0.42917  0.14416  0.32437  1.0000
  N   N104      1.0  0.40652  0.13595  0.30007  1.0000
  C   C117      1.0  0.39778  0.15028  0.28478  1.0000
  N   N105      1.0  0.41305  0.17327  0.29698  1.0000
  C   C118      1.0  0.75537  0.57451  0.32269  1.0000
  N   N106      1.0  0.73266  0.56697  0.34057  1.0000
  C   C119      1.0  0.72318  0.58074  0.32500  1.0000
  N   N107      1.0  0.73764  0.60343  0.30116  1.0000
  C   C120      1.0  0.76075  0.61224  0.28649  1.0000
  N   N108      1.0  0.76848  0.59697  0.29838  1.0000
  C   C121      1.0  0.82720  0.25488  0.31938  1.0000
  N   N109      1.0  0.84248  0.27750  0.33825  1.0000
  C   C122      1.0  0.86573  0.28696  0.32292  1.0000
  N   N110      1.0  0.87390  0.27249  0.29855  1.0000
  C   C123      1.0  0.85955  0.24943  0.28300  1.0000
  N   N111      1.0  0.83656  0.24177  0.29478  1.0000
  C   C124      1.0  0.57646  0.82509  0.32111  1.0000
  N   N112      1.0  0.56910  0.84036  0.33993  1.0000
  C   C125      1.0  0.58287  0.86360  0.32450  1.0000
  N   N113      1.0  0.60552  0.87180  0.30011  1.0000
  C   C126      1.0  0.61423  0.85745  0.28470  1.0000
  N   N114      1.0  0.59892  0.83446  0.29652  1.0000
  C   C127      1.0  0.25689  0.43358  0.32169  1.0000
  N   N115      1.0  0.27957  0.44101  0.33996  1.0000
  C   C128      1.0  0.28907  0.42727  0.32431  1.0000
  N   N116      1.0  0.27463  0.40462  0.29994  1.0000
  C   C129      1.0  0.25156  0.39587  0.28462  1.0000
  N   N117      1.0  0.24385  0.41114  0.29684  1.0000
  C   C130      1.0  0.18472  0.75336  0.32495  1.0000
  N   N118      1.0  0.16956  0.73064  0.34271  1.0000
  C   C131      1.0  0.14633  0.72116  0.32683  1.0000
  N   N119      1.0  0.13811  0.73560  0.30250  1.0000
  C   C132      1.0  0.15242  0.75870  0.28758  1.0000
  N   N120      1.0  0.17540  0.76645  0.29993  1.0000
  C   C133      1.0  0.13347  0.30504  0.36002  1.0000
  N   N121      1.0  0.12570  0.28190  0.36688  1.0000
  C   C134      1.0  0.13921  0.27265  0.34054  1.0000
  N   N122      1.0  0.16125  0.28751  0.30935  1.0000
  C   C135      1.0  0.16956  0.31073  0.29983  1.0000
  N   N123      1.0  0.15500  0.31810  0.32689  1.0000
  C   C136      1.0  0.70534  0.83023  0.35728  1.0000
  N   N124      1.0  0.72841  0.84577  0.36523  1.0000
  C   C137      1.0  0.73755  0.86854  0.33947  1.0000
  N   N125      1.0  0.72260  0.87562  0.30843  1.0000
  C   C138      1.0  0.69942  0.86060  0.29850  1.0000
  N   N126      1.0  0.69216  0.83862  0.32464  1.0000
  C   C139      1.0  0.17981  0.87713  0.35635  1.0000
  N   N127      1.0  0.16442  0.88487  0.36290  1.0000
  C   C140      1.0  0.14161  0.87120  0.33754  1.0000
  N   N128      1.0  0.13443  0.84906  0.30756  1.0000
  C   C141      1.0  0.14937  0.84078  0.29848  1.0000
  N   N129      1.0  0.17138  0.85550  0.32439  1.0000
  C   C142      1.0  0.87865  0.70324  0.36399  1.0000
  N   N130      1.0  0.88662  0.72646  0.36859  1.0000
  C   C143      1.0  0.87309  0.73565  0.34179  1.0000
  N   N131      1.0  0.85098  0.72072  0.31126  1.0000
  C   C144      1.0  0.84259  0.69745  0.30328  1.0000
  N   N132      1.0  0.85712  0.69012  0.33105  1.0000
  C   C145      1.0  0.30697  0.17759  0.36018  1.0000
  N   N133      1.0  0.28383  0.16224  0.36689  1.0000
  C   C146      1.0  0.27457  0.13948  0.34054  1.0000
  N   N134      1.0  0.28942  0.13228  0.30942  1.0000
  C   C147      1.0  0.31265  0.14718  0.30000  1.0000
  N   N135      1.0  0.32003  0.16911  0.32712  1.0000
  C   C148      1.0  0.83228  0.13122  0.35795  1.0000
  N   N136      1.0  0.84777  0.12362  0.36573  1.0000
  C   C149      1.0  0.87052  0.13718  0.33952  1.0000
  N   N137      1.0  0.87762  0.15918  0.30808  1.0000
  C   C150      1.0  0.86263  0.16739  0.29820  1.0000
  N   N138      1.0  0.84068  0.15275  0.32485  1.0000
  C   C151      1.0  0.08999  0.50610  0.35909  1.0000
  N   N139      1.0  0.10189  0.49469  0.34241  1.0000
  C   C152      1.0  0.09071  0.47092  0.33919  1.0000
  N   N140      1.0  0.06747  0.45898  0.35664  1.0000
  C   C153      1.0  0.05509  0.46965  0.37465  1.0000
  N   N141      1.0  0.06684  0.49309  0.37349  1.0000
  C   C154      1.0  0.50415  0.58598  0.35814  1.0000
  N   N142      1.0  0.51557  0.60928  0.34130  1.0000
  C   C155      1.0  0.53935  0.62187  0.33816  1.0000
  N   N143      1.0  0.55128  0.61058  0.35594  1.0000
  C   C156      1.0  0.54059  0.58753  0.37411  1.0000
  N   N144      1.0  0.51715  0.57585  0.37284  1.0000
  C   C157      1.0  0.42415  0.91998  0.35731  1.0000
  N   N145      1.0  0.40089  0.90804  0.33969  1.0000
  C   C158      1.0  0.38824  0.91916  0.33603  1.0000
  N   N146      1.0  0.39940  0.94236  0.35411  1.0000
  C   C159      1.0  0.42239  0.95477  0.37317  1.0000
  N   N147      1.0  0.43416  0.94310  0.37235  1.0000
  C   C160      1.0  0.92217  0.50204  0.35780  1.0000
  N   N148      1.0  0.91030  0.51347  0.34091  1.0000
  C   C161      1.0  0.92148  0.53725  0.33806  1.0000
  N   N149      1.0  0.94468  0.54917  0.35613  1.0000
  C   C162      1.0  0.95704  0.53848  0.37437  1.0000
  N   N150      1.0  0.94529  0.51505  0.37284  1.0000
  C   C163      1.0  0.50813  0.42209  0.35862  1.0000
  N   N151      1.0  0.49671  0.39879  0.34192  1.0000
  C   C164      1.0  0.47293  0.38619  0.33889  1.0000
  N   N152      1.0  0.46100  0.39748  0.35654  1.0000
  C   C165      1.0  0.47168  0.42053  0.37457  1.0000
  N   N153      1.0  0.49512  0.43223  0.37322  1.0000
  C   C166      1.0  0.58792  0.08781  0.35926  1.0000
  N   N154      1.0  0.61121  0.09973  0.34228  1.0000
  C   C167      1.0  0.62386  0.08861  0.33922  1.0000
  N   N155      1.0  0.61263  0.06540  0.35722  1.0000
  C   C168      1.0  0.58960  0.05299  0.37554  1.0000
  N   N156      1.0  0.57786  0.06468  0.37418  1.0000
  C   C169      1.0  0.50609  0.08760  0.36971  1.0000
  N   N157      1.0  0.49431  0.09946  0.36298  1.0000
  C   C170      1.0  0.47049  0.08812  0.36140  1.0000
  N   N158      1.0  0.45908  0.06449  0.36335  1.0000
  C   C171      1.0  0.47012  0.05212  0.37096  1.0000
  N   N159      1.0  0.49355  0.06416  0.37463  1.0000
  C   C172      1.0  0.58971  0.50379  0.36963  1.0000
  N   N160      1.0  0.61335  0.51559  0.36293  1.0000
  C   C173      1.0  0.62582  0.53942  0.36157  1.0000
  N   N161      1.0  0.61357  0.55080  0.36368  1.0000
  C   C174      1.0  0.59016  0.53973  0.37123  1.0000
  N   N162      1.0  0.57879  0.51630  0.37464  1.0000
  C   C175      1.0  0.92220  0.42041  0.36881  1.0000
  N   N163      1.0  0.91039  0.39677  0.36188  1.0000
  C   C176      1.0  0.92177  0.38432  0.36059  1.0000
  N   N164      1.0  0.94540  0.39659  0.36304  1.0000
  C   C177      1.0  0.95772  0.41999  0.37079  1.0000
  N   N165      1.0  0.94564  0.43134  0.37409  1.0000
  C   C178      1.0  0.50597  0.92016  0.37041  1.0000
  N   N166      1.0  0.51776  0.90832  0.36340  1.0000
  C   C179      1.0  0.54160  0.91967  0.36219  1.0000
  N   N167      1.0  0.55298  0.94329  0.36473  1.0000
  C   C180      1.0  0.54193  0.95564  0.37259  1.0000
  N   N168      1.0  0.51850  0.94359  0.37585  1.0000
  C   C181      1.0  0.42253  0.50425  0.36948  1.0000
  N   N169      1.0  0.39889  0.49245  0.36275  1.0000
  C   C182      1.0  0.38643  0.46862  0.36143  1.0000
  N   N170      1.0  0.39869  0.45725  0.36366  1.0000
  C   C183      1.0  0.42209  0.46831  0.37127  1.0000
  N   N171      1.0  0.43346  0.49174  0.37465  1.0000
  C   C184      1.0  0.08991  0.58769  0.37084  1.0000
  N   N172      1.0  0.10174  0.61133  0.36435  1.0000
  C   C185      1.0  0.09036  0.62378  0.36308  1.0000
  N   N173      1.0  0.06673  0.61152  0.36506  1.0000
  C   C186      1.0  0.05440  0.58811  0.37239  1.0000
  N   N174      1.0  0.06647  0.57675  0.37571  1.0000
  C   C187      1.0  0.09216  0.13812  0.32122  1.0000
  N   N175      1.0  0.10394  0.16163  0.32991  1.0000
  C   C188      1.0  0.09304  0.17435  0.33709  1.0000
  N   N176      1.0  0.06930  0.16269  0.33570  1.0000
  C   C189      1.0  0.05663  0.13913  0.32831  1.0000
  N   N177      1.0  0.06865  0.12762  0.32179  1.0000
  C   C190      1.0  0.87208  0.95631  0.32122  1.0000
  N   N178      1.0  0.84857  0.94457  0.32984  1.0000
  C   C191      1.0  0.83586  0.92094  0.33690  1.0000
  N   N179      1.0  0.84753  0.90888  0.33544  1.0000
  C   C192      1.0  0.87109  0.91978  0.32809  1.0000
  N   N180      1.0  0.88259  0.94331  0.32169  1.0000
  C   C193      1.0  0.05392  0.91806  0.31972  1.0000
  N   N181      1.0  0.06566  0.90628  0.32800  1.0000
  C   C194      1.0  0.08929  0.91720  0.33491  1.0000
  N   N182      1.0  0.10135  0.94093  0.33372  1.0000
  C   C195      1.0  0.09045  0.95360  0.32677  1.0000
  N   N183      1.0  0.06692  0.94157  0.32046  1.0000
  C   C196      1.0  0.91993  0.87017  0.32059  1.0000
  N   N184      1.0  0.90817  0.84666  0.32930  1.0000
  C   C197      1.0  0.91911  0.83396  0.33631  1.0000
  N   N185      1.0  0.94284  0.84565  0.33479  1.0000
  C   C198      1.0  0.95549  0.86921  0.32741  1.0000
  N   N186      1.0  0.94344  0.88070  0.32103  1.0000
  C   C199      1.0  0.14004  0.05203  0.32054  1.0000
  N   N187      1.0  0.16354  0.06375  0.32930  1.0000
  C   C200      1.0  0.17626  0.08737  0.33664  1.0000
  N   N188      1.0  0.16460  0.09945  0.33533  1.0000
  C   C201      1.0  0.14104  0.08856  0.32789  1.0000
  N   N189      1.0  0.12954  0.06503  0.32120  1.0000
  C   C202      1.0  0.95819  0.09031  0.32131  1.0000
  N   N190      1.0  0.94645  0.10208  0.32987  1.0000
  C   C203      1.0  0.92282  0.09116  0.33696  1.0000
  N   N191      1.0  0.91075  0.06743  0.33560  1.0000
  C   C204      1.0  0.92165  0.05476  0.32833  1.0000
  N   N192      1.0  0.94519  0.06680  0.32189  1.0000
  N   N193      1.0  0.14334  0.35672  0.45449  1.0000
  N   N194      1.0  0.14085  0.33612  0.45064  1.0000
  N   N195      1.0  0.65401  0.78852  0.45354  1.0000
  N   N196      1.0  0.67463  0.80663  0.44980  1.0000
  N   N197      1.0  0.22199  0.86800  0.45127  1.0000
  N   N198      1.0  0.20391  0.87057  0.44814  1.0000
  N   N199      1.0  0.86919  0.65156  0.45560  1.0000
  N   N200      1.0  0.87168  0.67217  0.45306  1.0000
  N   N201      1.0  0.35867  0.21940  0.45455  1.0000
  N   N202      1.0  0.33806  0.20129  0.45075  1.0000
  N   N203      1.0  0.79064  0.14101  0.45394  1.0000
  N   N204      1.0  0.80877  0.13854  0.45017  1.0000
  C   C205      1.0  0.33110  0.14313  0.27926  1.0000
  C   C206      1.0  0.33148  0.12207  0.28151  1.0000
  C   C207      1.0  0.35310  0.12223  0.27917  1.0000
  C   C208      1.0  0.37417  0.14409  0.27242  1.0000
  N   N205      1.0  0.35277  0.10175  0.28777  1.0000
  H   H73       1.0  0.33820  0.08714  0.29190  1.0000
  H   H74       1.0  0.36679  0.10080  0.28365  1.0000
  H   H75       1.0  0.31632  0.10693  0.29312  1.0000
  C   C209      1.0  0.82014  0.67900  0.28185  1.0000
  C   C210      1.0  0.79867  0.67856  0.28307  1.0000
  C   C211      1.0  0.77726  0.65691  0.28057  1.0000
  C   C212      1.0  0.77812  0.63587  0.27424  1.0000
  N   N206      1.0  0.75706  0.65717  0.28838  1.0000
  H   H76       1.0  0.75696  0.67171  0.29276  1.0000
  H   H77       1.0  0.74210  0.64311  0.28478  1.0000
  H   H78       1.0  0.79864  0.69371  0.29457  1.0000
  C   C213      1.0  0.86667  0.18988  0.27727  1.0000
  C   C214      1.0  0.88771  0.21132  0.27995  1.0000
  C   C215      1.0  0.88756  0.23278  0.27764  1.0000
  C   C216      1.0  0.86572  0.23200  0.27058  1.0000
  N   N207      1.0  0.90805  0.25292  0.28636  1.0000
  H   H79       1.0  0.92265  0.25295  0.29062  1.0000
  H   H80       1.0  0.90902  0.26791  0.28213  1.0000
  H   H81       1.0  0.90285  0.21129  0.29168  1.0000
  C   C217      1.0  0.68091  0.86461  0.27826  1.0000
  C   C218      1.0  0.68052  0.88565  0.28094  1.0000
  C   C219      1.0  0.65890  0.88549  0.27890  1.0000
  C   C220      1.0  0.63783  0.86364  0.27200  1.0000
  N   N208      1.0  0.65924  0.90597  0.28781  1.0000
  H   H82       1.0  0.67381  0.92058  0.29201  1.0000
  H   H83       1.0  0.64522  0.90694  0.28385  1.0000
  H   H84       1.0  0.69568  0.90079  0.29250  1.0000
  C   C221      1.0  0.19206  0.32918  0.27906  1.0000
  C   C222      1.0  0.21350  0.32958  0.28135  1.0000
  C   C223      1.0  0.23495  0.35120  0.27901  1.0000
  C   C224      1.0  0.23415  0.37226  0.27223  1.0000
  N   N209      1.0  0.25511  0.35088  0.28765  1.0000
  H   H85       1.0  0.25516  0.33631  0.29179  1.0000
  H   H86       1.0  0.27008  0.36490  0.28351  1.0000
  H   H87       1.0  0.21348  0.31442  0.29300  1.0000
  C   C225      1.0  0.14528  0.81822  0.27855  1.0000
  C   C226      1.0  0.12423  0.79679  0.28175  1.0000
  C   C227      1.0  0.12437  0.77533  0.28074  1.0000
  C   C228      1.0  0.14622  0.77608  0.27428  1.0000
  N   N210      1.0  0.10390  0.75521  0.29026  1.0000
  H   H88       1.0  0.08930  0.75519  0.29480  1.0000
  H   H89       1.0  0.10294  0.74021  0.28799  1.0000
  H   H90       1.0  0.10911  0.79688  0.29337  1.0000
  C   C229      1.0  0.24380  0.44252  0.36114  1.0000
  C   C230      1.0  0.23475  0.43434  0.44795  1.0000
  C   C231      1.0  0.21219  0.42960  0.47192  1.0000
  C   C232      1.0  0.19948  0.43503  0.40906  1.0000
  N   N211      1.0  0.20342  0.42010  0.55365  1.0000
  H   H91       1.0  0.21255  0.41697  0.59664  1.0000
  H   H92       1.0  0.18864  0.41796  0.57452  1.0000
  H   H93       1.0  0.24323  0.42873  0.48960  1.0000
  C   C233      1.0  0.56771  0.80310  0.36094  1.0000
  C   C234      1.0  0.57647  0.80264  0.44713  1.0000
  C   C235      1.0  0.58137  0.78492  0.47099  1.0000
  C   C236      1.0  0.57564  0.76662  0.40855  1.0000
  N   N212      1.0  0.59128  0.78593  0.55206  1.0000
  H   H94       1.0  0.59457  0.79830  0.59469  1.0000
  H   H95       1.0  0.59348  0.77334  0.57307  1.0000
  H   H96       1.0  0.58225  0.81685  0.48819  1.0000
  C   C237      1.0  0.20683  0.76640  0.36396  1.0000
  C   C238      1.0  0.20748  0.77616  0.44923  1.0000
  C   C239      1.0  0.22527  0.79888  0.47157  1.0000
  C   C240      1.0  0.24350  0.81110  0.40855  1.0000
  N   N213      1.0  0.22437  0.80819  0.55182  1.0000
  H   H97       1.0  0.21204  0.79934  0.59491  1.0000
  H   H98       1.0  0.23702  0.82305  0.57194  1.0000
  H   H99       1.0  0.19333  0.76800  0.49073  1.0000
  C   C241      1.0  0.76842  0.56549  0.36200  1.0000
  C   C242      1.0  0.77765  0.57380  0.44853  1.0000
  C   C243      1.0  0.80031  0.57868  0.47170  1.0000
  C   C244      1.0  0.81289  0.57324  0.40827  1.0000
  N   N214      1.0  0.80922  0.58828  0.55316  1.0000
  H   H100      1.0  0.80021  0.59155  0.59624  1.0000
  H   H101      1.0  0.82413  0.59065  0.57344  1.0000
  H   H102      1.0  0.76925  0.57947  0.49022  1.0000
  C   C245      1.0  0.44444  0.20469  0.36121  1.0000
  C   C246      1.0  0.43626  0.20556  0.44801  1.0000
  C   C247      1.0  0.43153  0.22340  0.47194  1.0000
  C   C248      1.0  0.43696  0.24153  0.40906  1.0000
  N   N215      1.0  0.42202  0.22267  0.55366  1.0000
  H   H103      1.0  0.41889  0.21042  0.59667  1.0000
  H   H104      1.0  0.41989  0.23531  0.57452  1.0000
  H   H105      1.0  0.43065  0.19149  0.48967  1.0000
  C   C249      1.0  0.80519  0.24165  0.35897  1.0000
  C   C250      1.0  0.80471  0.23254  0.44546  1.0000
  C   C251      1.0  0.78697  0.20998  0.46993  1.0000
  C   C252      1.0  0.76864  0.19731  0.40773  1.0000
  N   N216      1.0  0.78800  0.20122  0.55130  1.0000
  H   H106      1.0  0.80039  0.21037  0.59376  1.0000
  H   H107      1.0  0.77540  0.18648  0.57267  1.0000
  H   H108      1.0  0.81891  0.24103  0.48649  1.0000
  N   N217      1.0  0.12455  0.46797  0.36187  1.0000
  N   N218      1.0  0.13627  0.45702  0.36813  1.0000
  N   N219      1.0  0.54241  0.65869  0.36118  1.0000
  N   N220      1.0  0.55341  0.68136  0.36747  1.0000
  N   N221      1.0  0.35138  0.88544  0.35883  1.0000
  N   N222      1.0  0.32870  0.87382  0.36484  1.0000
  N   N223      1.0  0.88768  0.54029  0.36040  1.0000
  N   N224      1.0  0.87602  0.55129  0.36670  1.0000
  N   N225      1.0  0.46997  0.34940  0.36157  1.0000
  N   N226      1.0  0.45901  0.32673  0.36787  1.0000
  N   N227      1.0  0.66065  0.12243  0.36189  1.0000
  N   N228      1.0  0.68333  0.13413  0.36806  1.0000
  C   C253      1.0  0.43806  0.12895  0.33765  1.0000
  C   C254      1.0  0.42383  0.10529  0.35895  1.0000
  C   C255      1.0  0.43342  0.09073  0.37362  1.0000
  C   C256      1.0  0.45779  0.10028  0.35846  1.0000
  N   N229      1.0  0.41862  0.06892  0.40456  1.0000
  H   H109      1.0  0.40238  0.06383  0.41609  1.0000
  H   H110      1.0  0.42423  0.05934  0.43060  1.0000
  H   H111      1.0  0.40646  0.09894  0.36891  1.0000
  C   C257      1.0  0.69907  0.57185  0.33800  1.0000
  C   C258      1.0  0.68964  0.58608  0.35931  1.0000
  C   C259      1.0  0.66548  0.57649  0.37385  1.0000
  C   C260      1.0  0.65067  0.55212  0.35864  1.0000
  N   N230      1.0  0.65846  0.59128  0.40480  1.0000
  H   H112      1.0  0.66962  0.60753  0.41638  1.0000
  H   H113      1.0  0.64327  0.58568  0.43073  1.0000
  H   H114      1.0  0.70066  0.60345  0.36938  1.0000
  C   C261      1.0  0.88096  0.31106  0.33638  1.0000
  C   C262      1.0  0.90463  0.32048  0.35731  1.0000
  C   C263      1.0  0.91922  0.34463  0.37200  1.0000
  C   C264      1.0  0.90965  0.35946  0.35737  1.0000
  N   N231      1.0  0.94106  0.35163  0.40252  1.0000
  H   H115      1.0  0.94617  0.34047  0.41368  1.0000
  H   H116      1.0  0.95070  0.36682  0.42843  1.0000
  H   H117      1.0  0.91100  0.30946  0.36692  1.0000
  C   C265      1.0  0.57400  0.87883  0.33798  1.0000
  C   C266      1.0  0.58825  0.90248  0.35934  1.0000
  C   C267      1.0  0.57868  0.91706  0.37409  1.0000
  C   C268      1.0  0.55431  0.90753  0.35897  1.0000
  N   N232      1.0  0.59352  0.93885  0.40510  1.0000
  H   H118      1.0  0.60981  0.94402  0.41593  1.0000
  H   H119      1.0  0.58807  0.94867  0.43005  1.0000
  H   H120      1.0  0.60562  0.90880  0.36942  1.0000
  C   C269      1.0  0.31318  0.43616  0.33760  1.0000
  C   C270      1.0  0.32261  0.42193  0.35873  1.0000
  C   C271      1.0  0.34676  0.43151  0.37338  1.0000
  C   C272      1.0  0.36158  0.45590  0.35842  1.0000
  N   N233      1.0  0.35378  0.41670  0.40409  1.0000
  H   H121      1.0  0.34263  0.40044  0.41546  1.0000
  H   H122      1.0  0.36897  0.42228  0.43005  1.0000
  H   H123      1.0  0.31160  0.40455  0.36856  1.0000
  C   C273      1.0  0.13112  0.69704  0.33977  1.0000
  C   C274      1.0  0.10747  0.68759  0.36112  1.0000
  C   C275      1.0  0.09292  0.66343  0.37562  1.0000
  C   C276      1.0  0.10249  0.64863  0.36030  1.0000
  N   N234      1.0  0.07111  0.65638  0.40667  1.0000
  H   H124      1.0  0.06600  0.66751  0.41834  1.0000
  H   H125      1.0  0.06154  0.64118  0.43260  1.0000
  H   H126      1.0  0.10110  0.69859  0.37126  1.0000
  C   C277      1.0  0.10611  0.19906  0.34167  1.0000
  C   C278      1.0  0.13054  0.21174  0.34991  1.0000
  C   C279      1.0  0.14289  0.23636  0.35380  1.0000
  C   C280      1.0  0.12999  0.24812  0.34564  1.0000
  N   N235      1.0  0.16618  0.24720  0.36876  1.0000
  H   H127      1.0  0.17407  0.23836  0.37727  1.0000
  H   H128      1.0  0.17503  0.26353  0.38367  1.0000
  H   H129      1.0  0.13946  0.20296  0.35554  1.0000
  C   C281      1.0  0.81114  0.90926  0.34135  1.0000
  C   C282      1.0  0.79839  0.92095  0.34944  1.0000
  C   C283      1.0  0.77377  0.90862  0.35311  1.0000
  C   C284      1.0  0.76207  0.88395  0.34493  1.0000
  N   N236      1.0  0.76287  0.92100  0.36780  1.0000
  H   H130      1.0  0.77163  0.93777  0.37550  1.0000
  H   H131      1.0  0.74647  0.91354  0.38144  1.0000
  H   H132      1.0  0.80713  0.93864  0.35514  1.0000
  C   C285      1.0  0.10096  0.90415  0.33912  1.0000
  C   C286      1.0  0.08926  0.87972  0.34747  1.0000
  C   C287      1.0  0.10156  0.86741  0.35120  1.0000
  C   C288      1.0  0.12622  0.88035  0.34264  1.0000
  N   N237      1.0  0.08916  0.84413  0.36629  1.0000
  H   H133      1.0  0.07243  0.83623  0.37500  1.0000
  H   H134      1.0  0.09666  0.83530  0.38112  1.0000
  H   H135      1.0  0.07156  0.87078  0.35338  1.0000
  C   C289      1.0  0.90608  0.80925  0.34108  1.0000
  C   C290      1.0  0.88166  0.79654  0.34970  1.0000
  C   C291      1.0  0.86936  0.77193  0.35411  1.0000
  C   C292      1.0  0.88228  0.76019  0.34591  1.0000
  N   N238      1.0  0.84609  0.76109  0.36962  1.0000
  H   H136      1.0  0.83820  0.76993  0.37811  1.0000
  H   H137      1.0  0.83728  0.74479  0.38498  1.0000
  H   H138      1.0  0.87272  0.80530  0.35539  1.0000
  C   C293      1.0  0.20098  0.09901  0.34133  1.0000
  C   C294      1.0  0.21365  0.08725  0.34967  1.0000
  C   C295      1.0  0.23826  0.09951  0.35369  1.0000
  C   C296      1.0  0.25003  0.12418  0.34553  1.0000
  N   N239      1.0  0.24910  0.08707  0.36876  1.0000
  H   H139      1.0  0.24024  0.07033  0.37726  1.0000
  H   H140      1.0  0.26542  0.09454  0.38377  1.0000
  H   H141      1.0  0.20486  0.06955  0.35530  1.0000
  C   C297      1.0  0.91115  0.10422  0.34137  1.0000
  C   C298      1.0  0.92287  0.12865  0.34932  1.0000
  C   C299      1.0  0.91057  0.14097  0.35297  1.0000
  C   C300      1.0  0.88589  0.12803  0.34493  1.0000
  N   N240      1.0  0.92298  0.16427  0.36754  1.0000
  H   H142      1.0  0.93975  0.17226  0.37516  1.0000
  H   H143      1.0  0.91554  0.17323  0.38118  1.0000
  H   H144      1.0  0.94056  0.13760  0.35492  1.0000
  N   N241      1.0  0.09138  0.53730  0.43624  1.0000
  N   N242      1.0  0.09138  0.55685  0.44071  1.0000
  N   N243      1.0  0.47290  0.55620  0.43533  1.0000
  N   N244      1.0  0.45337  0.53664  0.43977  1.0000
  N   N245      1.0  0.45404  0.91878  0.43514  1.0000
  N   N246      1.0  0.47359  0.91879  0.43997  1.0000
  N   N247      1.0  0.92071  0.47076  0.43474  1.0000
  N   N248      1.0  0.92068  0.45120  0.43898  1.0000
  N   N249      1.0  0.53935  0.45194  0.43548  1.0000
  N   N250      1.0  0.55890  0.47150  0.43976  1.0000
  N   N251      1.0  0.55797  0.08908  0.43601  1.0000
  N   N252      1.0  0.53839  0.08903  0.44025  1.0000
  C   C301      1.0  0.98214  0.43255  0.37920  1.0000
  C   C302      1.0  0.99360  0.45393  0.42530  1.0000
  C   C303      1.0  0.01804  0.46641  0.43292  1.0000
  C   C304      1.0  0.03070  0.45739  0.38742  1.0000
  N   N253      1.0  0.02783  0.48575  0.48556  1.0000
  H   H145      1.0  0.01827  0.49062  0.51790  1.0000
  H   H146      1.0  0.04389  0.49286  0.50446  1.0000
  H   H147      1.0  0.98405  0.46006  0.45678  1.0000
  C   C305      1.0  0.57763  0.55163  0.37940  1.0000
  C   C306      1.0  0.55627  0.54178  0.42563  1.0000
  C   C307      1.0  0.54382  0.55376  0.43306  1.0000
  C   C308      1.0  0.55284  0.57540  0.38725  1.0000
  N   N254      1.0  0.52451  0.54429  0.48587  1.0000
  H   H148      1.0  0.51947  0.52976  0.51777  1.0000
  H   H149      1.0  0.51718  0.55309  0.50389  1.0000
  H   H150      1.0  0.55015  0.52614  0.45745  1.0000
  C   C309      1.0  0.45820  0.02770  0.37909  1.0000
  C   C310      1.0  0.46796  0.01619  0.42588  1.0000
  C   C311      1.0  0.45598  0.99175  0.43315  1.0000
  C   C312      1.0  0.43444  0.97915  0.38666  1.0000
  N   N255      1.0  0.46535  0.98188  0.48632  1.0000
  H   H151      1.0  0.47968  0.99140  0.51930  1.0000
  H   H152      1.0  0.45633  0.96580  0.50487  1.0000
  H   H153      1.0  0.48354  0.02570  0.45806  1.0000
  C   C313      1.0  0.02997  0.57555  0.38038  1.0000
  C   C314      1.0  0.01845  0.55413  0.42617  1.0000
  C   C315      1.0  0.99400  0.54165  0.43336  1.0000
  C   C316      1.0  0.98141  0.55074  0.38783  1.0000
  N   N256      1.0  0.98413  0.52225  0.48565  1.0000
  H   H154      1.0  0.99365  0.51733  0.51804  1.0000
  H   H155      1.0  0.96806  0.51513  0.50427  1.0000
  H   H156      1.0  0.02795  0.54796  0.45771  1.0000
  C   C317      1.0  0.43463  0.45642  0.37956  1.0000
  C   C318      1.0  0.45602  0.46632  0.42560  1.0000
  C   C319      1.0  0.46849  0.45435  0.43309  1.0000
  C   C320      1.0  0.45943  0.43267  0.38758  1.0000
  N   N257      1.0  0.48784  0.46387  0.48565  1.0000
  H   H157      1.0  0.49273  0.47831  0.51803  1.0000
  H   H158      1.0  0.49494  0.45491  0.50447  1.0000
  H   H159      1.0  0.46217  0.48200  0.45712  1.0000
  C   C321      1.0  0.55383  0.98007  0.38096  1.0000
  C   C322      1.0  0.54397  0.99154  0.42738  1.0000
  C   C323      1.0  0.55592  0.01598  0.43478  1.0000
  C   C324      1.0  0.57753  0.02861  0.38879  1.0000
  N   N258      1.0  0.54645  0.02579  0.48768  1.0000
  H   H160      1.0  0.53194  0.01630  0.51968  1.0000
  H   H161      1.0  0.55524  0.04193  0.50563  1.0000
  H   H162      1.0  0.52835  0.98200  0.45928  1.0000
  N   N259      1.0  0.12522  0.13368  0.34988  1.0000
  N   N260      1.0  0.13688  0.12255  0.35327  1.0000
  N   N261      1.0  0.87651  0.99381  0.34998  1.0000
  N   N262      1.0  0.88764  0.01659  0.35348  1.0000
  N   N263      1.0  0.01643  0.88499  0.34851  1.0000
  N   N264      1.0  0.99365  0.87335  0.35214  1.0000
  N   N265      1.0  0.88691  0.87465  0.34993  1.0000
  N   N266      1.0  0.87527  0.88579  0.35352  1.0000
  N   N267      1.0  0.13560  0.01452  0.34893  1.0000
  N   N268      1.0  0.12446  0.99173  0.35222  1.0000
  N   N269      1.0  0.99569  0.12336  0.35008  1.0000
  N   N270      1.0  0.01848  0.13499  0.35356  1.0000
