data_image0
_chemical_formula_structural       C5HNO2C2HNH2C3H2NO2CNCNCNCNC3HNO2C4HNO2C3HNH2C4HNH2NO2C2HNH2C2HNH2CNCNC4HNH2C5HNH2NO2C2HNH2CHC3HNO2H2NCNC4HNO2C2HC2HC3HNH2NO2C2HC3HNH2NO2C2HC3HNH2NO2C2HC3HNH2NO2C7H2NH2NO2C7H2NH2NO2C7H2NH2NO2C7H2NH2NO2C7H2NH2NO2C3HNO2C2HC3HNH2NO2C5HNHNO2C2HNHC2HC3HNH2NO2C2HC3HNH2NO2CNCNCNCNCNCNCNCNCNCNCNCNCNCNCNCNCNCNCNCNCNCNCNCNCNCNCNCNC7H2NH2NO2C7H2NH2NO2C7H2NH2NO2C7H2NH2NO2C2HC3HNH2NO2C2HC3HNH2NO2C2HC3HNH2NO2C2HC3HNH2NO2C2HC3HNH2NO2C3HNH2C7H2NH2NO2C7H2NH2NO2C4HNO2C7H2NH2NO2C7H2NH2NO2
_chemical_formula_sum              "C252 H144 N108 O72"
_cell_length_a       59.7901
_cell_length_b       59.7902
_cell_length_c       14.8354
_cell_angle_alpha    90
_cell_angle_beta     90
_cell_angle_gamma    120

_space_group_name_H-M_alt    "P 1"
_space_group_IT_number       1

loop_
  _space_group_symop_operation_xyz
  'x, y, z'

loop_
  _atom_site_type_symbol
  _atom_site_label
  _atom_site_symmetry_multiplicity
  _atom_site_fract_x
  _atom_site_fract_y
  _atom_site_fract_z
  _atom_site_occupancy
  C   C1        1.0  0.13815  0.51806  0.32666  1.0000
  C   C2        1.0  0.11963  0.52314  0.28571  1.0000
  C   C3        1.0  0.12331  0.54840  0.28837  1.0000
  C   C4        1.0  0.14498  0.56891  0.33089  1.0000
  C   C5        1.0  0.14596  0.59318  0.33595  1.0000
  H   H1        1.0  0.10965  0.55170  0.25951  1.0000
  N   N1        1.0  0.09790  0.50321  0.24044  1.0000
  O   O1        1.0  0.07701  0.49927  0.27473  1.0000
  O   O2        1.0  0.09795  0.50811  0.15804  1.0000
  C   C6        1.0  0.03988  0.38884  0.30422  1.0000
  C   C7        1.0  0.06700  0.40610  0.30886  1.0000
  H   H2        1.0  0.07891  0.40304  0.26737  1.0000
  N   N2        1.0  0.03082  0.36824  0.24751  1.0000
  H   H3        1.0  0.04249  0.36506  0.21113  1.0000
  H   H4        1.0  0.01253  0.35558  0.24340  1.0000
  C   C8        1.0  0.08462  0.67119  0.34006  1.0000
  C   C9        1.0  0.06840  0.65574  0.26874  1.0000
  C   C10       1.0  0.04127  0.64486  0.27541  1.0000
  H   H5        1.0  0.02994  0.63323  0.22417  1.0000
  H   H6        1.0  0.01216  0.67164  0.24344  1.0000
  N   N3        1.0  0.07964  0.65109  0.19206  1.0000
  O   O3        1.0  0.07192  0.62745  0.18233  1.0000
  O   O4        1.0  0.07479  0.65943  0.12131  1.0000
  C   C11       1.0  0.10476  0.44751  0.35480  1.0000
  N   N4        1.0  0.12511  0.44307  0.35049  1.0000
  C   C12       1.0  0.13430  0.49255  0.33301  1.0000
  N   N5        1.0  0.11019  0.47228  0.34512  1.0000
  C   C13       1.0  0.11106  0.67778  0.34383  1.0000
  N   N6        1.0  0.13196  0.70225  0.34808  1.0000
  C   C14       1.0  0.13959  0.66100  0.34620  1.0000
  N   N7        1.0  0.11549  0.65766  0.34387  1.0000
  C   C15       1.0  0.14279  0.63907  0.34727  1.0000
  C   C16       1.0  0.12959  0.61898  0.41099  1.0000
  C   C17       1.0  0.13147  0.59638  0.40477  1.0000
  H   H7        1.0  0.12169  0.58190  0.45069  1.0000
  N   N8        1.0  0.11520  0.62199  0.48106  1.0000
  O   O5        1.0  0.12408  0.62148  0.55733  1.0000
  O   O6        1.0  0.09179  0.60480  0.47808  1.0000
  C   C18       1.0  0.07803  0.42835  0.36422  1.0000
  C   C19       1.0  0.06104  0.43273  0.41904  1.0000
  C   C20       1.0  0.03406  0.41542  0.41562  1.0000
  C   C21       1.0  0.02300  0.39362  0.35832  1.0000
  H   H8        1.0  0.02223  0.41938  0.45412  1.0000
  N   N9        1.0  0.07121  0.45439  0.47755  1.0000
  O   O7        1.0  0.06279  0.46934  0.45882  1.0000
  O   O8        1.0  0.06622  0.44769  0.55867  1.0000
  C   C22       1.0  0.02943  0.64830  0.35260  1.0000
  C   C23       1.0  0.04563  0.66378  0.42448  1.0000
  C   C24       1.0  0.07288  0.67511  0.41653  1.0000
  H   H9        1.0  0.08434  0.68524  0.46996  1.0000
  N   N10       1.0  0.03582  0.66787  0.50149  1.0000
  H   H10       1.0  0.01740  0.66108  0.50946  1.0000
  H   H11       1.0  0.04704  0.67849  0.55007  1.0000
  C   C25       1.0  0.24725  0.43727  0.31123  1.0000
  C   C26       1.0  0.17213  0.45943  0.33582  1.0000
  C   C27       1.0  0.19258  0.47303  0.27325  1.0000
  C   C28       1.0  0.21527  0.47114  0.27849  1.0000
  H   H12       1.0  0.22977  0.48123  0.23296  1.0000
  N   N11       1.0  0.22801  0.41593  0.27032  1.0000
  H   H13       1.0  0.23111  0.40275  0.24465  1.0000
  H   H14       1.0  0.21058  0.41311  0.26516  1.0000
  N   N12       1.0  0.18989  0.48792  0.20428  1.0000
  O   O9        1.0  0.20713  0.51130  0.20897  1.0000
  O   O10       1.0  0.19051  0.47949  0.12728  1.0000
  C   C29       1.0  0.20112  0.77869  0.31124  1.0000
  C   C30       1.0  0.17898  0.75354  0.31540  1.0000
  H   H15       1.0  0.16218  0.75065  0.28656  1.0000
  N   N13       1.0  0.19901  0.79793  0.27034  1.0000
  H   H16       1.0  0.18273  0.79483  0.24468  1.0000
  H   H17       1.0  0.21362  0.81536  0.26518  1.0000
  C   C31       1.0  0.15945  0.61335  0.27228  1.0000
  C   C32       1.0  0.15790  0.63618  0.28000  1.0000
  H   H18       1.0  0.16705  0.65052  0.23308  1.0000
  N   N14       1.0  0.17335  0.61131  0.20337  1.0000
  H   H19       1.0  0.17481  0.59597  0.19499  1.0000
  H   H20       1.0  0.18231  0.62522  0.16001  1.0000
  C   C33       1.0  0.15001  0.46285  0.33865  1.0000
  N   N15       1.0  0.15393  0.48730  0.33131  1.0000
  C   C34       1.0  0.15683  0.70668  0.35078  1.0000
  N   N16       1.0  0.15983  0.68551  0.34843  1.0000
  C   C35       1.0  0.24297  0.45677  0.34852  1.0000
  C   C36       1.0  0.21858  0.45612  0.34501  1.0000
  C   C37       1.0  0.19811  0.44222  0.40750  1.0000
  C   C38       1.0  0.17523  0.44388  0.40097  1.0000
  H   H21       1.0  0.16091  0.43439  0.44765  1.0000
  N   N17       1.0  0.19997  0.42777  0.47480  1.0000
  H   H22       1.0  0.21530  0.42626  0.48273  1.0000
  H   H23       1.0  0.18598  0.41852  0.51764  1.0000
  C   C39       1.0  0.17947  0.73210  0.35417  1.0000
  C   C40       1.0  0.20331  0.73683  0.39265  1.0000
  C   C41       1.0  0.22541  0.76187  0.38902  1.0000
  C   C42       1.0  0.22490  0.78297  0.34851  1.0000
  C   C43       1.0  0.24863  0.80736  0.34500  1.0000
  H   H24       1.0  0.24231  0.76465  0.41684  1.0000
  N   N18       1.0  0.23890  0.82596  0.47481  1.0000
  H   H25       1.0  0.22206  0.81063  0.48274  1.0000
  H   H26       1.0  0.24364  0.83995  0.51765  1.0000
  N   N19       1.0  0.20499  0.71674  0.43720  1.0000
  O   O11       1.0  0.22121  0.71210  0.40055  1.0000
  O   O12       1.0  0.21057  0.72167  0.51919  1.0000
  C   C44       1.0  0.16396  0.56426  0.37026  1.0000
  C   C45       1.0  0.16027  0.53893  0.36657  1.0000
  H   H27       1.0  0.17358  0.53545  0.39720  1.0000
  N   N20       1.0  0.18524  0.58313  0.41262  1.0000
  H   H28       1.0  0.19802  0.57962  0.43951  1.0000
  H   H29       1.0  0.18852  0.60074  0.41710  1.0000
  C   C46       1.0  0.27240  0.44029  0.31539  1.0000
  H   H30       1.0  0.27529  0.42638  0.28654  1.0000
  C   C47       1.0  0.29840  0.85381  0.33583  1.0000
  C   C48       1.0  0.29154  0.83336  0.27324  1.0000
  C   C49       1.0  0.26696  0.81067  0.27848  1.0000
  H   H31       1.0  0.26256  0.79617  0.23293  1.0000
  N   N21       1.0  0.30913  0.83606  0.20427  1.0000
  O   O13       1.0  0.31527  0.81882  0.20893  1.0000
  O   O14       1.0  0.30008  0.83545  0.12727  1.0000
  H   H32       1.0  0.33523  0.94703  0.26732  1.0000
  H   H33       1.0  0.33366  0.98345  0.21110  1.0000
  N   N22       1.0  0.32906  0.90082  0.35046  1.0000
  C   C50       1.0  0.32393  0.87593  0.33867  1.0000
  N   N23       1.0  0.32369  0.44455  0.34811  1.0000
  C   C51       1.0  0.31926  0.46499  0.35077  1.0000
  C   C52       1.0  0.29384  0.46221  0.35416  1.0000
  C   C53       1.0  0.28911  0.48132  0.39267  1.0000
  C   C54       1.0  0.26407  0.47838  0.38905  1.0000
  H   H34       1.0  0.26128  0.49249  0.41688  1.0000
  N   N24       1.0  0.30920  0.50309  0.43724  1.0000
  O   O15       1.0  0.31383  0.52394  0.40062  1.0000
  O   O16       1.0  0.30426  0.50373  0.51924  1.0000
  C   C55       1.0  0.25521  0.82783  0.40750  1.0000
  C   C56       1.0  0.27975  0.85071  0.40098  1.0000
  H   H35       1.0  0.28459  0.86503  0.44767  1.0000
  C   C57       1.0  0.58867  0.82482  0.31123  1.0000
  C   C58       1.0  0.58566  0.84695  0.31541  1.0000
  H   H36       1.0  0.59955  0.86375  0.28652  1.0000
  C   C59       1.0  0.56653  0.72755  0.33577  1.0000
  C   C60       1.0  0.55293  0.73440  0.27321  1.0000
  C   C61       1.0  0.55482  0.75898  0.27846  1.0000
  H   H37       1.0  0.54472  0.76339  0.23293  1.0000
  N   N25       1.0  0.61001  0.82692  0.27031  1.0000
  H   H38       1.0  0.62319  0.84320  0.24462  1.0000
  H   H39       1.0  0.61283  0.81231  0.26514  1.0000
  N   N26       1.0  0.53804  0.71682  0.20424  1.0000
  O   O17       1.0  0.51466  0.71068  0.20892  1.0000
  O   O18       1.0  0.54647  0.72587  0.12724  1.0000
  C   C62       1.0  0.77744  0.58990  0.31127  1.0000
  C   C63       1.0  0.75229  0.58689  0.31544  1.0000
  H   H40       1.0  0.74940  0.60080  0.28658  1.0000
  C   C64       1.0  0.85256  0.56776  0.33577  1.0000
  C   C65       1.0  0.83210  0.55415  0.27324  1.0000
  C   C66       1.0  0.80942  0.55604  0.27848  1.0000
  H   H41       1.0  0.79491  0.54593  0.23296  1.0000
  N   N27       1.0  0.79668  0.61125  0.27038  1.0000
  H   H42       1.0  0.79358  0.62443  0.24473  1.0000
  H   H43       1.0  0.81411  0.61407  0.26522  1.0000
  N   N28       1.0  0.83479  0.53925  0.20429  1.0000
  O   O19       1.0  0.81756  0.51587  0.20900  1.0000
  O   O20       1.0  0.83417  0.54768  0.12727  1.0000
  C   C67       1.0  0.43601  0.20236  0.31124  1.0000
  C   C68       1.0  0.43903  0.18022  0.31540  1.0000
  H   H44       1.0  0.42512  0.16342  0.28656  1.0000
  C   C69       1.0  0.45817  0.29964  0.33582  1.0000
  C   C70       1.0  0.47177  0.29278  0.27326  1.0000
  C   C71       1.0  0.46988  0.26821  0.27850  1.0000
  H   H45       1.0  0.47998  0.26380  0.23296  1.0000
  N   N29       1.0  0.41467  0.20025  0.27034  1.0000
  H   H46       1.0  0.40149  0.18397  0.24468  1.0000
  H   H47       1.0  0.41185  0.21486  0.26518  1.0000
  N   N30       1.0  0.48667  0.31037  0.20429  1.0000
  O   O21       1.0  0.51004  0.31651  0.20899  1.0000
  O   O22       1.0  0.47823  0.30132  0.12729  1.0000
  C   C72       1.0  0.82356  0.24848  0.31123  1.0000
  C   C73       1.0  0.84570  0.27363  0.31541  1.0000
  H   H48       1.0  0.86249  0.27653  0.28654  1.0000
  C   C74       1.0  0.72629  0.17336  0.33576  1.0000
  C   C75       1.0  0.73315  0.19381  0.27320  1.0000
  C   C76       1.0  0.75772  0.21650  0.27845  1.0000
  H   H49       1.0  0.76213  0.23100  0.23291  1.0000
  N   N31       1.0  0.82567  0.22925  0.27033  1.0000
  H   H50       1.0  0.84195  0.23235  0.24467  1.0000
  H   H51       1.0  0.81106  0.21182  0.26517  1.0000
  N   N32       1.0  0.71556  0.19112  0.20424  1.0000
  O   O23       1.0  0.70942  0.20835  0.20893  1.0000
  O   O24       1.0  0.72461  0.19173  0.12723  1.0000
  C   C77       1.0  0.50788  0.63494  0.32668  1.0000
  C   C78       1.0  0.50280  0.61135  0.28565  1.0000
  C   C79       1.0  0.47753  0.58977  0.28829  1.0000
  C   C80       1.0  0.45703  0.59093  0.33080  1.0000
  C   C81       1.0  0.43276  0.56763  0.33590  1.0000
  C   C82       1.0  0.41257  0.56096  0.27233  1.0000
  C   C83       1.0  0.38973  0.53660  0.28015  1.0000
  H   H52       1.0  0.37540  0.53140  0.23319  1.0000
  H   H53       1.0  0.47424  0.57282  0.25936  1.0000
  N   N33       1.0  0.41459  0.57690  0.20344  1.0000
  H   H54       1.0  0.42994  0.59369  0.19499  1.0000
  H   H55       1.0  0.40067  0.57196  0.16016  1.0000
  N   N34       1.0  0.52272  0.60955  0.24035  1.0000
  O   O25       1.0  0.52666  0.59260  0.27459  1.0000
  O   O26       1.0  0.51782  0.60471  0.15795  1.0000
  C   C84       1.0  0.39101  0.88778  0.32664  1.0000
  C   C85       1.0  0.41460  0.90630  0.28569  1.0000
  C   C86       1.0  0.43619  0.90262  0.28835  1.0000
  C   C87       1.0  0.43503  0.88096  0.33087  1.0000
  C   C88       1.0  0.45831  0.87997  0.33593  1.0000
  C   C89       1.0  0.46499  0.86649  0.27223  1.0000
  C   C90       1.0  0.48937  0.86803  0.27994  1.0000
  H   H56       1.0  0.49456  0.85889  0.23300  1.0000
  H   H57       1.0  0.45314  0.91628  0.25948  1.0000
  N   N35       1.0  0.44906  0.85260  0.20330  1.0000
  H   H58       1.0  0.43225  0.85114  0.19491  1.0000
  H   H59       1.0  0.45400  0.84364  0.15993  1.0000
  N   N36       1.0  0.41641  0.92803  0.24041  1.0000
  O   O27       1.0  0.43336  0.94892  0.27471  1.0000
  O   O28       1.0  0.42126  0.92799  0.15802  1.0000
  C   C91       1.0  0.88654  0.50912  0.32670  1.0000
  C   C92       1.0  0.90505  0.50404  0.28570  1.0000
  C   C93       1.0  0.90137  0.47878  0.28833  1.0000
  C   C94       1.0  0.87970  0.45827  0.33082  1.0000
  C   C95       1.0  0.87874  0.43401  0.33590  1.0000
  C   C96       1.0  0.86521  0.41381  0.27235  1.0000
  C   C97       1.0  0.86673  0.39097  0.28015  1.0000
  H   H60       1.0  0.85759  0.37664  0.23320  1.0000
  H   H61       1.0  0.91503  0.47549  0.25943  1.0000
  N   N37       1.0  0.85129  0.41584  0.20346  1.0000
  H   H62       1.0  0.84985  0.43119  0.19501  1.0000
  H   H63       1.0  0.84230  0.40191  0.16018  1.0000
  N   N38       1.0  0.92678  0.52397  0.24042  1.0000
  O   O29       1.0  0.94767  0.52791  0.27469  1.0000
  O   O30       1.0  0.92673  0.51907  0.15801  1.0000
  C   C98       1.0  0.51680  0.39225  0.32668  1.0000
  C   C99       1.0  0.52188  0.41585  0.28575  1.0000
  C   C100      1.0  0.54714  0.43743  0.28840  1.0000
  C   C101      1.0  0.56765  0.43627  0.33090  1.0000
  C   C102      1.0  0.59191  0.45956  0.33596  1.0000
  C   C103      1.0  0.61209  0.46624  0.27229  1.0000
  C   C104      1.0  0.63492  0.49061  0.28002  1.0000
  H   H64       1.0  0.64926  0.49580  0.23310  1.0000
  H   H65       1.0  0.55043  0.45439  0.25955  1.0000
  N   N39       1.0  0.61005  0.45029  0.20339  1.0000
  H   H66       1.0  0.59471  0.43349  0.19501  1.0000
  H   H67       1.0  0.62396  0.45524  0.16005  1.0000
  N   N40       1.0  0.50195  0.41766  0.24049  1.0000
  O   O31       1.0  0.49801  0.43460  0.27481  1.0000
  O   O32       1.0  0.50684  0.42251  0.15809  1.0000
  C   C105      1.0  0.63368  0.13939  0.32669  1.0000
  C   C106      1.0  0.61009  0.12088  0.28569  1.0000
  C   C107      1.0  0.58851  0.12457  0.28832  1.0000
  C   C108      1.0  0.58967  0.14623  0.33082  1.0000
  C   C109      1.0  0.56637  0.14720  0.33591  1.0000
  C   C110      1.0  0.55971  0.16073  0.27235  1.0000
  C   C111      1.0  0.53534  0.15920  0.28016  1.0000
  H   H68       1.0  0.53014  0.16834  0.23321  1.0000
  H   H69       1.0  0.57156  0.11091  0.25941  1.0000
  N   N41       1.0  0.57565  0.17464  0.20345  1.0000
  H   H70       1.0  0.59244  0.17609  0.19500  1.0000
  H   H71       1.0  0.57071  0.18363  0.16018  1.0000
  N   N42       1.0  0.60829  0.09916  0.24040  1.0000
  O   O33       1.0  0.59134  0.07827  0.27466  1.0000
  O   O34       1.0  0.60345  0.09921  0.15799  1.0000
  C   C112      1.0  0.94006  0.35598  0.34016  1.0000
  C   C113      1.0  0.95628  0.37145  0.26884  1.0000
  C   C114      1.0  0.98341  0.38234  0.27549  1.0000
  H   H72       1.0  0.99473  0.39397  0.22422  1.0000
  N   N43       1.0  0.94503  0.37609  0.19213  1.0000
  O   O35       1.0  0.95274  0.39973  0.18241  1.0000
  O   O36       1.0  0.94989  0.36775  0.12139  1.0000
  C   C115      1.0  0.63712  0.66590  0.30426  1.0000
  C   C116      1.0  0.61987  0.67577  0.30888  1.0000
  H   H73       1.0  0.62292  0.69072  0.26737  1.0000
  C   C117      1.0  0.66995  0.59891  0.34007  1.0000
  C   C118      1.0  0.65450  0.59969  0.26874  1.0000
  C   C119      1.0  0.64362  0.61594  0.27541  1.0000
  H   H74       1.0  0.63200  0.61564  0.22416  1.0000
  N   N44       1.0  0.65774  0.67745  0.24760  1.0000
  H   H75       1.0  0.66093  0.69231  0.21124  1.0000
  H   H76       1.0  0.67040  0.67183  0.24354  1.0000
  N   N45       1.0  0.64986  0.58381  0.19204  1.0000
  O   O37       1.0  0.62622  0.56789  0.18229  1.0000
  O   O38       1.0  0.65821  0.59700  0.12130  1.0000
  C   C120      1.0  0.36005  0.98605  0.30420  1.0000
  C   C121      1.0  0.35018  0.95893  0.30882  1.0000
  C   C122      1.0  0.42703  0.08586  0.34022  1.0000
  C   C123      1.0  0.42628  0.06966  0.26886  1.0000
  C   C124      1.0  0.41003  0.04253  0.27550  1.0000
  H   H77       1.0  0.41034  0.03120  0.22425  1.0000
  N   N46       1.0  0.34850  0.99512  0.24749  1.0000
  H   H78       1.0  0.35413  0.01340  0.24340  1.0000
  N   N47       1.0  0.44218  0.08090  0.19219  1.0000
  O   O39       1.0  0.45810  0.07318  0.18247  1.0000
  O   O40       1.0  0.42900  0.07606  0.12142  1.0000
  C   C125      1.0  0.98481  0.63837  0.30420  1.0000
  C   C126      1.0  0.95769  0.62111  0.30883  1.0000
  H   H79       1.0  0.94579  0.62416  0.26727  1.0000
  N   N48       1.0  0.99388  0.65897  0.24751  1.0000
  H   H80       1.0  0.98221  0.66216  0.21111  1.0000
  C   C127      1.0  0.38758  0.36130  0.30418  1.0000
  C   C128      1.0  0.40484  0.35143  0.30884  1.0000
  H   H81       1.0  0.40179  0.33648  0.26733  1.0000
  C   C129      1.0  0.35477  0.42829  0.34021  1.0000
  C   C130      1.0  0.37023  0.42754  0.26887  1.0000
  C   C131      1.0  0.38111  0.41129  0.27552  1.0000
  H   H82       1.0  0.39274  0.41160  0.22427  1.0000
  N   N49       1.0  0.36699  0.34977  0.24745  1.0000
  H   H83       1.0  0.36381  0.33492  0.21105  1.0000
  H   H84       1.0  0.35433  0.35540  0.24333  1.0000
  N   N50       1.0  0.37488  0.44344  0.19220  1.0000
  O   O41       1.0  0.39853  0.45937  0.18252  1.0000
  O   O42       1.0  0.36655  0.43027  0.12143  1.0000
  C   C132      1.0  0.66465  0.04112  0.30422  1.0000
  C   C133      1.0  0.67452  0.06824  0.30885  1.0000
  H   H85       1.0  0.68947  0.08015  0.26731  1.0000
  C   C134      1.0  0.59766  0.94132  0.34009  1.0000
  C   C135      1.0  0.59842  0.95753  0.26875  1.0000
  C   C136      1.0  0.61468  0.98466  0.27542  1.0000
  H   H86       1.0  0.61437  0.99599  0.22419  1.0000
  N   N51       1.0  0.67620  0.03205  0.24754  1.0000
  H   H87       1.0  0.69105  0.04372  0.21116  1.0000
  H   H88       1.0  0.67057  0.01376  0.24346  1.0000
  N   N52       1.0  0.58252  0.94629  0.19209  1.0000
  O   O43       1.0  0.56661  0.95402  0.18238  1.0000
  O   O44       1.0  0.59570  0.95113  0.12132  1.0000
  C   C137      1.0  0.57843  0.67208  0.35472  1.0000
  N   N53       1.0  0.58288  0.69688  0.35044  1.0000
  C   C138      1.0  0.56310  0.70201  0.33864  1.0000
  N   N54       1.0  0.53865  0.68148  0.33133  1.0000
  C   C139      1.0  0.53339  0.65659  0.33304  1.0000
  N   N55       1.0  0.55366  0.65275  0.34508  1.0000
  C   C140      1.0  0.35385  0.92118  0.35470  1.0000
  N   N56       1.0  0.34447  0.87201  0.33132  1.0000
  C   C141      1.0  0.36935  0.89164  0.33300  1.0000
  N   N57       1.0  0.37319  0.91575  0.34506  1.0000
  C   C142      1.0  0.91993  0.57967  0.35466  1.0000
  N   N58       1.0  0.89958  0.58411  0.35042  1.0000
  C   C143      1.0  0.87467  0.56433  0.33864  1.0000
  N   N59       1.0  0.87076  0.53988  0.33135  1.0000
  C   C144      1.0  0.89039  0.53463  0.33306  1.0000
  N   N60       1.0  0.91450  0.55490  0.34507  1.0000
  C   C145      1.0  0.44625  0.35509  0.35480  1.0000
  N   N61       1.0  0.44181  0.33029  0.35049  1.0000
  C   C146      1.0  0.46159  0.32517  0.33865  1.0000
  N   N62       1.0  0.48604  0.34571  0.33132  1.0000
  C   C147      1.0  0.49129  0.37059  0.33303  1.0000
  N   N63       1.0  0.47102  0.37443  0.34513  1.0000
  C   C148      1.0  0.67083  0.10599  0.35471  1.0000
  N   N64       1.0  0.69563  0.12634  0.35042  1.0000
  C   C149      1.0  0.70075  0.15125  0.33863  1.0000
  N   N65       1.0  0.68022  0.15517  0.33133  1.0000
  C   C150      1.0  0.65533  0.13553  0.33305  1.0000
  N   N66       1.0  0.65150  0.11143  0.34509  1.0000
  C   C151      1.0  0.44688  0.11231  0.34387  1.0000
  N   N67       1.0  0.44330  0.13320  0.34811  1.0000
  C   C152      1.0  0.46374  0.15807  0.35077  1.0000
  N   N68       1.0  0.48791  0.16108  0.34843  1.0000
  C   C153      1.0  0.49219  0.14084  0.34622  1.0000
  N   N69       1.0  0.47144  0.11674  0.34393  1.0000
  C   C154      1.0  0.67653  0.57906  0.34383  1.0000
  N   N70       1.0  0.70100  0.58263  0.34808  1.0000
  C   C155      1.0  0.70543  0.56218  0.35077  1.0000
  N   N71       1.0  0.68425  0.53802  0.34842  1.0000
  C   C156      1.0  0.65974  0.53375  0.34620  1.0000
  N   N72       1.0  0.65640  0.55450  0.34387  1.0000
  C   C157      1.0  0.91362  0.34939  0.34381  1.0000
  N   N73       1.0  0.89272  0.32492  0.34806  1.0000
  C   C158      1.0  0.86785  0.32049  0.35075  1.0000
  N   N74       1.0  0.86485  0.34167  0.34841  1.0000
  C   C159      1.0  0.88508  0.36618  0.34620  1.0000
  N   N75       1.0  0.90919  0.36952  0.34389  1.0000
  C   C160      1.0  0.57781  0.91487  0.34380  1.0000
  N   N76       1.0  0.58139  0.89398  0.34808  1.0000
  C   C161      1.0  0.56095  0.86910  0.35076  1.0000
  N   N77       1.0  0.53678  0.86610  0.34840  1.0000
  C   C162      1.0  0.53250  0.88633  0.34615  1.0000
  N   N78       1.0  0.55325  0.91044  0.34383  1.0000
  C   C163      1.0  0.34816  0.44813  0.34387  1.0000
  N   N79       1.0  0.34043  0.48917  0.34842  1.0000
  C   C164      1.0  0.36494  0.49345  0.34622  1.0000
  N   N80       1.0  0.36829  0.47269  0.34392  1.0000
  C   C165      1.0  0.56374  0.84647  0.35418  1.0000
  C   C166      1.0  0.54462  0.82263  0.39268  1.0000
  C   C167      1.0  0.54756  0.80052  0.38906  1.0000
  C   C168      1.0  0.56918  0.80104  0.34855  1.0000
  C   C169      1.0  0.56982  0.77730  0.34502  1.0000
  C   C170      1.0  0.58372  0.77072  0.40751  1.0000
  C   C171      1.0  0.58208  0.74620  0.40091  1.0000
  H   H89       1.0  0.59153  0.74134  0.44768  1.0000
  H   H90       1.0  0.53345  0.78363  0.41689  1.0000
  N   N81       1.0  0.59815  0.78702  0.47486  1.0000
  H   H91       1.0  0.59964  0.80385  0.48284  1.0000
  H   H92       1.0  0.60741  0.78229  0.51769  1.0000
  N   N82       1.0  0.52285  0.82094  0.43722  1.0000
  O   O45       1.0  0.50200  0.80473  0.40059  1.0000
  O   O46       1.0  0.52220  0.81537  0.51922  1.0000
  C   C172      1.0  0.73085  0.56497  0.35415  1.0000
  C   C173      1.0  0.73557  0.54584  0.39262  1.0000
  C   C174      1.0  0.76061  0.54878  0.38901  1.0000
  C   C175      1.0  0.78172  0.57040  0.34854  1.0000
  C   C176      1.0  0.80610  0.57105  0.34502  1.0000
  C   C177      1.0  0.82658  0.58495  0.40748  1.0000
  C   C178      1.0  0.84947  0.58332  0.40089  1.0000
  H   H93       1.0  0.86378  0.59278  0.44764  1.0000
  H   H94       1.0  0.76339  0.53467  0.41681  1.0000
  N   N83       1.0  0.82471  0.59939  0.47481  1.0000
  H   H95       1.0  0.80938  0.60089  0.48279  1.0000
  H   H96       1.0  0.83871  0.60865  0.51763  1.0000
  N   N84       1.0  0.71547  0.52406  0.43713  1.0000
  O   O47       1.0  0.71084  0.50322  0.40046  1.0000
  O   O48       1.0  0.72040  0.52341  0.51913  1.0000
  C   C179      1.0  0.46095  0.18071  0.35416  1.0000
  C   C180      1.0  0.48007  0.20455  0.39266  1.0000
  C   C181      1.0  0.47713  0.22666  0.38903  1.0000
  C   C182      1.0  0.45551  0.22614  0.34852  1.0000
  C   C183      1.0  0.45486  0.24987  0.34501  1.0000
  C   C184      1.0  0.44096  0.25645  0.40750  1.0000
  C   C185      1.0  0.44262  0.28099  0.40096  1.0000
  H   H97       1.0  0.43313  0.28582  0.44764  1.0000
  H   H98       1.0  0.49124  0.24355  0.41687  1.0000
  N   N85       1.0  0.42651  0.24014  0.47480  1.0000
  H   H99       1.0  0.42500  0.22330  0.48272  1.0000
  H   H100      1.0  0.41726  0.24487  0.51763  1.0000
  N   N86       1.0  0.50184  0.20624  0.43722  1.0000
  O   O49       1.0  0.52269  0.22245  0.40059  1.0000
  O   O50       1.0  0.50248  0.21181  0.51921  1.0000
  C   C186      1.0  0.84521  0.29507  0.35414  1.0000
  C   C187      1.0  0.82137  0.29035  0.39262  1.0000
  C   C188      1.0  0.79926  0.26531  0.38901  1.0000
  C   C189      1.0  0.79978  0.24420  0.34852  1.0000
  C   C190      1.0  0.77604  0.21982  0.34500  1.0000
  C   C191      1.0  0.76947  0.19934  0.40748  1.0000
  C   C192      1.0  0.74494  0.17645  0.40089  1.0000
  H   H101      1.0  0.74009  0.16215  0.44766  1.0000
  H   H102      1.0  0.78237  0.26253  0.41682  1.0000
  N   N87       1.0  0.78577  0.20121  0.47482  1.0000
  H   H103      1.0  0.80260  0.21655  0.48280  1.0000
  H   H104      1.0  0.78104  0.18722  0.51765  1.0000
  N   N88       1.0  0.81968  0.31044  0.43714  1.0000
  O   O51       1.0  0.80347  0.31507  0.40049  1.0000
  O   O52       1.0  0.81410  0.30551  0.51914  1.0000
  C   C193      1.0  0.46168  0.61455  0.37026  1.0000
  C   C194      1.0  0.48701  0.63619  0.36657  1.0000
  H   H105      1.0  0.49049  0.65297  0.39730  1.0000
  C   C195      1.0  0.38686  0.51858  0.34732  1.0000
  C   C196      1.0  0.40697  0.52547  0.41095  1.0000
  C   C197      1.0  0.42957  0.54995  0.40471  1.0000
  H   H106      1.0  0.44407  0.55464  0.45056  1.0000
  N   N89       1.0  0.44281  0.61695  0.41268  1.0000
  H   H107      1.0  0.44632  0.63323  0.43963  1.0000
  H   H108      1.0  0.42520  0.60262  0.41714  1.0000
  N   N90       1.0  0.40398  0.50805  0.48096  1.0000
  O   O53       1.0  0.40452  0.51744  0.55727  1.0000
  O   O54       1.0  0.42118  0.50184  0.47786  1.0000
  C   C198      1.0  0.41140  0.86198  0.37025  1.0000
  C   C199      1.0  0.38976  0.86567  0.36655  1.0000
  H   H109      1.0  0.37297  0.85235  0.39720  1.0000
  C   C200      1.0  0.50737  0.88313  0.34724  1.0000
  C   C201      1.0  0.50047  0.89632  0.41098  1.0000
  C   C202      1.0  0.47600  0.89444  0.40476  1.0000
  H   H110      1.0  0.47130  0.90423  0.45070  1.0000
  N   N91       1.0  0.40898  0.84069  0.41261  1.0000
  H   H111      1.0  0.39270  0.82792  0.43951  1.0000
  H   H112      1.0  0.42331  0.83741  0.41708  1.0000
  N   N92       1.0  0.51788  0.91071  0.48107  1.0000
  O   O55       1.0  0.50848  0.90182  0.55733  1.0000
  O   O56       1.0  0.52409  0.93412  0.47812  1.0000
  C   C203      1.0  0.86073  0.46292  0.37026  1.0000
  C   C204      1.0  0.86442  0.48825  0.36657  1.0000
  H   H113      1.0  0.85111  0.49173  0.39728  1.0000
  C   C205      1.0  0.88188  0.38810  0.34731  1.0000
  C   C206      1.0  0.89511  0.40821  0.41093  1.0000
  C   C207      1.0  0.89323  0.43081  0.40470  1.0000
  H   H114      1.0  0.90304  0.44532  0.45054  1.0000
  N   N93       1.0  0.83945  0.44405  0.41265  1.0000
  H   H115      1.0  0.82668  0.44756  0.43958  1.0000
  H   H116      1.0  0.83618  0.42644  0.41711  1.0000
  N   N94       1.0  0.90954  0.40522  0.48094  1.0000
  O   O57       1.0  0.90069  0.40576  0.55725  1.0000
  O   O58       1.0  0.93295  0.42242  0.47782  1.0000
  C   C208      1.0  0.56300  0.41264  0.37025  1.0000
  C   C209      1.0  0.53767  0.39100  0.36656  1.0000
  H   H117      1.0  0.53419  0.37421  0.39718  1.0000
  C   C210      1.0  0.63781  0.50862  0.34727  1.0000
  C   C211      1.0  0.61772  0.50172  0.41098  1.0000
  C   C212      1.0  0.59512  0.47725  0.40477  1.0000
  H   H118      1.0  0.58063  0.47255  0.45068  1.0000
  N   N95       1.0  0.58187  0.41022  0.41259  1.0000
  H   H119      1.0  0.57836  0.39394  0.43947  1.0000
  H   H120      1.0  0.59948  0.42456  0.41706  1.0000
  N   N96       1.0  0.62073  0.51914  0.48105  1.0000
  O   O59       1.0  0.62022  0.50974  0.55732  1.0000
  O   O60       1.0  0.60354  0.52535  0.47806  1.0000
  C   C213      1.0  0.61329  0.16520  0.37026  1.0000
  C   C214      1.0  0.63493  0.16152  0.36656  1.0000
  H   H121      1.0  0.65172  0.17482  0.39728  1.0000
  C   C215      1.0  0.51733  0.14405  0.34732  1.0000
  C   C216      1.0  0.52421  0.13083  0.41095  1.0000
  C   C217      1.0  0.54869  0.13271  0.40471  1.0000
  H   H122      1.0  0.55338  0.12290  0.45056  1.0000
  N   N97       1.0  0.61570  0.18648  0.41266  1.0000
  H   H123      1.0  0.63198  0.19925  0.43959  1.0000
  H   H124      1.0  0.60137  0.18976  0.41712  1.0000
  N   N98       1.0  0.50679  0.11640  0.48097  1.0000
  O   O61       1.0  0.51618  0.12525  0.55727  1.0000
  O   O62       1.0  0.50058  0.09299  0.47786  1.0000
  C   C218      1.0  0.99525  0.37888  0.35261  1.0000
  C   C219      1.0  0.97906  0.36341  0.42452  1.0000
  C   C220      1.0  0.95181  0.35210  0.41662  1.0000
  H   H125      1.0  0.94036  0.34193  0.47000  1.0000
  N   N99       1.0  0.98889  0.35932  0.50150  1.0000
  H   H126      1.0  0.00730  0.36609  0.50942  1.0000
  H   H127      1.0  0.97767  0.34871  0.55010  1.0000
  C   C221      1.0  0.59759  0.66450  0.36409  1.0000
  C   C222      1.0  0.59320  0.64314  0.41895  1.0000
  C   C223      1.0  0.61052  0.63347  0.41555  1.0000
  C   C224      1.0  0.63234  0.64424  0.35836  1.0000
  C   C225      1.0  0.64705  0.63121  0.35261  1.0000
  C   C226      1.0  0.66253  0.63048  0.42451  1.0000
  C   C227      1.0  0.67386  0.61456  0.41656  1.0000
  H   H128      1.0  0.68398  0.61322  0.46999  1.0000
  H   H129      1.0  0.60655  0.61769  0.45407  1.0000
  N   N100      1.0  0.66660  0.64437  0.50153  1.0000
  H   H130      1.0  0.65982  0.65600  0.50951  1.0000
  H   H131      1.0  0.67722  0.64376  0.55012  1.0000
  N   N101      1.0  0.57154  0.63165  0.47741  1.0000
  O   O63       1.0  0.55659  0.60827  0.45867  1.0000
  O   O64       1.0  0.57822  0.63335  0.55855  1.0000
  C   C228      1.0  0.36142  0.94792  0.36415  1.0000
  C   C229      1.0  0.38278  0.96489  0.41902  1.0000
  C   C230      1.0  0.39245  0.99188  0.41561  1.0000
  C   C231      1.0  0.38171  0.00294  0.35832  1.0000
  C   C232      1.0  0.39471  0.03068  0.35260  1.0000
  C   C233      1.0  0.39542  0.04687  0.42450  1.0000
  C   C234      1.0  0.41136  0.07412  0.41664  1.0000
  H   H132      1.0  0.41265  0.08558  0.47000  1.0000
  H   H133      1.0  0.40823  0.00370  0.45414  1.0000
  N   N102      1.0  0.38149  0.03705  0.50143  1.0000
  H   H134      1.0  0.36983  0.01863  0.50933  1.0000
  H   H135      1.0  0.38208  0.04826  0.55002  1.0000
  N   N103      1.0  0.39427  0.95472  0.47751  1.0000
  O   O65       1.0  0.41765  0.96315  0.45880  1.0000
  O   O66       1.0  0.39256  0.95971  0.55864  1.0000
  C   C235      1.0  0.94667  0.59884  0.36408  1.0000
  C   C236      1.0  0.96364  0.59446  0.41896  1.0000
  C   C237      1.0  0.99063  0.61177  0.41557  1.0000
  C   C238      1.0  0.00169  0.63359  0.35835  1.0000
  H   H136      1.0  0.00244  0.60781  0.45411  1.0000
  N   N104      1.0  0.95347  0.57280  0.47745  1.0000
  O   O67       1.0  0.96190  0.55785  0.45875  1.0000
  O   O68       1.0  0.95845  0.57949  0.55859  1.0000
  C   C239      1.0  0.42709  0.36266  0.36422  1.0000
  C   C240      1.0  0.43146  0.38401  0.41907  1.0000
  C   C241      1.0  0.41415  0.39369  0.41565  1.0000
  C   C242      1.0  0.39236  0.38296  0.35832  1.0000
  C   C243      1.0  0.37762  0.39597  0.35260  1.0000
  C   C244      1.0  0.36213  0.39667  0.42449  1.0000
  C   C245      1.0  0.35083  0.41262  0.41662  1.0000
  H   H137      1.0  0.34064  0.41389  0.46996  1.0000
  H   H138      1.0  0.41811  0.40947  0.45418  1.0000
  N   N105      1.0  0.35802  0.38273  0.50140  1.0000
  H   H139      1.0  0.36478  0.37107  0.50931  1.0000
  H   H140      1.0  0.34739  0.38331  0.54999  1.0000
  N   N106      1.0  0.45311  0.39550  0.47760  1.0000
  O   O69       1.0  0.46807  0.41887  0.45890  1.0000
  O   O70       1.0  0.44641  0.39378  0.55872  1.0000
  C   C246      1.0  0.66325  0.07925  0.36408  1.0000
  C   C247      1.0  0.64190  0.06228  0.41896  1.0000
  C   C248      1.0  0.63223  0.03529  0.41557  1.0000
  C   C249      1.0  0.64299  0.02424  0.35835  1.0000
  C   C250      1.0  0.62996  0.99649  0.35259  1.0000
  C   C251      1.0  0.62925  0.98029  0.42446  1.0000
  C   C252      1.0  0.61333  0.95304  0.41652  1.0000
  H   H141      1.0  0.61201  0.94158  0.46992  1.0000
  H   H142      1.0  0.61645  0.02347  0.45409  1.0000
  N   N107      1.0  0.64317  0.99011  0.50143  1.0000
  H   H143      1.0  0.65480  0.00852  0.50940  1.0000
  H   H144      1.0  0.64258  0.97889  0.54999  1.0000
  N   N108      1.0  0.63041  0.07245  0.47744  1.0000
  O   O71       1.0  0.60703  0.06402  0.45873  1.0000
  O   O72       1.0  0.63212  0.06747  0.55858  1.0000
