data_image0
_chemical_formula_structural       C4N2O4C4N2O4C2H2C2H2C2H2C2H2C2H2C2H2C4N2O4C4N2O4C2H2C2H2C4N2O4C4N2O4C2H2C2H2C2H2C2H2C4N2O4C4N2O4C2H2C2H2C4N2O4C4N2O4C2H2C2H2C2H2C2H2C4N2O4C4N2O4CNCNCNCNCNCNCNCNCNCNCNCNCNCNCNCNCNCNCNCNCNCNCNCNCNCNCNCNCNCNCNCNCNCNCNCNCNCNCNCNCNCNCNCNCNCNCNCNCNCNCNCNCNCNCNCNCNCNCNCNC2H2C2H2C4N2O4C4N2O4C4N2O4C4N2O4C4N2O4C4N2O4C2H2C2H2C4N2O4C4N2O4C2H2C2H2C4N2O4C4N2O4C4N2O4C4N2O4C2H2C2H2C4N2O4C4N2O4C2H2C2H2C4N2O4C4N2O4C4N2O4C4N2O4C2H2C2H2C4N2O4C4N2O4C2H2C2H2C2H2C2H2C2H2C2H2C4N2O4C4N2O4C2H2C2H2C4N2O4C4N2O4C2H2C2H2C2H2C2H2C4N2O4C4N2O4C2H2C2H2C4N2O4C4N2O4C2H2C2H2C2H2C2H2C4N2O4C4N2O4CNCNCNCNCNCNCNCNCNCNCNCNCNCNCNCNCNCNCNCNCNCNCNCNCNCNCNCNCNCNCNCNCNCNCNCNCNCNCNCNCNCNCNCNCNCNCNCNCNCNCNCNCNCNCNCNCNCNCNCNC2H2C2H2C4N2O4C4N2O4C4N2O4C4N2O4C4N2O4C4N2O4C2H2C2H2C4N2O4C4N2O4C2H2C2H2C4N2O4C4N2O4C4N2O4C4N2O4C2H2C2H2C4N2O4C4N2O4C2H2C2H2C4N2O4C4N2O4C4N2O4C4N2O4C2H2C2H2
_chemical_formula_sum              "C480 N240 O240 H120"
_cell_length_a       84.0158
_cell_length_b       44.2554
_cell_length_c       14.8252
_cell_angle_alpha    90
_cell_angle_beta     90
_cell_angle_gamma    90

_space_group_name_H-M_alt    "P 1"
_space_group_IT_number       1

loop_
  _space_group_symop_operation_xyz
  'x, y, z'

loop_
  _atom_site_type_symbol
  _atom_site_label
  _atom_site_symmetry_multiplicity
  _atom_site_fract_x
  _atom_site_fract_y
  _atom_site_fract_z
  _atom_site_occupancy
  C   C1        1.0  0.23923  0.13610  0.33733  1.0000
  C   C2        1.0  0.27259  0.12514  0.33886  1.0000
  C   C3        1.0  0.26438  0.12806  0.25520  1.0000
  C   C4        1.0  0.24779  0.13438  0.25451  1.0000
  N   N1        1.0  0.27204  0.12508  0.17032  1.0000
  N   N2        1.0  0.24045  0.13838  0.16908  1.0000
  O   O1        1.0  0.28295  0.14417  0.16003  1.0000
  O   O2        1.0  0.23516  0.16468  0.15822  1.0000
  O   O3        1.0  0.27748  0.09898  0.15759  1.0000
  O   O4        1.0  0.22950  0.11959  0.15568  1.0000
  C   C5        1.0  0.77253  0.37563  0.33739  1.0000
  C   C6        1.0  0.73917  0.38660  0.33873  1.0000
  C   C7        1.0  0.74739  0.38367  0.25513  1.0000
  C   C8        1.0  0.76399  0.37735  0.25450  1.0000
  N   N3        1.0  0.73974  0.38662  0.17023  1.0000
  N   N4        1.0  0.77133  0.37332  0.16910  1.0000
  O   O5        1.0  0.72883  0.36752  0.15997  1.0000
  O   O6        1.0  0.77662  0.34701  0.15829  1.0000
  O   O7        1.0  0.73430  0.41271  0.15743  1.0000
  O   O8        1.0  0.78229  0.39211  0.15566  1.0000
  C   C9        1.0  0.76431  0.13268  0.27604  1.0000
  C   C10       1.0  0.74798  0.12612  0.27555  1.0000
  H   H1        1.0  0.74248  0.12219  0.21492  1.0000
  H   H2        1.0  0.77015  0.13457  0.21558  1.0000
  C   C11       1.0  0.24747  0.37911  0.27602  1.0000
  C   C12       1.0  0.26380  0.38567  0.27554  1.0000
  H   H3        1.0  0.26929  0.38961  0.21490  1.0000
  H   H4        1.0  0.24162  0.37722  0.21556  1.0000
  C   C13       1.0  0.30497  0.49090  0.27607  1.0000
  C   C14       1.0  0.30513  0.02248  0.27642  1.0000
  H   H5        1.0  0.30555  0.03376  0.21600  1.0000
  H   H6        1.0  0.30529  0.47975  0.21543  1.0000
  C   C15       1.0  0.70681  0.02088  0.27591  1.0000
  C   C16       1.0  0.70664  0.48930  0.27627  1.0000
  H   H7        1.0  0.70623  0.47802  0.21586  1.0000
  H   H8        1.0  0.70649  0.03203  0.21527  1.0000
  C   C17       1.0  0.80277  0.24088  0.27352  1.0000
  C   C18       1.0  0.80288  0.27246  0.27308  1.0000
  H   H9        1.0  0.80190  0.28361  0.21268  1.0000
  H   H10       1.0  0.80173  0.22959  0.21338  1.0000
  C   C19       1.0  0.20897  0.27091  0.27345  1.0000
  C   C20       1.0  0.20886  0.23933  0.27303  1.0000
  H   H11       1.0  0.20982  0.22817  0.21263  1.0000
  H   H12       1.0  0.20999  0.28219  0.21329  1.0000
  C   C21       1.0  0.36400  0.14725  0.34024  1.0000
  C   C22       1.0  0.33113  0.13173  0.34085  1.0000
  C   C23       1.0  0.33939  0.13514  0.25748  1.0000
  C   C24       1.0  0.35576  0.14329  0.25716  1.0000
  N   N5        1.0  0.33211  0.13008  0.17242  1.0000
  N   N6        1.0  0.36330  0.14630  0.17197  1.0000
  O   O9        1.0  0.32038  0.14717  0.15984  1.0000
  O   O10       1.0  0.36867  0.17247  0.15968  1.0000
  O   O11       1.0  0.32794  0.10307  0.16126  1.0000
  O   O12       1.0  0.37425  0.12732  0.16106  1.0000
  C   C25       1.0  0.64778  0.36451  0.34025  1.0000
  C   C26       1.0  0.68063  0.38006  0.34077  1.0000
  C   C27       1.0  0.67237  0.37665  0.25739  1.0000
  C   C28       1.0  0.65600  0.36849  0.25713  1.0000
  N   N7        1.0  0.67965  0.38174  0.17231  1.0000
  N   N8        1.0  0.64846  0.36548  0.17198  1.0000
  O   O13       1.0  0.69138  0.36466  0.15970  1.0000
  O   O14       1.0  0.64309  0.33930  0.15970  1.0000
  O   O15       1.0  0.68380  0.40875  0.16119  1.0000
  O   O16       1.0  0.63750  0.38445  0.16111  1.0000
  C   C29       1.0  0.65570  0.13830  0.26896  1.0000
  C   C30       1.0  0.67188  0.13042  0.26865  1.0000
  H   H13       1.0  0.67698  0.12391  0.20892  1.0000
  H   H14       1.0  0.64958  0.13808  0.20912  1.0000
  C   C31       1.0  0.35605  0.37329  0.26881  1.0000
  C   C32       1.0  0.33988  0.38119  0.26856  1.0000
  H   H15       1.0  0.33476  0.38764  0.20881  1.0000
  H   H16       1.0  0.36215  0.37341  0.20893  1.0000
  C   C33       1.0  0.86395  0.39726  0.34083  1.0000
  C   C34       1.0  0.83107  0.38181  0.34144  1.0000
  C   C35       1.0  0.83932  0.38539  0.25806  1.0000
  C   C36       1.0  0.85569  0.39349  0.25774  1.0000
  N   N9        1.0  0.83201  0.38053  0.17293  1.0000
  N   N10       1.0  0.86322  0.39661  0.17256  1.0000
  O   O17       1.0  0.82028  0.39764  0.16074  1.0000
  O   O18       1.0  0.86861  0.42278  0.16059  1.0000
  O   O19       1.0  0.82786  0.35354  0.16119  1.0000
  O   O20       1.0  0.87415  0.37761  0.16130  1.0000
  C   C37       1.0  0.14783  0.11451  0.34089  1.0000
  C   C38       1.0  0.18069  0.12999  0.34143  1.0000
  C   C39       1.0  0.17246  0.12641  0.25803  1.0000
  C   C40       1.0  0.15608  0.11830  0.25778  1.0000
  N   N11       1.0  0.17976  0.13130  0.17290  1.0000
  N   N12       1.0  0.14855  0.11517  0.17261  1.0000
  O   O21       1.0  0.19149  0.11421  0.16067  1.0000
  O   O22       1.0  0.14317  0.08899  0.16064  1.0000
  O   O23       1.0  0.18390  0.15830  0.16120  1.0000
  O   O24       1.0  0.13761  0.13416  0.16140  1.0000
  C   C41       1.0  0.15562  0.38775  0.26892  1.0000
  C   C42       1.0  0.17178  0.37982  0.26831  1.0000
  H   H17       1.0  0.17682  0.37305  0.20864  1.0000
  H   H18       1.0  0.14943  0.38729  0.20933  1.0000
  C   C43       1.0  0.85615  0.12391  0.26890  1.0000
  C   C44       1.0  0.83999  0.13186  0.26829  1.0000
  H   H19       1.0  0.83496  0.13862  0.20861  1.0000
  H   H20       1.0  0.86233  0.12430  0.20929  1.0000
  C   C45       1.0  0.07793  0.14731  0.33322  1.0000
  C   C46       1.0  0.06818  0.17341  0.32978  1.0000
  H   H21       1.0  0.05704  0.17133  0.30243  1.0000
  H   H22       1.0  0.07343  0.12750  0.30821  1.0000
  C   C47       1.0  0.93386  0.36442  0.33306  1.0000
  C   C48       1.0  0.94361  0.33832  0.32954  1.0000
  H   H23       1.0  0.95475  0.34041  0.30222  1.0000
  H   H24       1.0  0.93835  0.38424  0.30801  1.0000
  C   C49       1.0  0.91787  0.14789  0.31128  1.0000
  C   C50       1.0  0.93816  0.20147  0.31200  1.0000
  C   C51       1.0  0.92300  0.20164  0.26830  1.0000
  C   C52       1.0  0.91296  0.17567  0.26947  1.0000
  N   N13       1.0  0.91840  0.22500  0.20749  1.0000
  N   N14       1.0  0.89853  0.17911  0.22032  1.0000
  O   O25       1.0  0.91162  0.24746  0.24147  1.0000
  O   O26       1.0  0.89581  0.15947  0.16106  1.0000
  O   O27       1.0  0.92869  0.23250  0.15014  1.0000
  O   O28       1.0  0.88655  0.18564  0.26721  1.0000
  C   C53       1.0  0.09390  0.36383  0.31103  1.0000
  C   C54       1.0  0.07362  0.31024  0.31163  1.0000
  C   C55       1.0  0.08876  0.31011  0.26780  1.0000
  C   C56       1.0  0.09882  0.33606  0.26919  1.0000
  N   N15       1.0  0.09338  0.28669  0.20721  1.0000
  N   N16       1.0  0.11323  0.33265  0.21989  1.0000
  O   O29       1.0  0.10016  0.26427  0.24139  1.0000
  O   O30       1.0  0.11593  0.35233  0.16073  1.0000
  O   O31       1.0  0.08310  0.27914  0.14987  1.0000
  O   O32       1.0  0.12522  0.32612  0.26668  1.0000
  C   C57       1.0  0.57789  0.39734  0.33285  1.0000
  C   C58       1.0  0.56815  0.42346  0.32943  1.0000
  H   H25       1.0  0.55701  0.42139  0.30202  1.0000
  H   H26       1.0  0.57339  0.37755  0.30776  1.0000
  C   C59       1.0  0.43389  0.11440  0.33277  1.0000
  C   C60       1.0  0.44364  0.08829  0.32930  1.0000
  H   H27       1.0  0.45477  0.09036  0.30193  1.0000
  H   H28       1.0  0.43839  0.13420  0.30766  1.0000
  C   C61       1.0  0.41787  0.39786  0.31105  1.0000
  C   C62       1.0  0.43815  0.45145  0.31178  1.0000
  C   C63       1.0  0.42299  0.45162  0.26819  1.0000
  C   C64       1.0  0.41295  0.42566  0.26936  1.0000
  N   N17       1.0  0.41838  0.47501  0.20747  1.0000
  N   N18       1.0  0.39851  0.42911  0.22033  1.0000
  O   O33       1.0  0.41159  0.49745  0.24156  1.0000
  O   O34       1.0  0.39578  0.40950  0.16099  1.0000
  O   O35       1.0  0.42865  0.48254  0.15008  1.0000
  O   O36       1.0  0.38654  0.43560  0.26735  1.0000
  C   C65       1.0  0.59390  0.11388  0.31090  1.0000
  C   C66       1.0  0.57363  0.06028  0.31151  1.0000
  C   C67       1.0  0.58878  0.06014  0.26777  1.0000
  C   C68       1.0  0.59883  0.08610  0.26917  1.0000
  N   N19       1.0  0.59341  0.03671  0.20727  1.0000
  N   N20       1.0  0.61325  0.08267  0.22000  1.0000
  O   O37       1.0  0.60019  0.01431  0.24153  1.0000
  O   O38       1.0  0.61597  0.10232  0.16077  1.0000
  O   O39       1.0  0.58314  0.02913  0.14988  1.0000
  O   O40       1.0  0.62523  0.07617  0.26692  1.0000
  C   C69       1.0  0.09648  0.02132  0.33988  1.0000
  C   C70       1.0  0.09649  0.48919  0.34062  1.0000
  H   H29       1.0  0.08794  0.47815  0.30407  1.0000
  H   H30       1.0  0.08791  0.03219  0.30301  1.0000
  C   C71       1.0  0.91532  0.49040  0.33999  1.0000
  C   C72       1.0  0.91530  0.02253  0.34064  1.0000
  H   H31       1.0  0.92383  0.03357  0.30398  1.0000
  H   H32       1.0  0.92386  0.47951  0.30297  1.0000
  C   C73       1.0  0.59641  0.27137  0.33975  1.0000
  C   C74       1.0  0.59643  0.23924  0.34041  1.0000
  H   H33       1.0  0.58793  0.22822  0.30347  1.0000
  H   H34       1.0  0.58790  0.28222  0.30240  1.0000
  C   C75       1.0  0.41538  0.24037  0.33974  1.0000
  C   C76       1.0  0.41536  0.27249  0.34040  1.0000
  H   H35       1.0  0.42385  0.28352  0.30335  1.0000
  H   H36       1.0  0.42388  0.22950  0.30239  1.0000
  C   C77       1.0  0.98883  0.25577  0.33074  1.0000
  C   C78       1.0  0.02295  0.25590  0.33070  1.0000
  C   C79       1.0  0.01444  0.25656  0.24776  1.0000
  C   C80       1.0  0.99734  0.25636  0.24777  1.0000
  N   N21       1.0  0.02382  0.25711  0.16826  1.0000
  N   N22       1.0  0.98794  0.25680  0.16830  1.0000
  O   O41       1.0  0.02218  0.23408  0.11982  1.0000
  O   O42       1.0  0.98965  0.23377  0.11993  1.0000
  O   O43       1.0  0.02211  0.28071  0.12243  1.0000
  O   O44       1.0  0.98958  0.28040  0.12240  1.0000
  C   C81       1.0  0.48883  0.00575  0.33047  1.0000
  C   C82       1.0  0.52295  0.00595  0.33044  1.0000
  C   C83       1.0  0.51444  0.00641  0.24749  1.0000
  C   C84       1.0  0.49734  0.00618  0.24749  1.0000
  N   N23       1.0  0.52383  0.00684  0.16799  1.0000
  N   N24       1.0  0.48795  0.00646  0.16802  1.0000
  O   O45       1.0  0.52220  0.98372  0.11991  1.0000
  O   O46       1.0  0.48967  0.98336  0.12000  1.0000
  O   O47       1.0  0.52210  0.03036  0.12180  1.0000
  O   O48       1.0  0.48957  0.02999  0.12177  1.0000
  C   C85       1.0  0.31632  0.11680  0.34514  1.0000
  N   N25       1.0  0.30180  0.13063  0.34032  1.0000
  C   C86       1.0  0.28821  0.11368  0.34338  1.0000
  N   N26       1.0  0.28931  0.08327  0.35025  1.0000
  C   C87       1.0  0.30364  0.06964  0.35479  1.0000
  N   N27       1.0  0.31708  0.08630  0.35180  1.0000
  C   C88       1.0  0.69544  0.39499  0.34502  1.0000
  N   N28       1.0  0.70996  0.38115  0.34022  1.0000
  C   C89       1.0  0.72355  0.39809  0.34328  1.0000
  N   N29       1.0  0.72246  0.42850  0.35012  1.0000
  C   C90       1.0  0.70813  0.44214  0.35465  1.0000
  N   N30       1.0  0.69469  0.42549  0.35167  1.0000
  C   C91       1.0  0.69565  0.11528  0.34794  1.0000
  N   N31       1.0  0.71010  0.12942  0.35102  1.0000
  C   C92       1.0  0.72376  0.11268  0.35324  1.0000
  N   N32       1.0  0.72281  0.08216  0.35497  1.0000
  C   C93       1.0  0.70853  0.06821  0.35339  1.0000
  N   N33       1.0  0.69503  0.08470  0.34999  1.0000
  C   C94       1.0  0.31613  0.39651  0.34804  1.0000
  N   N34       1.0  0.30168  0.38236  0.35099  1.0000
  C   C95       1.0  0.28802  0.39910  0.35316  1.0000
  N   N35       1.0  0.28897  0.42962  0.35502  1.0000
  C   C96       1.0  0.30326  0.44357  0.35355  1.0000
  N   N36       1.0  0.31676  0.42708  0.35014  1.0000
  C   C97       1.0  0.81623  0.36696  0.34541  1.0000
  N   N37       1.0  0.80174  0.38090  0.34016  1.0000
  C   C98       1.0  0.78813  0.36402  0.34135  1.0000
  N   N38       1.0  0.78914  0.33357  0.34678  1.0000
  C   C99       1.0  0.80344  0.31983  0.35134  1.0000
  N   N39       1.0  0.81692  0.33642  0.35072  1.0000
  C   C100      1.0  0.19553  0.14484  0.34538  1.0000
  N   N40       1.0  0.21002  0.13088  0.34015  1.0000
  C   C101      1.0  0.22365  0.14775  0.34139  1.0000
  N   N41       1.0  0.22263  0.17821  0.34679  1.0000
  C   C102      1.0  0.20834  0.19196  0.35134  1.0000
  N   N42       1.0  0.19486  0.17538  0.35069  1.0000
  C   C103      1.0  0.19567  0.36510  0.34722  1.0000
  N   N43       1.0  0.21011  0.37929  0.35103  1.0000
  C   C104      1.0  0.22379  0.36260  0.35376  1.0000
  N   N44       1.0  0.22287  0.33208  0.35478  1.0000
  C   C105      1.0  0.20861  0.31808  0.35230  1.0000
  N   N45       1.0  0.19509  0.33451  0.34877  1.0000
  C   C106      1.0  0.81610  0.14670  0.34733  1.0000
  N   N46       1.0  0.80168  0.13249  0.35106  1.0000
  C   C107      1.0  0.78800  0.14918  0.35372  1.0000
  N   N47       1.0  0.78891  0.17971  0.35480  1.0000
  C   C108      1.0  0.80317  0.19371  0.35239  1.0000
  N   N48       1.0  0.81669  0.17728  0.34887  1.0000
  C   C109      1.0  0.10428  0.12287  0.35448  1.0000
  N   N49       1.0  0.10002  0.09265  0.35805  1.0000
  C   C110      1.0  0.11127  0.06988  0.36181  1.0000
  N   N50       1.0  0.12670  0.07861  0.35353  1.0000
  C   C111      1.0  0.13148  0.10736  0.34427  1.0000
  N   N51       1.0  0.12011  0.12876  0.34702  1.0000
  C   C112      1.0  0.90751  0.38886  0.35439  1.0000
  N   N52       1.0  0.91177  0.41908  0.35803  1.0000
  C   C113      1.0  0.90052  0.44184  0.36190  1.0000
  N   N53       1.0  0.88510  0.43313  0.35356  1.0000
  C   C114      1.0  0.88031  0.40439  0.34416  1.0000
  N   N54       1.0  0.89167  0.38298  0.34688  1.0000
  C   C115      1.0  0.90743  0.12269  0.32526  1.0000
  N   N55       1.0  0.91157  0.09302  0.34352  1.0000
  C   C116      1.0  0.90048  0.07102  0.36419  1.0000
  N   N56       1.0  0.88504  0.08029  0.36435  1.0000
  C   C117      1.0  0.88018  0.10860  0.34696  1.0000
  N   N57       1.0  0.89159  0.12902  0.32814  1.0000
  C   C118      1.0  0.10434  0.38903  0.32512  1.0000
  N   N58       1.0  0.10020  0.41869  0.34346  1.0000
  C   C119      1.0  0.11129  0.44068  0.36433  1.0000
  N   N59       1.0  0.12673  0.43141  0.36442  1.0000
  C   C120      1.0  0.13159  0.40310  0.34694  1.0000
  N   N60       1.0  0.12018  0.38269  0.32802  1.0000
  C   C121      1.0  0.60424  0.37288  0.35409  1.0000
  N   N61       1.0  0.59998  0.34267  0.35778  1.0000
  C   C122      1.0  0.61123  0.31990  0.36155  1.0000
  N   N62       1.0  0.62665  0.32861  0.35313  1.0000
  C   C123      1.0  0.63143  0.35736  0.34369  1.0000
  N   N63       1.0  0.62007  0.37877  0.34648  1.0000
  C   C124      1.0  0.40754  0.13886  0.35405  1.0000
  N   N64       1.0  0.41181  0.16907  0.35774  1.0000
  C   C125      1.0  0.40056  0.19183  0.36155  1.0000
  N   N65       1.0  0.38514  0.18314  0.35314  1.0000
  C   C126      1.0  0.38035  0.15439  0.34361  1.0000
  N   N66       1.0  0.39171  0.13298  0.34641  1.0000
  C   C127      1.0  0.40744  0.37264  0.32498  1.0000
  N   N67       1.0  0.41160  0.34298  0.34320  1.0000
  C   C128      1.0  0.40052  0.32096  0.36384  1.0000
  N   N68       1.0  0.38508  0.33018  0.36396  1.0000
  C   C129      1.0  0.38020  0.35848  0.34655  1.0000
  N   N69       1.0  0.39160  0.37894  0.32786  1.0000
  C   C130      1.0  0.60433  0.13909  0.32495  1.0000
  N   N70       1.0  0.60017  0.16875  0.34323  1.0000
  C   C131      1.0  0.61125  0.19076  0.36410  1.0000
  N   N71       1.0  0.62670  0.18152  0.36419  1.0000
  C   C132      1.0  0.63157  0.15323  0.34669  1.0000
  N   N72       1.0  0.62017  0.13278  0.32787  1.0000
  C   C133      1.0  0.06439  0.28339  0.32300  1.0000
  N   N73       1.0  0.04816  0.28261  0.32621  1.0000
  C   C134      1.0  0.03993  0.25606  0.33398  1.0000
  N   N74       1.0  0.04825  0.22960  0.34093  1.0000
  C   C135      1.0  0.06449  0.22903  0.34401  1.0000
  N   N75       1.0  0.07184  0.25626  0.33333  1.0000
  C   C136      1.0  0.94739  0.22831  0.32330  1.0000
  N   N76       1.0  0.96363  0.22908  0.32659  1.0000
  C   C137      1.0  0.97186  0.25562  0.33405  1.0000
  N   N77       1.0  0.96355  0.28211  0.34066  1.0000
  C   C138      1.0  0.94730  0.28270  0.34379  1.0000
  N   N78       1.0  0.93996  0.25546  0.33337  1.0000
  C   C139      1.0  0.56440  0.03343  0.32286  1.0000
  N   N79       1.0  0.54816  0.03266  0.32603  1.0000
  C   C140      1.0  0.53992  0.00612  0.33374  1.0000
  N   N80       1.0  0.54824  0.47965  0.34064  1.0000
  C   C141      1.0  0.56448  0.47907  0.34377  1.0000
  N   N81       1.0  0.57183  0.00629  0.33316  1.0000
  C   C142      1.0  0.44739  0.47829  0.32309  1.0000
  N   N82       1.0  0.46363  0.47905  0.32631  1.0000
  C   C143      1.0  0.47186  0.50559  0.33379  1.0000
  N   N83       1.0  0.46355  0.03208  0.34046  1.0000
  C   C144      1.0  0.44731  0.03267  0.34363  1.0000
  N   N84       1.0  0.43996  0.50544  0.33320  1.0000
  C   C145      1.0  0.24754  0.13298  0.41948  1.0000
  C   C146      1.0  0.26393  0.12707  0.42018  1.0000
  H   H37       1.0  0.26950  0.12399  0.48106  1.0000
  H   H38       1.0  0.24172  0.13523  0.47994  1.0000
  C   C147      1.0  0.76423  0.37889  0.41947  1.0000
  C   C148      1.0  0.74783  0.38480  0.42008  1.0000
  H   H39       1.0  0.74226  0.38793  0.48093  1.0000
  H   H40       1.0  0.77004  0.37668  0.47995  1.0000
  C   C149      1.0  0.77248  0.13707  0.35806  1.0000
  C   C150      1.0  0.73930  0.12471  0.35687  1.0000
  C   C151      1.0  0.74732  0.12881  0.44041  1.0000
  C   C152      1.0  0.76396  0.13583  0.44085  1.0000
  N   N85       1.0  0.73796  0.12576  0.51955  1.0000
  N   N86       1.0  0.77289  0.14138  0.52037  1.0000
  O   O49       1.0  0.73655  0.14987  0.56331  1.0000
  O   O50       1.0  0.76817  0.16393  0.56408  1.0000
  O   O51       1.0  0.74243  0.10472  0.57023  1.0000
  O   O52       1.0  0.77405  0.11875  0.57090  1.0000
  C   C153      1.0  0.23931  0.37471  0.35804  1.0000
  C   C154      1.0  0.27248  0.38707  0.35685  1.0000
  C   C155      1.0  0.26446  0.38298  0.44037  1.0000
  C   C156      1.0  0.24782  0.37597  0.44085  1.0000
  N   N87       1.0  0.27382  0.38604  0.51950  1.0000
  N   N88       1.0  0.23889  0.37043  0.52039  1.0000
  O   O53       1.0  0.27523  0.36193  0.56327  1.0000
  O   O54       1.0  0.24361  0.34789  0.56414  1.0000
  O   O55       1.0  0.26935  0.40707  0.57019  1.0000
  O   O56       1.0  0.23773  0.39306  0.57086  1.0000
  C   C157      1.0  0.30401  0.47495  0.35804  1.0000
  C   C158      1.0  0.30438  0.03827  0.35876  1.0000
  C   C159      1.0  0.30355  0.02255  0.44224  1.0000
  C   C160      1.0  0.30342  0.49055  0.44187  1.0000
  N   N89       1.0  0.30274  0.03724  0.52726  1.0000
  N   N90       1.0  0.30262  0.47583  0.52678  1.0000
  O   O57       1.0  0.29033  0.05280  0.53584  1.0000
  O   O58       1.0  0.31442  0.45905  0.54076  1.0000
  O   O59       1.0  0.31473  0.05348  0.54200  1.0000
  O   O60       1.0  0.29002  0.46090  0.53606  1.0000
  C   C161      1.0  0.70777  0.03683  0.35788  1.0000
  C   C162      1.0  0.70739  0.47351  0.35861  1.0000
  C   C163      1.0  0.70822  0.48923  0.44209  1.0000
  C   C164      1.0  0.70836  0.02123  0.44172  1.0000
  N   N91       1.0  0.70903  0.47455  0.52712  1.0000
  N   N92       1.0  0.70916  0.03596  0.52663  1.0000
  O   O61       1.0  0.72145  0.45899  0.53569  1.0000
  O   O62       1.0  0.69736  0.05274  0.54059  1.0000
  O   O63       1.0  0.69704  0.45832  0.54186  1.0000
  O   O64       1.0  0.72176  0.05088  0.53592  1.0000
  C   C165      1.0  0.80387  0.22512  0.35577  1.0000
  C   C166      1.0  0.80414  0.28843  0.35490  1.0000
  C   C167      1.0  0.80520  0.27302  0.43843  1.0000
  C   C168      1.0  0.80509  0.24091  0.43907  1.0000
  N   N93       1.0  0.80600  0.29057  0.51847  1.0000
  N   N94       1.0  0.80602  0.22634  0.52410  1.0000
  O   O65       1.0  0.81864  0.28592  0.56160  1.0000
  O   O66       1.0  0.81819  0.21006  0.53116  1.0000
  O   O67       1.0  0.79424  0.28609  0.56910  1.0000
  O   O68       1.0  0.79383  0.21094  0.54107  1.0000
  C   C169      1.0  0.20790  0.28668  0.35571  1.0000
  C   C170      1.0  0.20765  0.22336  0.35488  1.0000
  C   C171      1.0  0.20661  0.23878  0.43842  1.0000
  C   C172      1.0  0.20672  0.27088  0.43903  1.0000
  N   N95       1.0  0.20584  0.22123  0.51848  1.0000
  N   N96       1.0  0.20582  0.28546  0.52406  1.0000
  O   O69       1.0  0.19322  0.22587  0.56175  1.0000
  O   O70       1.0  0.19365  0.30176  0.53124  1.0000
  O   O71       1.0  0.21762  0.22572  0.56896  1.0000
  O   O72       1.0  0.21801  0.30084  0.54091  1.0000
  C   C173      1.0  0.35567  0.14395  0.42220  1.0000
  C   C174      1.0  0.33949  0.13598  0.42244  1.0000
  H   H41       1.0  0.33402  0.13215  0.48320  1.0000
  H   H42       1.0  0.36143  0.14635  0.48273  1.0000
  C   C175      1.0  0.65612  0.36780  0.42220  1.0000
  C   C176      1.0  0.67229  0.37579  0.42242  1.0000
  H   H43       1.0  0.67778  0.37962  0.48315  1.0000
  H   H44       1.0  0.65036  0.36540  0.48273  1.0000
  C   C177      1.0  0.64793  0.14572  0.35023  1.0000
  C   C178      1.0  0.68077  0.13012  0.34937  1.0000
  C   C179      1.0  0.67308  0.13689  0.43234  1.0000
  C   C180      1.0  0.65658  0.14513  0.43274  1.0000
  N   N97       1.0  0.68252  0.13423  0.51134  1.0000
  N   N98       1.0  0.64772  0.15044  0.51270  1.0000
  O   O73       1.0  0.68469  0.15887  0.55123  1.0000
  O   O74       1.0  0.65307  0.17139  0.56080  1.0000
  O   O75       1.0  0.67777  0.11436  0.56535  1.0000
  O   O76       1.0  0.64588  0.12704  0.55933  1.0000
  C   C181      1.0  0.36384  0.36600  0.35012  1.0000
  C   C182      1.0  0.33102  0.38169  0.34935  1.0000
  C   C183      1.0  0.33873  0.37499  0.43234  1.0000
  C   C184      1.0  0.35522  0.36673  0.43270  1.0000
  N   N99       1.0  0.32932  0.37777  0.51141  1.0000
  N   N100      1.0  0.36409  0.36144  0.51264  1.0000
  O   O77       1.0  0.32715  0.35319  0.55166  1.0000
  O   O78       1.0  0.35875  0.34048  0.56078  1.0000
  O   O79       1.0  0.33409  0.39772  0.56512  1.0000
  O   O80       1.0  0.36595  0.38484  0.55923  1.0000
  C   C185      1.0  0.85564  0.39379  0.42280  1.0000
  C   C186      1.0  0.83946  0.38585  0.42303  1.0000
  H   H45       1.0  0.83400  0.38191  0.48375  1.0000
  H   H46       1.0  0.86142  0.39606  0.48331  1.0000
  C   C187      1.0  0.15616  0.11796  0.42285  1.0000
  C   C188      1.0  0.17233  0.12593  0.42308  1.0000
  H   H47       1.0  0.17780  0.12987  0.48377  1.0000
  H   H48       1.0  0.15037  0.11569  0.48337  1.0000
  C   C189      1.0  0.14795  0.39556  0.35018  1.0000
  C   C190      1.0  0.18078  0.37988  0.34868  1.0000
  C   C191      1.0  0.17319  0.38705  0.43166  1.0000
  C   C192      1.0  0.15670  0.39530  0.43237  1.0000
  N   N101      1.0  0.18274  0.38478  0.51038  1.0000
  N   N102      1.0  0.14792  0.40081  0.51251  1.0000
  O   O81       1.0  0.18500  0.40967  0.54880  1.0000
  O   O82       1.0  0.15336  0.42177  0.56028  1.0000
  O   O83       1.0  0.17802  0.36530  0.56571  1.0000
  O   O84       1.0  0.14607  0.37748  0.55945  1.0000
  C   C193      1.0  0.86382  0.11615  0.35020  1.0000
  C   C194      1.0  0.83101  0.13194  0.34868  1.0000
  C   C195      1.0  0.83859  0.12477  0.43169  1.0000
  C   C196      1.0  0.85508  0.11651  0.43241  1.0000
  N   N103      1.0  0.82906  0.12710  0.51044  1.0000
  N   N104      1.0  0.86386  0.11096  0.51255  1.0000
  O   O85       1.0  0.82679  0.10225  0.54900  1.0000
  O   O86       1.0  0.85841  0.09000  0.56026  1.0000
  O   O87       1.0  0.83379  0.14661  0.56565  1.0000
  O   O88       1.0  0.86572  0.13428  0.55954  1.0000
  C   C197      1.0  0.09405  0.14868  0.36087  1.0000
  C   C198      1.0  0.07382  0.20231  0.35600  1.0000
  C   C199      1.0  0.08919  0.20306  0.39712  1.0000
  C   C200      1.0  0.09926  0.17714  0.39715  1.0000
  N   N105      1.0  0.09401  0.22708  0.45507  1.0000
  N   N106      1.0  0.11381  0.18122  0.44474  1.0000
  O   O89       1.0  0.10091  0.24898  0.41868  1.0000
  O   O90       1.0  0.11648  0.16296  0.50790  1.0000
  O   O91       1.0  0.08404  0.23524  0.51346  1.0000
  O   O92       1.0  0.12576  0.18642  0.39619  1.0000
  C   C201      1.0  0.91774  0.36304  0.36070  1.0000
  C   C202      1.0  0.93797  0.30941  0.35573  1.0000
  C   C203      1.0  0.92260  0.30865  0.39671  1.0000
  C   C204      1.0  0.91254  0.33459  0.39701  1.0000
  N   N107      1.0  0.91779  0.28469  0.45496  1.0000
  N   N108      1.0  0.89796  0.33048  0.44431  1.0000
  O   O93       1.0  0.91089  0.26275  0.41883  1.0000
  O   O94       1.0  0.89525  0.34869  0.50756  1.0000
  O   O95       1.0  0.92777  0.27660  0.51336  1.0000
  O   O96       1.0  0.88603  0.32528  0.39556  1.0000
  C   C205      1.0  0.93383  0.14700  0.34230  1.0000
  C   C206      1.0  0.94364  0.17302  0.34296  1.0000
  H   H49       1.0  0.95457  0.17141  0.37322  1.0000
  H   H50       1.0  0.93811  0.12782  0.37237  1.0000
  C   C207      1.0  0.07794  0.36471  0.34204  1.0000
  C   C208      1.0  0.06812  0.33869  0.34263  1.0000
  H   H51       1.0  0.05721  0.34026  0.37300  1.0000
  H   H52       1.0  0.07366  0.38388  0.37219  1.0000
  C   C209      1.0  0.59401  0.39870  0.36055  1.0000
  C   C210      1.0  0.57380  0.45234  0.35575  1.0000
  C   C211      1.0  0.58916  0.45306  0.39697  1.0000
  C   C212      1.0  0.59922  0.42713  0.39695  1.0000
  N   N109      1.0  0.59397  0.47705  0.45504  1.0000
  N   N110      1.0  0.61377  0.43117  0.44464  1.0000
  O   O97       1.0  0.60088  0.49897  0.41878  1.0000
  O   O98       1.0  0.61643  0.41286  0.50770  1.0000
  O   O99       1.0  0.58399  0.48519  0.51338  1.0000
  O   O100      1.0  0.62573  0.43638  0.39619  1.0000
  C   C213      1.0  0.41777  0.11304  0.36044  1.0000
  C   C214      1.0  0.43799  0.05940  0.35558  1.0000
  C   C215      1.0  0.42262  0.05865  0.39661  1.0000
  C   C216      1.0  0.41256  0.08460  0.39686  1.0000
  N   N111      1.0  0.41782  0.03472  0.45496  1.0000
  N   N112      1.0  0.39799  0.08052  0.44425  1.0000
  O   O101      1.0  0.41092  0.01276  0.41890  1.0000
  O   O102      1.0  0.39530  0.09878  0.50739  1.0000
  O   O103      1.0  0.42781  0.02665  0.51331  1.0000
  O   O104      1.0  0.38606  0.07532  0.39556  1.0000
  C   C217      1.0  0.43383  0.39697  0.34197  1.0000
  C   C218      1.0  0.44365  0.42299  0.34265  1.0000
  H   H53       1.0  0.45458  0.42138  0.37283  1.0000
  H   H54       1.0  0.43812  0.37778  0.37196  1.0000
  C   C219      1.0  0.57794  0.11476  0.34182  1.0000
  C   C220      1.0  0.56812  0.08873  0.34242  1.0000
  H   H55       1.0  0.55720  0.09032  0.37272  1.0000
  H   H56       1.0  0.57365  0.13393  0.37190  1.0000
  C   C221      1.0  0.10923  0.03821  0.37696  1.0000
  C   C222      1.0  0.10909  0.47239  0.37983  1.0000
  C   C223      1.0  0.12044  0.48939  0.43083  1.0000
  C   C224      1.0  0.12067  0.02155  0.42861  1.0000
  N   N113      1.0  0.13114  0.47346  0.48827  1.0000
  N   N114      1.0  0.13172  0.03543  0.48862  1.0000
  O   O105      1.0  0.12888  0.47849  0.57072  1.0000
  O   O106      1.0  0.12622  0.05527  0.54064  1.0000
  O   O107      1.0  0.14552  0.47751  0.46809  1.0000
  O   O108      1.0  0.14496  0.04254  0.45527  1.0000
  C   C225      1.0  0.90257  0.47351  0.37710  1.0000
  C   C226      1.0  0.90269  0.03932  0.37983  1.0000
  C   C227      1.0  0.89136  0.02233  0.43092  1.0000
  C   C228      1.0  0.89114  0.49017  0.42884  1.0000
  N   N115      1.0  0.88066  0.03827  0.48835  1.0000
  N   N116      1.0  0.88007  0.47629  0.48870  1.0000
  O   O109      1.0  0.88292  0.03325  0.57080  1.0000
  O   O110      1.0  0.88556  0.45643  0.54072  1.0000
  O   O111      1.0  0.86627  0.03421  0.46820  1.0000
  O   O112      1.0  0.86684  0.46920  0.45526  1.0000
  C   C229      1.0  0.60917  0.28825  0.37683  1.0000
  C   C230      1.0  0.60904  0.22246  0.37968  1.0000
  C   C231      1.0  0.62036  0.23944  0.43088  1.0000
  C   C232      1.0  0.62059  0.27160  0.42866  1.0000
  N   N117      1.0  0.63102  0.22350  0.48850  1.0000
  N   N118      1.0  0.63165  0.28549  0.48854  1.0000
  O   O113      1.0  0.62873  0.22856  0.57089  1.0000
  O   O114      1.0  0.62616  0.30538  0.54044  1.0000
  O   O115      1.0  0.64542  0.22751  0.46857  1.0000
  O   O116      1.0  0.64489  0.29256  0.45510  1.0000
  C   C233      1.0  0.40262  0.22349  0.37685  1.0000
  C   C234      1.0  0.40275  0.28927  0.37957  1.0000
  C   C235      1.0  0.39143  0.27230  0.43083  1.0000
  C   C236      1.0  0.39120  0.24014  0.42861  1.0000
  N   N119      1.0  0.38078  0.28826  0.48848  1.0000
  N   N120      1.0  0.38015  0.22627  0.48862  1.0000
  O   O117      1.0  0.38308  0.28321  0.57087  1.0000
  O   O118      1.0  0.38565  0.20639  0.54049  1.0000
  O   O119      1.0  0.36637  0.28425  0.46863  1.0000
  O   O120      1.0  0.36691  0.21918  0.45525  1.0000
  C   C237      1.0  0.99752  0.25519  0.41222  1.0000
  C   C238      1.0  0.01428  0.25511  0.41218  1.0000
  H   H57       1.0  0.02013  0.25466  0.47280  1.0000
  H   H58       1.0  0.99167  0.25470  0.47285  1.0000
  C   C239      1.0  0.49752  0.00539  0.41197  1.0000
  C   C240      1.0  0.51428  0.00533  0.41194  1.0000
  H   H59       1.0  0.52013  0.00503  0.47258  1.0000
  H   H60       1.0  0.49167  0.00502  0.47261  1.0000
  C   C241      1.0  0.23923  0.63610  0.33733  1.0000
  C   C242      1.0  0.27259  0.62514  0.33886  1.0000
  C   C243      1.0  0.26438  0.62806  0.25520  1.0000
  C   C244      1.0  0.24779  0.63438  0.25451  1.0000
  N   N121      1.0  0.27204  0.62508  0.17032  1.0000
  N   N122      1.0  0.24045  0.63838  0.16908  1.0000
  O   O121      1.0  0.28295  0.64417  0.16003  1.0000
  O   O122      1.0  0.23516  0.66468  0.15822  1.0000
  O   O123      1.0  0.27748  0.59898  0.15759  1.0000
  O   O124      1.0  0.22950  0.61958  0.15568  1.0000
  C   C245      1.0  0.77253  0.87563  0.33739  1.0000
  C   C246      1.0  0.73917  0.88660  0.33873  1.0000
  C   C247      1.0  0.74739  0.88367  0.25513  1.0000
  C   C248      1.0  0.76399  0.87735  0.25450  1.0000
  N   N123      1.0  0.73974  0.88662  0.17023  1.0000
  N   N124      1.0  0.77133  0.87332  0.16910  1.0000
  O   O125      1.0  0.72883  0.86752  0.15997  1.0000
  O   O126      1.0  0.77662  0.84701  0.15829  1.0000
  O   O127      1.0  0.73430  0.91271  0.15743  1.0000
  O   O128      1.0  0.78229  0.89211  0.15566  1.0000
  C   C249      1.0  0.76431  0.63268  0.27604  1.0000
  C   C250      1.0  0.74798  0.62612  0.27555  1.0000
  H   H61       1.0  0.74248  0.62218  0.21492  1.0000
  H   H62       1.0  0.77015  0.63457  0.21558  1.0000
  C   C251      1.0  0.24747  0.87911  0.27602  1.0000
  C   C252      1.0  0.26380  0.88567  0.27554  1.0000
  H   H63       1.0  0.26929  0.88961  0.21490  1.0000
  H   H64       1.0  0.24162  0.87722  0.21556  1.0000
  C   C253      1.0  0.30497  0.99090  0.27607  1.0000
  C   C254      1.0  0.30513  0.52248  0.27642  1.0000
  H   H65       1.0  0.30555  0.53376  0.21600  1.0000
  H   H66       1.0  0.30529  0.97975  0.21543  1.0000
  C   C255      1.0  0.70681  0.52088  0.27591  1.0000
  C   C256      1.0  0.70664  0.98930  0.27627  1.0000
  H   H67       1.0  0.70623  0.97802  0.21586  1.0000
  H   H68       1.0  0.70649  0.53203  0.21527  1.0000
  C   C257      1.0  0.80277  0.74088  0.27352  1.0000
  C   C258      1.0  0.80288  0.77246  0.27308  1.0000
  H   H69       1.0  0.80190  0.78361  0.21268  1.0000
  H   H70       1.0  0.80173  0.72958  0.21338  1.0000
  C   C259      1.0  0.20897  0.77091  0.27345  1.0000
  C   C260      1.0  0.20886  0.73933  0.27303  1.0000
  H   H71       1.0  0.20982  0.72817  0.21263  1.0000
  H   H72       1.0  0.20999  0.78219  0.21329  1.0000
  C   C261      1.0  0.36400  0.64725  0.34024  1.0000
  C   C262      1.0  0.33113  0.63173  0.34085  1.0000
  C   C263      1.0  0.33939  0.63514  0.25748  1.0000
  C   C264      1.0  0.35576  0.64329  0.25716  1.0000
  N   N125      1.0  0.33211  0.63008  0.17242  1.0000
  N   N126      1.0  0.36330  0.64630  0.17197  1.0000
  O   O129      1.0  0.32038  0.64717  0.15984  1.0000
  O   O130      1.0  0.36867  0.67247  0.15968  1.0000
  O   O131      1.0  0.32794  0.60307  0.16126  1.0000
  O   O132      1.0  0.37425  0.62731  0.16106  1.0000
  C   C265      1.0  0.64778  0.86451  0.34025  1.0000
  C   C266      1.0  0.68063  0.88006  0.34077  1.0000
  C   C267      1.0  0.67237  0.87665  0.25739  1.0000
  C   C268      1.0  0.65600  0.86849  0.25713  1.0000
  N   N127      1.0  0.67965  0.88174  0.17231  1.0000
  N   N128      1.0  0.64846  0.86548  0.17198  1.0000
  O   O133      1.0  0.69138  0.86466  0.15970  1.0000
  O   O134      1.0  0.64309  0.83930  0.15970  1.0000
  O   O135      1.0  0.68380  0.90875  0.16119  1.0000
  O   O136      1.0  0.63750  0.88445  0.16111  1.0000
  C   C269      1.0  0.65570  0.63830  0.26896  1.0000
  C   C270      1.0  0.67188  0.63042  0.26865  1.0000
  H   H73       1.0  0.67698  0.62391  0.20892  1.0000
  H   H74       1.0  0.64958  0.63808  0.20912  1.0000
  C   C271      1.0  0.35605  0.87329  0.26881  1.0000
  C   C272      1.0  0.33988  0.88119  0.26856  1.0000
  H   H75       1.0  0.33476  0.88764  0.20881  1.0000
  H   H76       1.0  0.36215  0.87341  0.20893  1.0000
  C   C273      1.0  0.86395  0.89725  0.34083  1.0000
  C   C274      1.0  0.83107  0.88180  0.34144  1.0000
  C   C275      1.0  0.83932  0.88539  0.25806  1.0000
  C   C276      1.0  0.85569  0.89349  0.25774  1.0000
  N   N129      1.0  0.83201  0.88053  0.17293  1.0000
  N   N130      1.0  0.86322  0.89661  0.17256  1.0000
  O   O137      1.0  0.82028  0.89763  0.16074  1.0000
  O   O138      1.0  0.86861  0.92279  0.16059  1.0000
  O   O139      1.0  0.82786  0.85354  0.16119  1.0000
  O   O140      1.0  0.87415  0.87761  0.16130  1.0000
  C   C277      1.0  0.14783  0.61451  0.34089  1.0000
  C   C278      1.0  0.18069  0.62999  0.34143  1.0000
  C   C279      1.0  0.17246  0.62641  0.25803  1.0000
  C   C280      1.0  0.15608  0.61830  0.25778  1.0000
  N   N131      1.0  0.17976  0.63130  0.17290  1.0000
  N   N132      1.0  0.14855  0.61517  0.17261  1.0000
  O   O141      1.0  0.19149  0.61421  0.16067  1.0000
  O   O142      1.0  0.14317  0.58899  0.16064  1.0000
  O   O143      1.0  0.18390  0.65830  0.16120  1.0000
  O   O144      1.0  0.13761  0.63416  0.16140  1.0000
  C   C281      1.0  0.15562  0.88775  0.26892  1.0000
  C   C282      1.0  0.17178  0.87982  0.26831  1.0000
  H   H77       1.0  0.17682  0.87304  0.20864  1.0000
  H   H78       1.0  0.14943  0.88729  0.20933  1.0000
  C   C283      1.0  0.85615  0.62390  0.26890  1.0000
  C   C284      1.0  0.83999  0.63186  0.26829  1.0000
  H   H79       1.0  0.83496  0.63862  0.20861  1.0000
  H   H80       1.0  0.86233  0.62430  0.20929  1.0000
  C   C285      1.0  0.07793  0.64731  0.33322  1.0000
  C   C286      1.0  0.06818  0.67341  0.32978  1.0000
  H   H81       1.0  0.05704  0.67133  0.30243  1.0000
  H   H82       1.0  0.07343  0.62750  0.30821  1.0000
  C   C287      1.0  0.93386  0.86442  0.33306  1.0000
  C   C288      1.0  0.94361  0.83832  0.32954  1.0000
  H   H83       1.0  0.95475  0.84041  0.30222  1.0000
  H   H84       1.0  0.93835  0.88423  0.30801  1.0000
  C   C289      1.0  0.91787  0.64789  0.31128  1.0000
  C   C290      1.0  0.93816  0.70147  0.31200  1.0000
  C   C291      1.0  0.92300  0.70164  0.26830  1.0000
  C   C292      1.0  0.91296  0.67567  0.26947  1.0000
  N   N133      1.0  0.91840  0.72500  0.20749  1.0000
  N   N134      1.0  0.89853  0.67911  0.22032  1.0000
  O   O145      1.0  0.91162  0.74746  0.24147  1.0000
  O   O146      1.0  0.89581  0.65947  0.16106  1.0000
  O   O147      1.0  0.92869  0.73251  0.15014  1.0000
  O   O148      1.0  0.88655  0.68564  0.26721  1.0000
  C   C293      1.0  0.09390  0.86383  0.31103  1.0000
  C   C294      1.0  0.07362  0.81024  0.31163  1.0000
  C   C295      1.0  0.08876  0.81011  0.26780  1.0000
  C   C296      1.0  0.09882  0.83606  0.26919  1.0000
  N   N135      1.0  0.09338  0.78669  0.20721  1.0000
  N   N136      1.0  0.11323  0.83265  0.21989  1.0000
  O   O149      1.0  0.10016  0.76427  0.24139  1.0000
  O   O150      1.0  0.11593  0.85233  0.16073  1.0000
  O   O151      1.0  0.08310  0.77914  0.14987  1.0000
  O   O152      1.0  0.12522  0.82612  0.26668  1.0000
  C   C297      1.0  0.57789  0.89735  0.33285  1.0000
  C   C298      1.0  0.56815  0.92346  0.32943  1.0000
  H   H85       1.0  0.55701  0.92140  0.30202  1.0000
  H   H86       1.0  0.57339  0.87755  0.30776  1.0000
  C   C299      1.0  0.43389  0.61440  0.33277  1.0000
  C   C300      1.0  0.44364  0.58829  0.32930  1.0000
  H   H87       1.0  0.45477  0.59036  0.30193  1.0000
  H   H88       1.0  0.43839  0.63420  0.30766  1.0000
  C   C301      1.0  0.41787  0.89786  0.31105  1.0000
  C   C302      1.0  0.43815  0.95145  0.31178  1.0000
  C   C303      1.0  0.42299  0.95163  0.26819  1.0000
  C   C304      1.0  0.41295  0.92565  0.26936  1.0000
  N   N137      1.0  0.41838  0.97501  0.20747  1.0000
  N   N138      1.0  0.39851  0.92911  0.22033  1.0000
  O   O153      1.0  0.41159  0.99745  0.24156  1.0000
  O   O154      1.0  0.39578  0.90950  0.16099  1.0000
  O   O155      1.0  0.42865  0.98254  0.15008  1.0000
  O   O156      1.0  0.38654  0.93560  0.26735  1.0000
  C   C305      1.0  0.59390  0.61388  0.31090  1.0000
  C   C306      1.0  0.57363  0.56028  0.31151  1.0000
  C   C307      1.0  0.58878  0.56014  0.26777  1.0000
  C   C308      1.0  0.59883  0.58610  0.26917  1.0000
  N   N139      1.0  0.59341  0.53671  0.20727  1.0000
  N   N140      1.0  0.61325  0.58267  0.22000  1.0000
  O   O157      1.0  0.60019  0.51431  0.24153  1.0000
  O   O158      1.0  0.61597  0.60232  0.16077  1.0000
  O   O159      1.0  0.58314  0.52913  0.14988  1.0000
  O   O160      1.0  0.62523  0.57617  0.26692  1.0000
  C   C309      1.0  0.09648  0.52132  0.33988  1.0000
  C   C310      1.0  0.09649  0.98919  0.34062  1.0000
  H   H89       1.0  0.08794  0.97815  0.30407  1.0000
  H   H90       1.0  0.08791  0.53219  0.30301  1.0000
  C   C311      1.0  0.91532  0.99040  0.33999  1.0000
  C   C312      1.0  0.91530  0.52253  0.34064  1.0000
  H   H91       1.0  0.92383  0.53357  0.30398  1.0000
  H   H92       1.0  0.92386  0.97951  0.30297  1.0000
  C   C313      1.0  0.59641  0.77136  0.33975  1.0000
  C   C314      1.0  0.59643  0.73924  0.34041  1.0000
  H   H93       1.0  0.58793  0.72822  0.30347  1.0000
  H   H94       1.0  0.58790  0.78222  0.30240  1.0000
  C   C315      1.0  0.41538  0.74037  0.33974  1.0000
  C   C316      1.0  0.41536  0.77249  0.34040  1.0000
  H   H95       1.0  0.42385  0.78352  0.30335  1.0000
  H   H96       1.0  0.42388  0.72950  0.30239  1.0000
  C   C317      1.0  0.98883  0.75577  0.33074  1.0000
  C   C318      1.0  0.02295  0.75590  0.33070  1.0000
  C   C319      1.0  0.01444  0.75655  0.24776  1.0000
  C   C320      1.0  0.99734  0.75636  0.24777  1.0000
  N   N141      1.0  0.02382  0.75711  0.16826  1.0000
  N   N142      1.0  0.98794  0.75680  0.16830  1.0000
  O   O161      1.0  0.02218  0.73408  0.11982  1.0000
  O   O162      1.0  0.98965  0.73377  0.11993  1.0000
  O   O163      1.0  0.02211  0.78071  0.12243  1.0000
  O   O164      1.0  0.98958  0.78040  0.12240  1.0000
  C   C321      1.0  0.48883  0.50575  0.33047  1.0000
  C   C322      1.0  0.52295  0.50595  0.33044  1.0000
  C   C323      1.0  0.51444  0.50641  0.24749  1.0000
  C   C324      1.0  0.49734  0.50618  0.24749  1.0000
  N   N143      1.0  0.52383  0.50684  0.16799  1.0000
  N   N144      1.0  0.48795  0.50646  0.16802  1.0000
  O   O165      1.0  0.52220  0.48373  0.11991  1.0000
  O   O166      1.0  0.48967  0.48336  0.12000  1.0000
  O   O167      1.0  0.52210  0.53036  0.12180  1.0000
  O   O168      1.0  0.48957  0.52999  0.12177  1.0000
  C   C325      1.0  0.31632  0.61680  0.34514  1.0000
  N   N145      1.0  0.30180  0.63063  0.34032  1.0000
  C   C326      1.0  0.28821  0.61368  0.34338  1.0000
  N   N146      1.0  0.28931  0.58327  0.35025  1.0000
  C   C327      1.0  0.30364  0.56964  0.35479  1.0000
  N   N147      1.0  0.31708  0.58630  0.35180  1.0000
  C   C328      1.0  0.69544  0.89499  0.34502  1.0000
  N   N148      1.0  0.70996  0.88115  0.34022  1.0000
  C   C329      1.0  0.72355  0.89809  0.34328  1.0000
  N   N149      1.0  0.72246  0.92850  0.35012  1.0000
  C   C330      1.0  0.70813  0.94214  0.35465  1.0000
  N   N150      1.0  0.69469  0.92549  0.35167  1.0000
  C   C331      1.0  0.69565  0.61528  0.34794  1.0000
  N   N151      1.0  0.71010  0.62942  0.35102  1.0000
  C   C332      1.0  0.72376  0.61268  0.35324  1.0000
  N   N152      1.0  0.72281  0.58216  0.35497  1.0000
  C   C333      1.0  0.70853  0.56822  0.35339  1.0000
  N   N153      1.0  0.69503  0.58470  0.34999  1.0000
  C   C334      1.0  0.31613  0.89651  0.34804  1.0000
  N   N154      1.0  0.30168  0.88236  0.35099  1.0000
  C   C335      1.0  0.28802  0.89910  0.35316  1.0000
  N   N155      1.0  0.28897  0.92962  0.35502  1.0000
  C   C336      1.0  0.30326  0.94357  0.35355  1.0000
  N   N156      1.0  0.31676  0.92708  0.35014  1.0000
  C   C337      1.0  0.81623  0.86696  0.34541  1.0000
  N   N157      1.0  0.80174  0.88090  0.34016  1.0000
  C   C338      1.0  0.78813  0.86402  0.34135  1.0000
  N   N158      1.0  0.78914  0.83357  0.34678  1.0000
  C   C339      1.0  0.80344  0.81982  0.35134  1.0000
  N   N159      1.0  0.81692  0.83642  0.35072  1.0000
  C   C340      1.0  0.19553  0.64484  0.34538  1.0000
  N   N160      1.0  0.21002  0.63088  0.34015  1.0000
  C   C341      1.0  0.22365  0.64775  0.34139  1.0000
  N   N161      1.0  0.22263  0.67820  0.34679  1.0000
  C   C342      1.0  0.20834  0.69196  0.35134  1.0000
  N   N162      1.0  0.19486  0.67538  0.35069  1.0000
  C   C343      1.0  0.19567  0.86509  0.34722  1.0000
  N   N163      1.0  0.21011  0.87930  0.35103  1.0000
  C   C344      1.0  0.22379  0.86260  0.35376  1.0000
  N   N164      1.0  0.22287  0.83208  0.35478  1.0000
  C   C345      1.0  0.20861  0.81807  0.35230  1.0000
  N   N165      1.0  0.19509  0.83451  0.34877  1.0000
  C   C346      1.0  0.81610  0.64670  0.34733  1.0000
  N   N166      1.0  0.80168  0.63249  0.35106  1.0000
  C   C347      1.0  0.78800  0.64918  0.35372  1.0000
  N   N167      1.0  0.78891  0.67971  0.35480  1.0000
  C   C348      1.0  0.80317  0.69371  0.35239  1.0000
  N   N168      1.0  0.81669  0.67728  0.34887  1.0000
  C   C349      1.0  0.10428  0.62287  0.35448  1.0000
  N   N169      1.0  0.10002  0.59265  0.35805  1.0000
  C   C350      1.0  0.11127  0.56988  0.36181  1.0000
  N   N170      1.0  0.12670  0.57861  0.35353  1.0000
  C   C351      1.0  0.13148  0.60736  0.34427  1.0000
  N   N171      1.0  0.12011  0.62877  0.34702  1.0000
  C   C352      1.0  0.90751  0.88886  0.35439  1.0000
  N   N172      1.0  0.91177  0.91908  0.35803  1.0000
  C   C353      1.0  0.90052  0.94185  0.36190  1.0000
  N   N173      1.0  0.88510  0.93313  0.35356  1.0000
  C   C354      1.0  0.88031  0.90439  0.34416  1.0000
  N   N174      1.0  0.89167  0.88298  0.34688  1.0000
  C   C355      1.0  0.90743  0.62269  0.32526  1.0000
  N   N175      1.0  0.91157  0.59301  0.34352  1.0000
  C   C356      1.0  0.90048  0.57102  0.36419  1.0000
  N   N176      1.0  0.88504  0.58029  0.36435  1.0000
  C   C357      1.0  0.88018  0.60860  0.34696  1.0000
  N   N177      1.0  0.89159  0.62902  0.32814  1.0000
  C   C358      1.0  0.10434  0.88903  0.32512  1.0000
  N   N178      1.0  0.10020  0.91870  0.34346  1.0000
  C   C359      1.0  0.11129  0.94068  0.36433  1.0000
  N   N179      1.0  0.12673  0.93141  0.36442  1.0000
  C   C360      1.0  0.13159  0.90310  0.34694  1.0000
  N   N180      1.0  0.12018  0.88269  0.32802  1.0000
  C   C361      1.0  0.60424  0.87288  0.35409  1.0000
  N   N181      1.0  0.59998  0.84267  0.35778  1.0000
  C   C362      1.0  0.61123  0.81990  0.36155  1.0000
  N   N182      1.0  0.62665  0.82861  0.35313  1.0000
  C   C363      1.0  0.63143  0.85736  0.34369  1.0000
  N   N183      1.0  0.62007  0.87877  0.34648  1.0000
  C   C364      1.0  0.40754  0.63885  0.35405  1.0000
  N   N184      1.0  0.41181  0.66907  0.35774  1.0000
  C   C365      1.0  0.40056  0.69183  0.36155  1.0000
  N   N185      1.0  0.38514  0.68314  0.35314  1.0000
  C   C366      1.0  0.38035  0.65439  0.34361  1.0000
  N   N186      1.0  0.39171  0.63298  0.34641  1.0000
  C   C367      1.0  0.40744  0.87264  0.32498  1.0000
  N   N187      1.0  0.41160  0.84298  0.34320  1.0000
  C   C368      1.0  0.40052  0.82096  0.36384  1.0000
  N   N188      1.0  0.38508  0.83018  0.36396  1.0000
  C   C369      1.0  0.38020  0.85848  0.34655  1.0000
  N   N189      1.0  0.39160  0.87894  0.32786  1.0000
  C   C370      1.0  0.60433  0.63909  0.32495  1.0000
  N   N190      1.0  0.60017  0.66875  0.34323  1.0000
  C   C371      1.0  0.61125  0.69076  0.36410  1.0000
  N   N191      1.0  0.62670  0.68152  0.36419  1.0000
  C   C372      1.0  0.63157  0.65323  0.34669  1.0000
  N   N192      1.0  0.62017  0.63278  0.32787  1.0000
  C   C373      1.0  0.06439  0.78339  0.32300  1.0000
  N   N193      1.0  0.04816  0.78261  0.32621  1.0000
  C   C374      1.0  0.03993  0.75606  0.33398  1.0000
  N   N194      1.0  0.04825  0.72960  0.34093  1.0000
  C   C375      1.0  0.06449  0.72902  0.34401  1.0000
  N   N195      1.0  0.07184  0.75626  0.33333  1.0000
  C   C376      1.0  0.94739  0.72831  0.32330  1.0000
  N   N196      1.0  0.96363  0.72908  0.32659  1.0000
  C   C377      1.0  0.97186  0.75562  0.33405  1.0000
  N   N197      1.0  0.96355  0.78211  0.34066  1.0000
  C   C378      1.0  0.94730  0.78270  0.34379  1.0000
  N   N198      1.0  0.93996  0.75546  0.33337  1.0000
  C   C379      1.0  0.56440  0.53343  0.32286  1.0000
  N   N199      1.0  0.54816  0.53266  0.32603  1.0000
  C   C380      1.0  0.53992  0.50612  0.33374  1.0000
  N   N200      1.0  0.54824  0.97965  0.34064  1.0000
  C   C381      1.0  0.56448  0.97907  0.34377  1.0000
  N   N201      1.0  0.57183  0.50629  0.33316  1.0000
  C   C382      1.0  0.44739  0.97829  0.32309  1.0000
  N   N202      1.0  0.46363  0.97905  0.32631  1.0000
  C   C383      1.0  0.47186  0.00559  0.33379  1.0000
  N   N203      1.0  0.46355  0.53208  0.34046  1.0000
  C   C384      1.0  0.44731  0.53268  0.34363  1.0000
  N   N204      1.0  0.43996  0.00544  0.33320  1.0000
  C   C385      1.0  0.24754  0.63297  0.41948  1.0000
  C   C386      1.0  0.26393  0.62707  0.42018  1.0000
  H   H97       1.0  0.26950  0.62399  0.48106  1.0000
  H   H98       1.0  0.24172  0.63523  0.47994  1.0000
  C   C387      1.0  0.76423  0.87889  0.41947  1.0000
  C   C388      1.0  0.74783  0.88479  0.42008  1.0000
  H   H99       1.0  0.74226  0.88793  0.48093  1.0000
  H   H100      1.0  0.77004  0.87668  0.47995  1.0000
  C   C389      1.0  0.77248  0.63707  0.35806  1.0000
  C   C390      1.0  0.73930  0.62471  0.35687  1.0000
  C   C391      1.0  0.74732  0.62881  0.44041  1.0000
  C   C392      1.0  0.76396  0.63583  0.44085  1.0000
  N   N205      1.0  0.73796  0.62576  0.51955  1.0000
  N   N206      1.0  0.77289  0.64138  0.52037  1.0000
  O   O169      1.0  0.73655  0.64987  0.56331  1.0000
  O   O170      1.0  0.76817  0.66393  0.56408  1.0000
  O   O171      1.0  0.74243  0.60472  0.57023  1.0000
  O   O172      1.0  0.77405  0.61876  0.57090  1.0000
  C   C393      1.0  0.23931  0.87471  0.35804  1.0000
  C   C394      1.0  0.27248  0.88707  0.35685  1.0000
  C   C395      1.0  0.26446  0.88298  0.44037  1.0000
  C   C396      1.0  0.24782  0.87597  0.44085  1.0000
  N   N207      1.0  0.27382  0.88604  0.51950  1.0000
  N   N208      1.0  0.23889  0.87043  0.52039  1.0000
  O   O173      1.0  0.27523  0.86193  0.56327  1.0000
  O   O174      1.0  0.24361  0.84789  0.56414  1.0000
  O   O175      1.0  0.26935  0.90707  0.57019  1.0000
  O   O176      1.0  0.23773  0.89306  0.57086  1.0000
  C   C397      1.0  0.30401  0.97495  0.35804  1.0000
  C   C398      1.0  0.30438  0.53827  0.35876  1.0000
  C   C399      1.0  0.30355  0.52255  0.44224  1.0000
  C   C400      1.0  0.30342  0.99055  0.44187  1.0000
  N   N209      1.0  0.30274  0.53724  0.52726  1.0000
  N   N210      1.0  0.30262  0.97583  0.52678  1.0000
  O   O177      1.0  0.29033  0.55280  0.53584  1.0000
  O   O178      1.0  0.31442  0.95905  0.54076  1.0000
  O   O179      1.0  0.31473  0.55347  0.54200  1.0000
  O   O180      1.0  0.29002  0.96090  0.53606  1.0000
  C   C401      1.0  0.70777  0.53683  0.35788  1.0000
  C   C402      1.0  0.70739  0.97351  0.35861  1.0000
  C   C403      1.0  0.70822  0.98923  0.44209  1.0000
  C   C404      1.0  0.70836  0.52123  0.44172  1.0000
  N   N211      1.0  0.70903  0.97454  0.52712  1.0000
  N   N212      1.0  0.70916  0.53596  0.52663  1.0000
  O   O181      1.0  0.72145  0.95899  0.53569  1.0000
  O   O182      1.0  0.69736  0.55274  0.54059  1.0000
  O   O183      1.0  0.69704  0.95831  0.54186  1.0000
  O   O184      1.0  0.72176  0.55088  0.53592  1.0000
  C   C405      1.0  0.80387  0.72511  0.35577  1.0000
  C   C406      1.0  0.80414  0.78843  0.35490  1.0000
  C   C407      1.0  0.80520  0.77302  0.43843  1.0000
  C   C408      1.0  0.80509  0.74091  0.43907  1.0000
  N   N213      1.0  0.80600  0.79057  0.51847  1.0000
  N   N214      1.0  0.80602  0.72634  0.52410  1.0000
  O   O185      1.0  0.81864  0.78592  0.56160  1.0000
  O   O186      1.0  0.81819  0.71005  0.53116  1.0000
  O   O187      1.0  0.79424  0.78609  0.56910  1.0000
  O   O188      1.0  0.79383  0.71094  0.54107  1.0000
  C   C409      1.0  0.20790  0.78667  0.35571  1.0000
  C   C410      1.0  0.20765  0.72336  0.35488  1.0000
  C   C411      1.0  0.20661  0.73878  0.43842  1.0000
  C   C412      1.0  0.20672  0.77088  0.43903  1.0000
  N   N215      1.0  0.20584  0.72123  0.51848  1.0000
  N   N216      1.0  0.20582  0.78546  0.52406  1.0000
  O   O189      1.0  0.19322  0.72587  0.56175  1.0000
  O   O190      1.0  0.19365  0.80175  0.53124  1.0000
  O   O191      1.0  0.21762  0.72572  0.56896  1.0000
  O   O192      1.0  0.21801  0.80084  0.54091  1.0000
  C   C413      1.0  0.35567  0.64395  0.42220  1.0000
  C   C414      1.0  0.33949  0.63598  0.42244  1.0000
  H   H101      1.0  0.33402  0.63215  0.48320  1.0000
  H   H102      1.0  0.36143  0.64635  0.48273  1.0000
  C   C415      1.0  0.65612  0.86780  0.42220  1.0000
  C   C416      1.0  0.67229  0.87579  0.42242  1.0000
  H   H103      1.0  0.67778  0.87962  0.48315  1.0000
  H   H104      1.0  0.65036  0.86540  0.48273  1.0000
  C   C417      1.0  0.64793  0.64572  0.35023  1.0000
  C   C418      1.0  0.68077  0.63012  0.34937  1.0000
  C   C419      1.0  0.67308  0.63689  0.43234  1.0000
  C   C420      1.0  0.65658  0.64513  0.43274  1.0000
  N   N217      1.0  0.68252  0.63422  0.51134  1.0000
  N   N218      1.0  0.64772  0.65043  0.51270  1.0000
  O   O193      1.0  0.68469  0.65887  0.55123  1.0000
  O   O194      1.0  0.65307  0.67139  0.56080  1.0000
  O   O195      1.0  0.67777  0.61435  0.56535  1.0000
  O   O196      1.0  0.64588  0.62704  0.55933  1.0000
  C   C421      1.0  0.36384  0.86600  0.35012  1.0000
  C   C422      1.0  0.33102  0.88169  0.34935  1.0000
  C   C423      1.0  0.33873  0.87498  0.43234  1.0000
  C   C424      1.0  0.35522  0.86673  0.43270  1.0000
  N   N219      1.0  0.32932  0.87777  0.51141  1.0000
  N   N220      1.0  0.36409  0.86144  0.51264  1.0000
  O   O197      1.0  0.32715  0.85318  0.55166  1.0000
  O   O198      1.0  0.35875  0.84048  0.56078  1.0000
  O   O199      1.0  0.33409  0.89771  0.56512  1.0000
  O   O200      1.0  0.36595  0.88484  0.55923  1.0000
  C   C425      1.0  0.85564  0.89379  0.42280  1.0000
  C   C426      1.0  0.83946  0.88585  0.42303  1.0000
  H   H105      1.0  0.83400  0.88191  0.48375  1.0000
  H   H106      1.0  0.86142  0.89606  0.48331  1.0000
  C   C427      1.0  0.15616  0.61796  0.42285  1.0000
  C   C428      1.0  0.17233  0.62593  0.42308  1.0000
  H   H107      1.0  0.17780  0.62987  0.48377  1.0000
  H   H108      1.0  0.15037  0.61569  0.48337  1.0000
  C   C429      1.0  0.14795  0.89556  0.35018  1.0000
  C   C430      1.0  0.18078  0.87988  0.34868  1.0000
  C   C431      1.0  0.17319  0.88705  0.43166  1.0000
  C   C432      1.0  0.15670  0.89529  0.43237  1.0000
  N   N221      1.0  0.18274  0.88479  0.51038  1.0000
  N   N222      1.0  0.14792  0.90080  0.51251  1.0000
  O   O201      1.0  0.18500  0.90967  0.54880  1.0000
  O   O202      1.0  0.15336  0.92177  0.56028  1.0000
  O   O203      1.0  0.17802  0.86530  0.56571  1.0000
  O   O204      1.0  0.14607  0.87747  0.55945  1.0000
  C   C433      1.0  0.86382  0.61615  0.35020  1.0000
  C   C434      1.0  0.83101  0.63194  0.34868  1.0000
  C   C435      1.0  0.83859  0.62477  0.43169  1.0000
  C   C436      1.0  0.85508  0.61651  0.43241  1.0000
  N   N223      1.0  0.82906  0.62710  0.51044  1.0000
  N   N224      1.0  0.86386  0.61096  0.51255  1.0000
  O   O205      1.0  0.82679  0.60225  0.54900  1.0000
  O   O206      1.0  0.85841  0.59000  0.56026  1.0000
  O   O207      1.0  0.83379  0.64661  0.56565  1.0000
  O   O208      1.0  0.86572  0.63428  0.55954  1.0000
  C   C437      1.0  0.09405  0.64868  0.36087  1.0000
  C   C438      1.0  0.07382  0.70232  0.35600  1.0000
  C   C439      1.0  0.08919  0.70306  0.39712  1.0000
  C   C440      1.0  0.09926  0.67714  0.39715  1.0000
  N   N225      1.0  0.09401  0.72708  0.45507  1.0000
  N   N226      1.0  0.11381  0.68122  0.44474  1.0000
  O   O209      1.0  0.10091  0.74898  0.41868  1.0000
  O   O210      1.0  0.11648  0.66296  0.50790  1.0000
  O   O211      1.0  0.08404  0.73524  0.51346  1.0000
  O   O212      1.0  0.12576  0.68642  0.39619  1.0000
  C   C441      1.0  0.91774  0.86304  0.36070  1.0000
  C   C442      1.0  0.93797  0.80941  0.35573  1.0000
  C   C443      1.0  0.92260  0.80865  0.39671  1.0000
  C   C444      1.0  0.91254  0.83459  0.39701  1.0000
  N   N227      1.0  0.91779  0.78469  0.45496  1.0000
  N   N228      1.0  0.89796  0.83047  0.44431  1.0000
  O   O213      1.0  0.91089  0.76275  0.41883  1.0000
  O   O214      1.0  0.89525  0.84869  0.50756  1.0000
  O   O215      1.0  0.92777  0.77660  0.51336  1.0000
  O   O216      1.0  0.88603  0.82528  0.39556  1.0000
  C   C445      1.0  0.93383  0.64700  0.34230  1.0000
  C   C446      1.0  0.94364  0.67302  0.34296  1.0000
  H   H109      1.0  0.95457  0.67141  0.37322  1.0000
  H   H110      1.0  0.93811  0.62782  0.37237  1.0000
  C   C447      1.0  0.07794  0.86471  0.34204  1.0000
  C   C448      1.0  0.06812  0.83869  0.34263  1.0000
  H   H111      1.0  0.05721  0.84026  0.37300  1.0000
  H   H112      1.0  0.07366  0.88388  0.37219  1.0000
  C   C449      1.0  0.59401  0.89870  0.36055  1.0000
  C   C450      1.0  0.57380  0.95235  0.35575  1.0000
  C   C451      1.0  0.58916  0.95306  0.39697  1.0000
  C   C452      1.0  0.59922  0.92713  0.39695  1.0000
  N   N229      1.0  0.59397  0.97706  0.45504  1.0000
  N   N230      1.0  0.61377  0.93117  0.44464  1.0000
  O   O217      1.0  0.60088  0.99897  0.41878  1.0000
  O   O218      1.0  0.61643  0.91286  0.50770  1.0000
  O   O219      1.0  0.58399  0.98519  0.51338  1.0000
  O   O220      1.0  0.62573  0.93638  0.39619  1.0000
  C   C453      1.0  0.41777  0.61303  0.36044  1.0000
  C   C454      1.0  0.43799  0.55939  0.35558  1.0000
  C   C455      1.0  0.42262  0.55865  0.39661  1.0000
  C   C456      1.0  0.41256  0.58460  0.39686  1.0000
  N   N231      1.0  0.41782  0.53472  0.45496  1.0000
  N   N232      1.0  0.39799  0.58052  0.44425  1.0000
  O   O221      1.0  0.41092  0.51276  0.41890  1.0000
  O   O222      1.0  0.39530  0.59878  0.50739  1.0000
  O   O223      1.0  0.42781  0.52665  0.51331  1.0000
  O   O224      1.0  0.38606  0.57532  0.39556  1.0000
  C   C457      1.0  0.43383  0.89697  0.34197  1.0000
  C   C458      1.0  0.44365  0.92299  0.34265  1.0000
  H   H113      1.0  0.45458  0.92138  0.37283  1.0000
  H   H114      1.0  0.43812  0.87778  0.37196  1.0000
  C   C459      1.0  0.57794  0.61476  0.34182  1.0000
  C   C460      1.0  0.56812  0.58873  0.34242  1.0000
  H   H115      1.0  0.55720  0.59032  0.37272  1.0000
  H   H116      1.0  0.57365  0.63394  0.37190  1.0000
  C   C461      1.0  0.10923  0.53821  0.37696  1.0000
  C   C462      1.0  0.10909  0.97240  0.37983  1.0000
  C   C463      1.0  0.12044  0.98939  0.43083  1.0000
  C   C464      1.0  0.12067  0.52155  0.42861  1.0000
  N   N233      1.0  0.13114  0.97346  0.48827  1.0000
  N   N234      1.0  0.13172  0.53543  0.48862  1.0000
  O   O225      1.0  0.12888  0.97849  0.57072  1.0000
  O   O226      1.0  0.12622  0.55526  0.54064  1.0000
  O   O227      1.0  0.14552  0.97751  0.46809  1.0000
  O   O228      1.0  0.14496  0.54254  0.45527  1.0000
  C   C465      1.0  0.90257  0.97351  0.37710  1.0000
  C   C466      1.0  0.90269  0.53932  0.37983  1.0000
  C   C467      1.0  0.89136  0.52233  0.43092  1.0000
  C   C468      1.0  0.89114  0.99017  0.42884  1.0000
  N   N235      1.0  0.88066  0.53827  0.48835  1.0000
  N   N236      1.0  0.88007  0.97629  0.48870  1.0000
  O   O229      1.0  0.88292  0.53325  0.57080  1.0000
  O   O230      1.0  0.88556  0.95643  0.54072  1.0000
  O   O231      1.0  0.86627  0.53420  0.46820  1.0000
  O   O232      1.0  0.86684  0.96920  0.45526  1.0000
  C   C469      1.0  0.60917  0.78825  0.37683  1.0000
  C   C470      1.0  0.60904  0.72245  0.37968  1.0000
  C   C471      1.0  0.62036  0.73944  0.43088  1.0000
  C   C472      1.0  0.62059  0.77160  0.42866  1.0000
  N   N237      1.0  0.63102  0.72350  0.48850  1.0000
  N   N238      1.0  0.63165  0.78549  0.48854  1.0000
  O   O233      1.0  0.62873  0.72856  0.57089  1.0000
  O   O234      1.0  0.62616  0.80538  0.54044  1.0000
  O   O235      1.0  0.64542  0.72751  0.46857  1.0000
  O   O236      1.0  0.64489  0.79256  0.45510  1.0000
  C   C473      1.0  0.40262  0.72349  0.37685  1.0000
  C   C474      1.0  0.40275  0.78927  0.37957  1.0000
  C   C475      1.0  0.39143  0.77230  0.43083  1.0000
  C   C476      1.0  0.39120  0.74014  0.42861  1.0000
  N   N239      1.0  0.38078  0.78826  0.48848  1.0000
  N   N240      1.0  0.38015  0.72627  0.48862  1.0000
  O   O237      1.0  0.38308  0.78321  0.57087  1.0000
  O   O238      1.0  0.38565  0.70639  0.54049  1.0000
  O   O239      1.0  0.36637  0.78425  0.46863  1.0000
  O   O240      1.0  0.36691  0.71917  0.45525  1.0000
  C   C477      1.0  0.99752  0.75519  0.41222  1.0000
  C   C478      1.0  0.01428  0.75510  0.41218  1.0000
  H   H117      1.0  0.02013  0.75466  0.47280  1.0000
  H   H118      1.0  0.99167  0.75470  0.47285  1.0000
  C   C479      1.0  0.49752  0.50539  0.41197  1.0000
  C   C480      1.0  0.51428  0.50534  0.41194  1.0000
  H   H119      1.0  0.52013  0.50503  0.47258  1.0000
  H   H120      1.0  0.49167  0.50502  0.47261  1.0000
