data_image0
_chemical_formula_structural       C4H3CH3CHC4H3CH3CHC4H3CH3CHC4H3CH3CHC4H3CH3CHC4H3CH3CHC4H3CH3CHC4H3CH3CHC4H3CH3CHC4H3CH3CHC4H3CH3CHC4H3CH3CHC4H3CH3CHC4H3CH3CHC4H3CH3CHC4H3CH3CHC4H3CH3CHC4H3CH3CHC4H3CH3CHC4H3CH3CHC4H3CH3CHC4H3CH3CHC4H3CH3CHC4H3CH3CHC4H3CH3CHC4H3CH3CHC4H3CH3CHC4H3CH3CHC4H3CH3CHC4H3CH3CHC6H3N3C6H3N3C6H3N3C6H3N3C6H3N3C6H3N3C6H3N3C6H3N3C6H3N3C6H3N3C6H3N3C6H3N3C6H3N3C6H3N3C6H3N3C6H3N3C6H3N3C6H3N3C6H3N3C6H3N3C4H3CH3CHC4H3CH3CHC4H3CH3CHC4H3CH3CHC4H3CH3CHC4H3CH3CHC4H3CH3CHC4H3CH3CHC4H3CH3CHC4H3CH3CHC4H3CH3CHC4H3CH3CHC4H3CH3CHC4H3CH3CHC4H3CH3CHC4H3CH3CHC4H3CH3CHC4H3CH3CHC4H3CH3CHC4H3CH3CHC4H3CH3CHC4H3CH3CHC4H3CH3CHC4H3CH3CHC4H3CH3CHC4H3CH3CHC4H3CH3CHC4H3CH3CHC4H3CH3CHC4H3CH3CH
_chemical_formula_sum              "C480 H480 N60"
_cell_length_a       131.221
_cell_length_b       34.5604
_cell_length_c       14.8084
_cell_angle_alpha    90
_cell_angle_beta     90
_cell_angle_gamma    90

_space_group_name_H-M_alt    "P 1"
_space_group_IT_number       1

loop_
  _space_group_symop_operation_xyz
  'x, y, z'

loop_
  _atom_site_type_symbol
  _atom_site_label
  _atom_site_symmetry_multiplicity
  _atom_site_fract_x
  _atom_site_fract_y
  _atom_site_fract_z
  _atom_site_occupancy
  C   C1        1.0  0.24635  0.27315  0.36832  1.0000
  C   C2        1.0  0.25180  0.27577  0.28487  1.0000
  C   C3        1.0  0.26182  0.25954  0.27799  1.0000
  C   C4        1.0  0.26794  0.26138  0.19197  1.0000
  H   H1        1.0  0.26453  0.27753  0.13688  1.0000
  H   H2        1.0  0.26930  0.23213  0.16683  1.0000
  H   H3        1.0  0.27529  0.27508  0.20555  1.0000
  C   C5        1.0  0.24713  0.29487  0.20355  1.0000
  H   H4        1.0  0.23940  0.30555  0.21270  1.0000
  H   H5        1.0  0.24678  0.27426  0.14780  1.0000
  H   H6        1.0  0.25174  0.31974  0.18368  1.0000
  C   C6        1.0  0.23738  0.29426  0.37952  1.0000
  H   H7        1.0  0.23816  0.32041  0.40662  1.0000
  C   C7        1.0  0.76658  0.73977  0.36841  1.0000
  C   C8        1.0  0.76113  0.73714  0.28496  1.0000
  C   C9        1.0  0.75112  0.75335  0.27805  1.0000
  C   C10       1.0  0.74499  0.75148  0.19203  1.0000
  H   H8        1.0  0.74840  0.73532  0.13696  1.0000
  H   H9        1.0  0.74364  0.78073  0.16684  1.0000
  H   H10       1.0  0.73764  0.73779  0.20564  1.0000
  C   C11       1.0  0.76581  0.71802  0.20365  1.0000
  H   H11       1.0  0.77353  0.70736  0.21279  1.0000
  H   H12       1.0  0.76615  0.73863  0.14788  1.0000
  H   H13       1.0  0.76120  0.69314  0.18381  1.0000
  C   C12       1.0  0.77555  0.71867  0.37958  1.0000
  H   H14       1.0  0.77478  0.69251  0.40673  1.0000
  C   C13       1.0  0.74661  0.23914  0.33783  1.0000
  C   C14       1.0  0.75199  0.23710  0.25413  1.0000
  C   C15       1.0  0.76193  0.25399  0.24694  1.0000
  C   C16       1.0  0.74742  0.21749  0.17282  1.0000
  H   H15       1.0  0.73977  0.20608  0.18249  1.0000
  H   H16       1.0  0.75216  0.19306  0.15266  1.0000
  H   H17       1.0  0.74691  0.23789  0.11683  1.0000
  C   C17       1.0  0.76754  0.25175  0.15826  1.0000
  H   H18       1.0  0.77520  0.26383  0.15892  1.0000
  H   H19       1.0  0.76330  0.26734  0.10639  1.0000
  H   H20       1.0  0.76839  0.22163  0.13769  1.0000
  C   C18       1.0  0.73764  0.21796  0.34934  1.0000
  H   H21       1.0  0.73843  0.19222  0.37843  1.0000
  C   C19       1.0  0.26634  0.77371  0.33786  1.0000
  C   C20       1.0  0.26095  0.77575  0.25413  1.0000
  C   C21       1.0  0.25102  0.75887  0.24691  1.0000
  C   C22       1.0  0.26553  0.79536  0.17281  1.0000
  H   H22       1.0  0.27318  0.80676  0.18248  1.0000
  H   H23       1.0  0.26079  0.81980  0.15265  1.0000
  H   H24       1.0  0.26604  0.77495  0.11683  1.0000
  C   C23       1.0  0.24541  0.76113  0.15824  1.0000
  H   H25       1.0  0.23775  0.74907  0.15887  1.0000
  H   H26       1.0  0.24965  0.74553  0.10635  1.0000
  H   H27       1.0  0.24456  0.79125  0.13769  1.0000
  C   C24       1.0  0.27530  0.79492  0.34934  1.0000
  H   H28       1.0  0.27451  0.82066  0.37838  1.0000
  C   C25       1.0  0.29987  0.04718  0.35539  1.0000
  C   C26       1.0  0.29848  0.02716  0.27206  1.0000
  C   C27       1.0  0.29840  0.98583  0.27181  1.0000
  C   C28       1.0  0.29676  0.04882  0.18511  1.0000
  H   H29       1.0  0.29742  0.08016  0.19066  1.0000
  H   H30       1.0  0.28916  0.04267  0.15908  1.0000
  H   H31       1.0  0.30241  0.04009  0.13509  1.0000
  C   C29       1.0  0.29616  0.96480  0.18492  1.0000
  H   H32       1.0  0.29616  0.93339  0.18986  1.0000
  H   H33       1.0  0.30189  0.97210  0.13435  1.0000
  H   H34       1.0  0.28866  0.97308  0.15980  1.0000
  C   C30       1.0  0.29726  0.08599  0.36028  1.0000
  H   H35       1.0  0.28991  0.09202  0.36702  1.0000
  C   C31       1.0  0.71306  0.96575  0.35516  1.0000
  C   C32       1.0  0.71444  0.98577  0.27183  1.0000
  C   C33       1.0  0.71453  0.02710  0.27162  1.0000
  C   C34       1.0  0.71615  0.96413  0.18485  1.0000
  H   H36       1.0  0.71548  0.93280  0.19037  1.0000
  H   H37       1.0  0.72375  0.97027  0.15876  1.0000
  H   H38       1.0  0.71049  0.97288  0.13488  1.0000
  C   C35       1.0  0.71676  0.04815  0.18475  1.0000
  H   H39       1.0  0.71677  0.07956  0.18974  1.0000
  H   H40       1.0  0.71103  0.04088  0.13421  1.0000
  H   H41       1.0  0.72426  0.03986  0.15959  1.0000
  C   C36       1.0  0.71567  0.92693  0.35999  1.0000
  H   H42       1.0  0.72303  0.92091  0.36648  1.0000
  C   C37       1.0  0.79973  0.54750  0.35986  1.0000
  C   C38       1.0  0.79785  0.52781  0.27686  1.0000
  C   C39       1.0  0.79791  0.48647  0.27558  1.0000
  C   C40       1.0  0.79545  0.54965  0.19145  1.0000
  H   H43       1.0  0.79569  0.58102  0.19770  1.0000
  H   H44       1.0  0.78782  0.54224  0.16801  1.0000
  H   H45       1.0  0.80096  0.54222  0.13911  1.0000
  C   C41       1.0  0.79556  0.46562  0.18870  1.0000
  H   H46       1.0  0.79597  0.43420  0.19258  1.0000
  H   H47       1.0  0.80098  0.47416  0.13658  1.0000
  H   H48       1.0  0.78786  0.47277  0.16633  1.0000
  C   C42       1.0  0.79751  0.58662  0.36673  1.0000
  H   H49       1.0  0.79062  0.59367  0.38938  1.0000
  C   C43       1.0  0.21320  0.46543  0.35970  1.0000
  C   C44       1.0  0.21509  0.48514  0.27671  1.0000
  C   C45       1.0  0.21502  0.52648  0.27545  1.0000
  C   C46       1.0  0.21750  0.46331  0.19128  1.0000
  H   H50       1.0  0.21726  0.43193  0.19750  1.0000
  H   H51       1.0  0.22513  0.47074  0.16789  1.0000
  H   H52       1.0  0.21199  0.47073  0.13893  1.0000
  C   C47       1.0  0.21738  0.54734  0.18859  1.0000
  H   H53       1.0  0.21695  0.57875  0.19247  1.0000
  H   H54       1.0  0.21196  0.53878  0.13644  1.0000
  H   H55       1.0  0.22507  0.54022  0.16624  1.0000
  C   C48       1.0  0.21543  0.42631  0.36648  1.0000
  H   H56       1.0  0.22231  0.41927  0.38935  1.0000
  C   C49       1.0  0.35996  0.26261  0.38844  1.0000
  C   C50       1.0  0.35456  0.25300  0.30759  1.0000
  C   C51       1.0  0.34405  0.24187  0.31255  1.0000
  C   C52       1.0  0.33828  0.22751  0.23127  1.0000
  H   H57       1.0  0.34257  0.22645  0.16859  1.0000
  H   H58       1.0  0.33174  0.24629  0.21907  1.0000
  H   H59       1.0  0.33556  0.19812  0.24338  1.0000
  C   C53       1.0  0.35986  0.25370  0.21761  1.0000
  H   H60       1.0  0.36757  0.26532  0.21895  1.0000
  H   H61       1.0  0.35562  0.27204  0.17080  1.0000
  H   H62       1.0  0.36033  0.22441  0.19038  1.0000
  C   C54       1.0  0.37062  0.26336  0.38683  1.0000
  H   H63       1.0  0.37419  0.23825  0.37906  1.0000
  C   C55       1.0  0.65299  0.75023  0.38802  1.0000
  C   C56       1.0  0.65840  0.75990  0.30724  1.0000
  C   C57       1.0  0.66890  0.77108  0.31233  1.0000
  C   C58       1.0  0.67467  0.78551  0.23113  1.0000
  H   H64       1.0  0.67039  0.78659  0.16843  1.0000
  H   H65       1.0  0.68122  0.76675  0.21891  1.0000
  H   H66       1.0  0.67739  0.81490  0.24336  1.0000
  C   C59       1.0  0.65311  0.75922  0.21720  1.0000
  H   H67       1.0  0.64540  0.74755  0.21843  1.0000
  H   H68       1.0  0.65736  0.74093  0.17038  1.0000
  H   H69       1.0  0.65263  0.78851  0.19004  1.0000
  C   C60       1.0  0.64233  0.74948  0.38627  1.0000
  H   H70       1.0  0.63876  0.77461  0.37867  1.0000
  C   C61       1.0  0.67431  0.24523  0.30199  1.0000
  C   C62       1.0  0.66932  0.26101  0.22458  1.0000
  C   C63       1.0  0.65866  0.26970  0.22822  1.0000
  C   C64       1.0  0.67511  0.26752  0.13818  1.0000
  H   H71       1.0  0.68331  0.26323  0.14399  1.0000
  H   H72       1.0  0.67413  0.29731  0.11554  1.0000
  H   H73       1.0  0.67234  0.24794  0.08586  1.0000
  C   C65       1.0  0.65329  0.28209  0.14317  1.0000
  H   H74       1.0  0.64515  0.28711  0.15031  1.0000
  H   H75       1.0  0.65416  0.25991  0.09133  1.0000
  H   H76       1.0  0.65654  0.30916  0.11858  1.0000
  C   C66       1.0  0.68343  0.22478  0.29018  1.0000
  H   H77       1.0  0.68337  0.20415  0.24319  1.0000
  C   C67       1.0  0.33862  0.76773  0.30257  1.0000
  C   C68       1.0  0.34360  0.75192  0.22513  1.0000
  C   C69       1.0  0.35426  0.74321  0.22877  1.0000
  C   C70       1.0  0.33781  0.74538  0.13878  1.0000
  H   H78       1.0  0.32960  0.74966  0.14467  1.0000
  H   H79       1.0  0.33879  0.71559  0.11616  1.0000
  H   H80       1.0  0.34057  0.76496  0.08642  1.0000
  C   C71       1.0  0.35962  0.73079  0.14371  1.0000
  H   H81       1.0  0.36777  0.72577  0.15083  1.0000
  H   H82       1.0  0.35875  0.75297  0.09185  1.0000
  H   H83       1.0  0.35638  0.70373  0.11915  1.0000
  C   C72       1.0  0.32952  0.78834  0.29066  1.0000
  H   H84       1.0  0.32958  0.80873  0.24312  1.0000
  C   C73       1.0  0.86004  0.76254  0.39022  1.0000
  C   C74       1.0  0.85460  0.75281  0.30968  1.0000
  C   C75       1.0  0.84410  0.74153  0.31524  1.0000
  C   C76       1.0  0.83830  0.72706  0.23428  1.0000
  H   H85       1.0  0.84255  0.72601  0.17139  1.0000
  H   H86       1.0  0.83173  0.74576  0.22233  1.0000
  H   H87       1.0  0.83561  0.69764  0.24661  1.0000
  C   C77       1.0  0.85983  0.75354  0.21942  1.0000
  H   H88       1.0  0.86754  0.76527  0.22034  1.0000
  H   H89       1.0  0.85555  0.77179  0.17279  1.0000
  H   H90       1.0  0.86032  0.72425  0.19224  1.0000
  C   C78       1.0  0.87071  0.76341  0.38808  1.0000
  H   H91       1.0  0.87429  0.73832  0.38022  1.0000
  C   C79       1.0  0.15291  0.25030  0.38980  1.0000
  C   C80       1.0  0.15836  0.26010  0.30933  1.0000
  C   C81       1.0  0.16885  0.27143  0.31498  1.0000
  C   C82       1.0  0.17466  0.28597  0.23410  1.0000
  H   H92       1.0  0.17042  0.28703  0.17119  1.0000
  H   H93       1.0  0.18123  0.26731  0.22215  1.0000
  H   H94       1.0  0.17734  0.31540  0.24653  1.0000
  C   C83       1.0  0.15313  0.25938  0.21901  1.0000
  H   H95       1.0  0.14544  0.24760  0.21984  1.0000
  H   H96       1.0  0.15743  0.24117  0.17237  1.0000
  H   H97       1.0  0.15264  0.28868  0.19191  1.0000
  C   C84       1.0  0.14225  0.24943  0.38753  1.0000
  H   H98       1.0  0.13867  0.27453  0.37987  1.0000
  C   C85       1.0  0.17435  0.74435  0.29951  1.0000
  C   C86       1.0  0.16933  0.76018  0.22229  1.0000
  C   C87       1.0  0.15869  0.76913  0.22644  1.0000
  C   C88       1.0  0.17508  0.76653  0.13561  1.0000
  H   H99       1.0  0.18328  0.76200  0.14100  1.0000
  H   H100      1.0  0.17415  0.79634  0.11302  1.0000
  H   H101      1.0  0.17225  0.74702  0.08343  1.0000
  C   C89       1.0  0.15329  0.78164  0.14163  1.0000
  H   H102      1.0  0.14516  0.78688  0.14919  1.0000
  H   H103      1.0  0.15409  0.75941  0.08980  1.0000
  H   H104      1.0  0.15657  0.80860  0.11682  1.0000
  C   C90       1.0  0.18346  0.72377  0.28755  1.0000
  H   H105      1.0  0.18337  0.70307  0.24075  1.0000
  C   C91       1.0  0.83858  0.26862  0.30007  1.0000
  C   C92       1.0  0.84359  0.25274  0.22283  1.0000
  C   C93       1.0  0.85423  0.24377  0.22697  1.0000
  C   C94       1.0  0.83783  0.24636  0.13621  1.0000
  H   H106      1.0  0.82964  0.25087  0.14169  1.0000
  H   H107      1.0  0.83877  0.21654  0.11366  1.0000
  H   H108      1.0  0.84067  0.26586  0.08398  1.0000
  C   C95       1.0  0.85963  0.23123  0.14216  1.0000
  H   H109      1.0  0.86776  0.22598  0.14970  1.0000
  H   H110      1.0  0.85883  0.25345  0.09030  1.0000
  H   H111      1.0  0.85634  0.20427  0.11741  1.0000
  C   C96       1.0  0.82951  0.28937  0.28801  1.0000
  H   H112      1.0  0.82959  0.30979  0.24055  1.0000
  C   C97       1.0  0.07908  0.38086  0.32602  1.0000
  C   C98       1.0  0.08358  0.36112  0.25082  1.0000
  C   C99       1.0  0.09043  0.32920  0.26413  1.0000
  C   C100      1.0  0.08069  0.37249  0.15600  1.0000
  H   H113      1.0  0.07408  0.39148  0.15189  1.0000
  H   H114      1.0  0.07861  0.34700  0.11666  1.0000
  H   H115      1.0  0.08706  0.38710  0.12323  1.0000
  C   C101      1.0  0.09612  0.31373  0.18352  1.0000
  H   H116      1.0  0.10227  0.29380  0.19869  1.0000
  H   H117      1.0  0.09966  0.33746  0.14636  1.0000
  H   H118      1.0  0.09086  0.29850  0.13889  1.0000
  C   C102      1.0  0.07475  0.41848  0.31333  1.0000
  H   H119      1.0  0.07797  0.43566  0.26482  1.0000
  C   C103      1.0  0.93386  0.63197  0.32641  1.0000
  C   C104      1.0  0.92939  0.65179  0.25120  1.0000
  C   C105      1.0  0.92254  0.68372  0.26451  1.0000
  C   C106      1.0  0.93230  0.64047  0.15640  1.0000
  H   H120      1.0  0.93892  0.62150  0.15236  1.0000
  H   H121      1.0  0.93438  0.66598  0.11714  1.0000
  H   H122      1.0  0.92593  0.62586  0.12351  1.0000
  C   C107      1.0  0.91687  0.69926  0.18387  1.0000
  H   H123      1.0  0.91071  0.71915  0.19903  1.0000
  H   H124      1.0  0.91335  0.67556  0.14648  1.0000
  H   H125      1.0  0.92214  0.71456  0.13946  1.0000
  C   C108      1.0  0.93818  0.59433  0.31365  1.0000
  H   H126      1.0  0.93499  0.57718  0.26492  1.0000
  C   C109      1.0  0.92010  0.31840  0.33027  1.0000
  C   C110      1.0  0.91832  0.35842  0.30948  1.0000
  C   C111      1.0  0.92582  0.38749  0.32825  1.0000
  C   C112      1.0  0.92256  0.42910  0.33231  1.0000
  H   H127      1.0  0.91433  0.43312  0.33496  1.0000
  H   H128      1.0  0.92545  0.44474  0.27362  1.0000
  H   H129      1.0  0.92537  0.44255  0.39414  1.0000
  C   C113      1.0  0.90921  0.36933  0.25300  1.0000
  H   H130      1.0  0.90748  0.34694  0.20326  1.0000
  H   H131      1.0  0.91043  0.39543  0.21303  1.0000
  H   H132      1.0  0.90258  0.37367  0.29633  1.0000
  C   C114      1.0  0.91165  0.29178  0.32861  1.0000
  H   H133      1.0  0.90464  0.30361  0.31925  1.0000
  C   C115      1.0  0.09284  0.69449  0.32956  1.0000
  C   C116      1.0  0.09462  0.65447  0.30886  1.0000
  C   C117      1.0  0.08712  0.62539  0.32752  1.0000
  C   C118      1.0  0.09038  0.58378  0.33160  1.0000
  H   H134      1.0  0.09861  0.57976  0.33426  1.0000
  H   H135      1.0  0.08748  0.56813  0.27292  1.0000
  H   H136      1.0  0.08757  0.57034  0.39344  1.0000
  C   C119      1.0  0.10373  0.64358  0.25237  1.0000
  H   H137      1.0  0.10545  0.66597  0.20262  1.0000
  H   H138      1.0  0.10252  0.61747  0.21241  1.0000
  H   H139      1.0  0.11036  0.63928  0.29570  1.0000
  C   C120      1.0  0.10128  0.72113  0.32793  1.0000
  H   H140      1.0  0.10829  0.70930  0.31869  1.0000
  C   C121      1.0  0.57911  0.88106  0.32601  1.0000
  C   C122      1.0  0.58360  0.86135  0.25078  1.0000
  C   C123      1.0  0.59047  0.82947  0.26402  1.0000
  C   C124      1.0  0.58069  0.87270  0.15598  1.0000
  H   H141      1.0  0.57408  0.89166  0.15193  1.0000
  H   H142      1.0  0.57862  0.84720  0.11666  1.0000
  H   H143      1.0  0.58706  0.88734  0.12314  1.0000
  C   C125      1.0  0.59615  0.81403  0.18336  1.0000
  H   H144      1.0  0.60231  0.79412  0.19847  1.0000
  H   H145      1.0  0.59968  0.83778  0.14618  1.0000
  H   H146      1.0  0.59090  0.79878  0.13877  1.0000
  C   C126      1.0  0.57476  0.91866  0.31336  1.0000
  H   H147      1.0  0.57797  0.93586  0.26484  1.0000
  C   C127      1.0  0.43383  0.13180  0.32642  1.0000
  C   C128      1.0  0.42936  0.15160  0.25118  1.0000
  C   C129      1.0  0.42250  0.18349  0.26443  1.0000
  C   C130      1.0  0.43228  0.14029  0.15640  1.0000
  H   H148      1.0  0.43890  0.12134  0.15241  1.0000
  H   H149      1.0  0.43436  0.16581  0.11716  1.0000
  H   H150      1.0  0.42592  0.12566  0.12344  1.0000
  C   C131      1.0  0.41684  0.19902  0.18373  1.0000
  H   H151      1.0  0.41067  0.21889  0.19883  1.0000
  H   H152      1.0  0.41332  0.17531  0.14631  1.0000
  H   H153      1.0  0.42211  0.21434  0.13937  1.0000
  C   C132      1.0  0.43816  0.09418  0.31371  1.0000
  H   H154      1.0  0.43498  0.07702  0.26496  1.0000
  C   C133      1.0  0.42014  0.81820  0.33039  1.0000
  C   C134      1.0  0.41835  0.85820  0.30957  1.0000
  C   C135      1.0  0.42585  0.88731  0.32832  1.0000
  C   C136      1.0  0.42258  0.92891  0.33228  1.0000
  H   H155      1.0  0.41435  0.93291  0.33487  1.0000
  H   H156      1.0  0.42547  0.94454  0.27360  1.0000
  H   H157      1.0  0.42538  0.94238  0.39412  1.0000
  C   C137      1.0  0.40925  0.86907  0.25306  1.0000
  H   H158      1.0  0.40752  0.84665  0.20340  1.0000
  H   H159      1.0  0.41046  0.89515  0.21300  1.0000
  H   H160      1.0  0.40262  0.87343  0.29638  1.0000
  C   C138      1.0  0.41170  0.79155  0.32881  1.0000
  H   H161      1.0  0.40469  0.80335  0.31950  1.0000
  C   C139      1.0  0.59278  0.19469  0.32970  1.0000
  C   C140      1.0  0.59457  0.15468  0.30893  1.0000
  C   C141      1.0  0.58708  0.12558  0.32757  1.0000
  C   C142      1.0  0.59035  0.08397  0.33154  1.0000
  H   H162      1.0  0.59858  0.07998  0.33412  1.0000
  H   H163      1.0  0.58745  0.06834  0.27286  1.0000
  H   H164      1.0  0.58755  0.07050  0.39339  1.0000
  C   C143      1.0  0.60368  0.14385  0.25240  1.0000
  H   H165      1.0  0.60540  0.16627  0.20273  1.0000
  H   H166      1.0  0.60247  0.11776  0.21235  1.0000
  H   H167      1.0  0.61032  0.13952  0.29571  1.0000
  C   C144      1.0  0.60122  0.22135  0.32813  1.0000
  H   H168      1.0  0.60823  0.20955  0.31891  1.0000
  C   C145      1.0  0.11387  0.96592  0.31661  1.0000
  C   C146      1.0  0.11446  0.99267  0.24285  1.0000
  C   C147      1.0  0.11501  0.03361  0.25844  1.0000
  C   C148      1.0  0.11400  0.97796  0.14715  1.0000
  H   H169      1.0  0.11148  0.94802  0.14139  1.0000
  H   H170      1.0  0.12149  0.98023  0.11558  1.0000
  H   H171      1.0  0.10851  0.99460  0.10777  1.0000
  C   C149      1.0  0.11745  0.05956  0.17965  1.0000
  H   H172      1.0  0.11945  0.08911  0.19684  1.0000
  H   H173      1.0  0.11092  0.06100  0.13423  1.0000
  H   H174      1.0  0.12401  0.04832  0.14265  1.0000
  C   C150      1.0  0.11647  0.92623  0.30171  1.0000
  H   H175      1.0  0.12171  0.92070  0.25224  1.0000
  C   C151      1.0  0.89905  0.04699  0.31729  1.0000
  C   C152      1.0  0.89846  0.02026  0.24349  1.0000
  C   C153      1.0  0.89791  0.97932  0.25904  1.0000
  C   C154      1.0  0.89893  0.03499  0.14781  1.0000
  H   H176      1.0  0.90146  0.06493  0.14209  1.0000
  H   H177      1.0  0.89143  0.03274  0.11625  1.0000
  H   H178      1.0  0.90441  0.01835  0.10839  1.0000
  C   C155      1.0  0.89547  0.95338  0.18022  1.0000
  H   H179      1.0  0.89347  0.92383  0.19740  1.0000
  H   H180      1.0  0.90200  0.95192  0.13484  1.0000
  H   H181      1.0  0.88892  0.96464  0.14320  1.0000
  C   C156      1.0  0.89646  0.08668  0.30243  1.0000
  H   H182      1.0  0.89121  0.09219  0.25298  1.0000
  C   C157      1.0  0.61382  0.46615  0.31669  1.0000
  C   C158      1.0  0.61440  0.49286  0.24286  1.0000
  C   C159      1.0  0.61495  0.53380  0.25837  1.0000
  C   C160      1.0  0.61391  0.47811  0.14720  1.0000
  H   H183      1.0  0.61139  0.44817  0.14154  1.0000
  H   H184      1.0  0.62140  0.48038  0.11550  1.0000
  H   H185      1.0  0.60842  0.49473  0.10788  1.0000
  C   C161      1.0  0.61737  0.55974  0.17949  1.0000
  H   H186      1.0  0.61937  0.58929  0.19658  1.0000
  H   H187      1.0  0.61081  0.56117  0.13426  1.0000
  H   H188      1.0  0.62391  0.54848  0.14230  1.0000
  C   C162      1.0  0.61640  0.42644  0.30188  1.0000
  H   H189      1.0  0.62163  0.42086  0.25234  1.0000
  C   C163      1.0  0.39910  0.54676  0.31735  1.0000
  C   C164      1.0  0.39850  0.52006  0.24350  1.0000
  C   C165      1.0  0.39794  0.47912  0.25901  1.0000
  C   C166      1.0  0.39898  0.53481  0.14784  1.0000
  H   H190      1.0  0.40152  0.56474  0.14216  1.0000
  H   H191      1.0  0.39149  0.53260  0.11626  1.0000
  H   H192      1.0  0.40446  0.51815  0.10843  1.0000
  C   C167      1.0  0.39550  0.45320  0.18016  1.0000
  H   H193      1.0  0.39348  0.42366  0.19728  1.0000
  H   H194      1.0  0.40205  0.45171  0.13488  1.0000
  H   H195      1.0  0.38896  0.46450  0.14301  1.0000
  C   C168      1.0  0.39652  0.58647  0.30251  1.0000
  H   H196      1.0  0.39128  0.59204  0.25305  1.0000
  C   C169      1.0  0.01736  0.50049  0.36698  1.0000
  C   C170      1.0  0.01174  0.49962  0.28409  1.0000
  C   C171      1.0  0.00089  0.50562  0.28421  1.0000
  C   C172      1.0  0.99467  0.50446  0.19871  1.0000
  H   H197      1.0  0.99883  0.49747  0.13743  1.0000
  H   H198      1.0  0.99110  0.53259  0.18754  1.0000
  H   H199      1.0  0.98871  0.48260  0.20513  1.0000
  C   C173      1.0  0.01714  0.49328  0.19578  1.0000
  H   H200      1.0  0.02540  0.49077  0.20029  1.0000
  H   H201      1.0  0.01568  0.51765  0.15071  1.0000
  H   H202      1.0  0.01440  0.46666  0.16451  1.0000
  C   C174      1.0  0.02768  0.48878  0.36807  1.0000
  H   H203      1.0  0.02894  0.46047  0.36790  1.0000
  C   C175      1.0  0.51736  0.00052  0.36709  1.0000
  C   C176      1.0  0.51173  0.99963  0.28420  1.0000
  C   C177      1.0  0.50089  0.00560  0.28431  1.0000
  C   C178      1.0  0.49467  0.00441  0.19881  1.0000
  H   H204      1.0  0.49882  0.99740  0.13754  1.0000
  H   H205      1.0  0.49109  0.03253  0.18758  1.0000
  H   H206      1.0  0.48870  0.98255  0.20528  1.0000
  C   C179      1.0  0.51714  0.99330  0.19588  1.0000
  H   H207      1.0  0.52539  0.99083  0.20038  1.0000
  H   H208      1.0  0.51567  0.01766  0.15080  1.0000
  H   H209      1.0  0.51440  0.96666  0.16463  1.0000
  C   C180      1.0  0.52767  0.98881  0.36814  1.0000
  H   H210      1.0  0.52894  0.96050  0.36772  1.0000
  C   C181      1.0  0.31212  0.21419  0.36976  1.0000
  C   C182      1.0  0.30254  0.23328  0.36988  1.0000
  C   C183      1.0  0.29324  0.21249  0.36513  1.0000
  C   C184      1.0  0.29378  0.17160  0.36276  1.0000
  C   C185      1.0  0.30315  0.15151  0.36001  1.0000
  C   C186      1.0  0.31221  0.17329  0.36217  1.0000
  H   H211      1.0  0.28718  0.15607  0.36381  1.0000
  H   H212      1.0  0.31903  0.15891  0.35984  1.0000
  H   H213      1.0  0.30234  0.26283  0.37459  1.0000
  N   N1        1.0  0.32078  0.23489  0.37596  1.0000
  N   N2        1.0  0.28424  0.23127  0.36917  1.0000
  N   N3        1.0  0.30399  0.11302  0.35656  1.0000
  C   C187      1.0  0.70081  0.79873  0.36976  1.0000
  C   C188      1.0  0.71039  0.77964  0.36987  1.0000
  C   C189      1.0  0.71969  0.80043  0.36516  1.0000
  C   C190      1.0  0.71916  0.84133  0.36274  1.0000
  C   C191      1.0  0.70979  0.86142  0.35996  1.0000
  C   C192      1.0  0.70072  0.83964  0.36217  1.0000
  H   H214      1.0  0.72575  0.85685  0.36384  1.0000
  H   H215      1.0  0.69391  0.85402  0.35981  1.0000
  H   H216      1.0  0.71059  0.75010  0.37462  1.0000
  N   N4        1.0  0.69215  0.77804  0.37597  1.0000
  N   N5        1.0  0.72869  0.78165  0.36921  1.0000
  N   N6        1.0  0.70895  0.89991  0.35651  1.0000
  C   C193      1.0  0.70084  0.21416  0.32706  1.0000
  C   C194      1.0  0.71049  0.23271  0.32642  1.0000
  C   C195      1.0  0.71970  0.21132  0.32832  1.0000
  C   C196      1.0  0.71902  0.17045  0.32875  1.0000
  C   C197      1.0  0.70957  0.15101  0.33423  1.0000
  C   C198      1.0  0.70059  0.17323  0.33331  1.0000
  H   H217      1.0  0.72552  0.15439  0.32356  1.0000
  H   H218      1.0  0.69372  0.15921  0.33619  1.0000
  H   H219      1.0  0.71080  0.26228  0.32293  1.0000
  N   N7        1.0  0.69227  0.23539  0.32239  1.0000
  N   N8        1.0  0.72873  0.22971  0.32407  1.0000
  N   N9        1.0  0.70867  0.11258  0.33537  1.0000
  C   C199      1.0  0.31210  0.79880  0.32711  1.0000
  C   C200      1.0  0.30246  0.78023  0.32648  1.0000
  C   C201      1.0  0.29324  0.80160  0.32836  1.0000
  C   C202      1.0  0.29392  0.84247  0.32885  1.0000
  C   C203      1.0  0.30336  0.86193  0.33432  1.0000
  C   C204      1.0  0.31235  0.83973  0.33337  1.0000
  H   H220      1.0  0.28742  0.85851  0.32367  1.0000
  H   H221      1.0  0.31921  0.85377  0.33627  1.0000
  H   H222      1.0  0.30215  0.75066  0.32293  1.0000
  N   N10       1.0  0.32067  0.77759  0.32244  1.0000
  N   N11       1.0  0.28421  0.78318  0.32411  1.0000
  N   N12       1.0  0.30426  0.90036  0.33553  1.0000
  C   C205      1.0  0.81229  0.71379  0.37104  1.0000
  C   C206      1.0  0.80271  0.73287  0.36807  1.0000
  C   C207      1.0  0.79345  0.71209  0.35886  1.0000
  C   C208      1.0  0.79404  0.67144  0.34871  1.0000
  C   C209      1.0  0.80339  0.65131  0.35319  1.0000
  C   C210      1.0  0.81242  0.67292  0.36263  1.0000
  H   H223      1.0  0.78751  0.65614  0.33692  1.0000
  H   H224      1.0  0.81923  0.65845  0.36358  1.0000
  H   H225      1.0  0.80247  0.76238  0.37379  1.0000
  N   N13       1.0  0.82090  0.73459  0.37987  1.0000
  N   N14       1.0  0.78447  0.73081  0.35550  1.0000
  N   N15       1.0  0.80415  0.61286  0.34867  1.0000
  C   C211      1.0  0.20065  0.29916  0.37102  1.0000
  C   C212      1.0  0.21022  0.28007  0.36803  1.0000
  C   C213      1.0  0.21948  0.30084  0.35877  1.0000
  C   C214      1.0  0.21890  0.34149  0.34858  1.0000
  C   C215      1.0  0.20955  0.36163  0.35304  1.0000
  C   C216      1.0  0.20052  0.34003  0.36255  1.0000
  H   H226      1.0  0.22542  0.35679  0.33674  1.0000
  H   H227      1.0  0.19371  0.35450  0.36350  1.0000
  H   H228      1.0  0.21046  0.25056  0.37381  1.0000
  N   N16       1.0  0.19203  0.27837  0.37990  1.0000
  N   N17       1.0  0.22847  0.28211  0.35543  1.0000
  N   N18       1.0  0.20878  0.40008  0.34845  1.0000
  C   C217      1.0  0.20092  0.71373  0.32485  1.0000
  C   C218      1.0  0.21049  0.73272  0.32725  1.0000
  C   C219      1.0  0.21976  0.71175  0.33259  1.0000
  C   C220      1.0  0.21919  0.67097  0.33963  1.0000
  C   C221      1.0  0.20979  0.65101  0.33898  1.0000
  C   C222      1.0  0.20077  0.67280  0.33133  1.0000
  H   H229      1.0  0.22576  0.65548  0.34564  1.0000
  H   H230      1.0  0.19394  0.65846  0.33138  1.0000
  H   H231      1.0  0.21074  0.76228  0.32341  1.0000
  N   N19       1.0  0.19232  0.73474  0.31839  1.0000
  N   N20       1.0  0.22872  0.73059  0.33573  1.0000
  N   N21       1.0  0.20895  0.61254  0.34130  1.0000
  C   C223      1.0  0.81203  0.29923  0.32485  1.0000
  C   C224      1.0  0.80246  0.28022  0.32727  1.0000
  C   C225      1.0  0.79319  0.30115  0.33264  1.0000
  C   C226      1.0  0.79375  0.34194  0.33971  1.0000
  C   C227      1.0  0.80314  0.36192  0.33904  1.0000
  C   C228      1.0  0.81217  0.34017  0.33137  1.0000
  H   H232      1.0  0.78718  0.35741  0.34575  1.0000
  H   H233      1.0  0.81900  0.35452  0.33137  1.0000
  H   H234      1.0  0.80222  0.25065  0.32337  1.0000
  N   N22       1.0  0.82063  0.27825  0.31838  1.0000
  N   N23       1.0  0.78423  0.28229  0.33576  1.0000
  N   N24       1.0  0.80398  0.40040  0.34137  1.0000
  C   C229      1.0  0.12720  0.20922  0.37885  1.0000
  C   C230      1.0  0.12459  0.16972  0.37080  1.0000
  C   C231      1.0  0.11466  0.15760  0.34620  1.0000
  C   C232      1.0  0.10726  0.18669  0.32915  1.0000
  C   C233      1.0  0.10920  0.22636  0.34732  1.0000
  C   C234      1.0  0.11927  0.23694  0.37206  1.0000
  H   H235      1.0  0.10005  0.17849  0.31108  1.0000
  H   H236      1.0  0.12100  0.26559  0.37875  1.0000
  H   H237      1.0  0.13026  0.14950  0.37624  1.0000
  N   N25       1.0  0.13715  0.21757  0.38676  1.0000
  N   N26       1.0  0.11217  0.11937  0.33557  1.0000
  N   N27       1.0  0.10150  0.25285  0.33809  1.0000
  C   C235      1.0  0.88575  0.80365  0.37952  1.0000
  C   C236      1.0  0.88835  0.84315  0.37153  1.0000
  C   C237      1.0  0.89828  0.85530  0.34662  1.0000
  C   C238      1.0  0.90567  0.82623  0.32935  1.0000
  C   C239      1.0  0.90374  0.78656  0.34761  1.0000
  C   C240      1.0  0.89368  0.77594  0.37246  1.0000
  H   H238      1.0  0.91288  0.83448  0.31130  1.0000
  H   H239      1.0  0.89196  0.74730  0.37927  1.0000
  H   H240      1.0  0.88268  0.86336  0.37686  1.0000
  N   N28       1.0  0.87580  0.79528  0.38741  1.0000
  N   N29       1.0  0.90075  0.89353  0.33599  1.0000
  N   N30       1.0  0.91146  0.76011  0.33837  1.0000
  C   C241      1.0  0.88540  0.20782  0.31978  1.0000
  C   C242      1.0  0.88829  0.16848  0.31917  1.0000
  C   C243      1.0  0.89852  0.15671  0.33285  1.0000
  C   C244      1.0  0.90597  0.18601  0.34565  1.0000
  C   C245      1.0  0.90360  0.22600  0.33851  1.0000
  C   C246      1.0  0.89319  0.23607  0.32725  1.0000
  H   H241      1.0  0.91342  0.17797  0.35396  1.0000
  H   H242      1.0  0.89117  0.26450  0.32571  1.0000
  H   H243      1.0  0.88271  0.14790  0.31432  1.0000
  N   N31       1.0  0.87539  0.21560  0.31537  1.0000
  N   N32       1.0  0.90130  0.11854  0.33595  1.0000
  N   N33       1.0  0.91139  0.25253  0.33989  1.0000
  C   C247      1.0  0.12752  0.80509  0.31908  1.0000
  C   C248      1.0  0.12463  0.84444  0.31835  1.0000
  C   C249      1.0  0.11440  0.85620  0.33212  1.0000
  C   C250      1.0  0.10695  0.82690  0.34497  1.0000
  C   C251      1.0  0.10933  0.78692  0.33778  1.0000
  C   C252      1.0  0.11974  0.77684  0.32659  1.0000
  H   H244      1.0  0.09950  0.83495  0.35317  1.0000
  H   H245      1.0  0.12176  0.74842  0.32507  1.0000
  H   H246      1.0  0.13022  0.86501  0.31367  1.0000
  N   N34       1.0  0.13754  0.79731  0.31474  1.0000
  N   N35       1.0  0.11163  0.89437  0.33524  1.0000
  N   N36       1.0  0.10154  0.76038  0.33916  1.0000
  C   C253      1.0  0.62724  0.70939  0.37822  1.0000
  C   C254      1.0  0.62461  0.66991  0.37033  1.0000
  C   C255      1.0  0.61466  0.65785  0.34595  1.0000
  C   C256      1.0  0.60728  0.68699  0.32899  1.0000
  C   C257      1.0  0.60925  0.72665  0.34705  1.0000
  C   C258      1.0  0.61933  0.73717  0.37157  1.0000
  H   H247      1.0  0.60006  0.67884  0.31108  1.0000
  H   H248      1.0  0.62107  0.76581  0.37814  1.0000
  H   H249      1.0  0.63027  0.64964  0.37567  1.0000
  N   N37       1.0  0.63720  0.71766  0.38576  1.0000
  N   N38       1.0  0.61216  0.61965  0.33541  1.0000
  N   N39       1.0  0.60155  0.75317  0.33795  1.0000
  C   C259      1.0  0.38570  0.30350  0.37891  1.0000
  C   C260      1.0  0.38831  0.34299  0.37107  1.0000
  C   C261      1.0  0.39825  0.35508  0.34639  1.0000
  C   C262      1.0  0.40564  0.32597  0.32923  1.0000
  C   C263      1.0  0.40369  0.28631  0.34738  1.0000
  C   C264      1.0  0.39362  0.27575  0.37198  1.0000
  H   H250      1.0  0.41286  0.33420  0.31135  1.0000
  H   H251      1.0  0.39188  0.24710  0.37868  1.0000
  H   H252      1.0  0.38265  0.36323  0.37629  1.0000
  N   N40       1.0  0.37574  0.29519  0.38640  1.0000
  N   N41       1.0  0.40075  0.39330  0.33587  1.0000
  N   N42       1.0  0.41140  0.25985  0.33825  1.0000
  C   C265      1.0  0.38547  0.70755  0.32042  1.0000
  C   C266      1.0  0.38837  0.66821  0.31966  1.0000
  C   C267      1.0  0.39860  0.65646  0.33308  1.0000
  C   C268      1.0  0.40605  0.68576  0.34581  1.0000
  C   C269      1.0  0.40367  0.72575  0.33880  1.0000
  C   C270      1.0  0.39325  0.73581  0.32777  1.0000
  H   H253      1.0  0.41351  0.67773  0.35395  1.0000
  H   H254      1.0  0.39123  0.76423  0.32639  1.0000
  H   H255      1.0  0.38278  0.64763  0.31492  1.0000
  N   N43       1.0  0.37546  0.71530  0.31634  1.0000
  N   N44       1.0  0.40138  0.61829  0.33608  1.0000
  N   N45       1.0  0.41145  0.75230  0.34008  1.0000
  C   C271      1.0  0.62745  0.30536  0.31972  1.0000
  C   C272      1.0  0.62455  0.34470  0.31887  1.0000
  C   C273      1.0  0.61432  0.35644  0.33243  1.0000
  C   C274      1.0  0.60687  0.32714  0.34520  1.0000
  C   C275      1.0  0.60925  0.28716  0.33811  1.0000
  C   C276      1.0  0.61967  0.27710  0.32713  1.0000
  H   H256      1.0  0.59942  0.33518  0.35326  1.0000
  H   H257      1.0  0.62169  0.24868  0.32574  1.0000
  H   H258      1.0  0.63014  0.36528  0.31430  1.0000
  N   N46       1.0  0.63746  0.29761  0.31571  1.0000
  N   N47       1.0  0.61154  0.39462  0.33547  1.0000
  N   N48       1.0  0.60147  0.26060  0.33938  1.0000
  C   C277      1.0  0.06130  0.46730  0.34610  1.0000
  C   C278      1.0  0.05067  0.47090  0.36103  1.0000
  C   C279      1.0  0.04563  0.50738  0.36081  1.0000
  C   C280      1.0  0.05182  0.54101  0.35413  1.0000
  C   C281      1.0  0.06255  0.53882  0.34277  1.0000
  C   C282      1.0  0.06702  0.50173  0.33452  1.0000
  H   H259      1.0  0.04844  0.56763  0.35716  1.0000
  H   H260      1.0  0.07477  0.49983  0.32800  1.0000
  H   H261      1.0  0.04647  0.44616  0.36766  1.0000
  N   N49       1.0  0.06566  0.43127  0.34648  1.0000
  N   N50       1.0  0.03538  0.51218  0.36447  1.0000
  N   N51       1.0  0.06909  0.56957  0.34277  1.0000
  C   C283      1.0  0.95162  0.54555  0.34670  1.0000
  C   C284      1.0  0.96225  0.54197  0.36211  1.0000
  C   C285      1.0  0.96729  0.50550  0.36204  1.0000
  C   C286      1.0  0.96111  0.47186  0.35547  1.0000
  C   C287      1.0  0.95039  0.47403  0.34361  1.0000
  C   C288      1.0  0.94592  0.51110  0.33505  1.0000
  H   H262      1.0  0.96449  0.44524  0.35882  1.0000
  H   H263      1.0  0.93817  0.51301  0.32811  1.0000
  H   H264      1.0  0.96645  0.56671  0.36910  1.0000
  N   N52       1.0  0.94726  0.58157  0.34700  1.0000
  N   N53       1.0  0.97754  0.50072  0.36666  1.0000
  N   N54       1.0  0.94384  0.44328  0.34353  1.0000
  C   C289      1.0  0.56130  0.96742  0.34619  1.0000
  C   C290      1.0  0.55067  0.97098  0.36113  1.0000
  C   C291      1.0  0.54563  0.00745  0.36093  1.0000
  C   C292      1.0  0.55180  0.04110  0.35425  1.0000
  C   C293      1.0  0.56253  0.03894  0.34286  1.0000
  C   C294      1.0  0.56701  0.00186  0.33459  1.0000
  H   H265      1.0  0.54841  0.06771  0.35730  1.0000
  H   H266      1.0  0.57476  0.99998  0.32806  1.0000
  H   H267      1.0  0.54647  0.94623  0.36779  1.0000
  N   N55       1.0  0.56566  0.93140  0.34655  1.0000
  N   N56       1.0  0.53537  0.01222  0.36465  1.0000
  N   N57       1.0  0.56907  0.06970  0.34286  1.0000
  C   C295      1.0  0.45162  0.04546  0.34679  1.0000
  C   C296      1.0  0.46224  0.04191  0.36221  1.0000
  C   C297      1.0  0.46729  0.00545  0.36214  1.0000
  C   C298      1.0  0.46112  0.97180  0.35557  1.0000
  C   C299      1.0  0.45039  0.97393  0.34370  1.0000
  C   C300      1.0  0.44592  0.01099  0.33514  1.0000
  H   H268      1.0  0.46451  0.94519  0.35892  1.0000
  H   H269      1.0  0.43817  0.01288  0.32820  1.0000
  H   H270      1.0  0.46643  0.06666  0.36919  1.0000
  N   N58       1.0  0.44725  0.08146  0.34708  1.0000
  N   N59       1.0  0.47754  0.00070  0.36678  1.0000
  N   N60       1.0  0.44385  0.94316  0.34362  1.0000
  C   C301      1.0  0.26633  0.24123  0.35475  1.0000
  C   C302      1.0  0.26088  0.23861  0.43808  1.0000
  C   C303      1.0  0.25087  0.25487  0.44505  1.0000
  C   C304      1.0  0.26547  0.21892  0.51925  1.0000
  H   H271      1.0  0.27318  0.20806  0.50987  1.0000
  H   H272      1.0  0.26082  0.19411  0.53848  1.0000
  H   H273      1.0  0.26584  0.23911  0.57576  1.0000
  C   C305      1.0  0.24522  0.25201  0.53340  1.0000
  H   H274      1.0  0.23750  0.26362  0.53256  1.0000
  H   H275      1.0  0.24936  0.26770  0.58576  1.0000
  H   H276      1.0  0.24447  0.22178  0.55341  1.0000
  C   C306      1.0  0.27531  0.22009  0.34289  1.0000
  H   H277      1.0  0.27449  0.19458  0.31285  1.0000
  C   C307      1.0  0.74660  0.77169  0.35477  1.0000
  C   C308      1.0  0.75205  0.77435  0.43810  1.0000
  C   C309      1.0  0.76206  0.75808  0.44509  1.0000
  C   C310      1.0  0.74746  0.79406  0.51922  1.0000
  H   H278      1.0  0.73975  0.80493  0.50982  1.0000
  H   H279      1.0  0.75212  0.81887  0.53842  1.0000
  H   H280      1.0  0.74709  0.77389  0.57577  1.0000
  C   C311      1.0  0.76771  0.76096  0.53344  1.0000
  H   H281      1.0  0.77543  0.74932  0.53262  1.0000
  H   H282      1.0  0.76357  0.74529  0.58582  1.0000
  H   H283      1.0  0.76846  0.79119  0.55340  1.0000
  C   C312      1.0  0.73762  0.79282  0.34288  1.0000
  H   H284      1.0  0.73844  0.81832  0.31277  1.0000
  C   C313      1.0  0.76640  0.27235  0.32373  1.0000
  C   C314      1.0  0.76102  0.27431  0.40761  1.0000
  C   C315      1.0  0.75109  0.25741  0.41477  1.0000
  C   C316      1.0  0.74502  0.25855  0.50118  1.0000
  H   H285      1.0  0.74844  0.27446  0.55664  1.0000
  H   H286      1.0  0.74375  0.22910  0.52546  1.0000
  H   H287      1.0  0.73763  0.27208  0.48844  1.0000
  C   C317      1.0  0.76566  0.29351  0.48896  1.0000
  H   H288      1.0  0.77333  0.30483  0.47947  1.0000
  H   H289      1.0  0.76617  0.27273  0.54429  1.0000
  H   H290      1.0  0.76094  0.31794  0.50964  1.0000
  C   C318      1.0  0.77526  0.29407  0.31239  1.0000
  H   H291      1.0  0.77435  0.32022  0.28569  1.0000
  C   C319      1.0  0.24654  0.74051  0.32372  1.0000
  C   C320      1.0  0.25193  0.73853  0.40759  1.0000
  C   C321      1.0  0.26185  0.75544  0.41479  1.0000
  C   C322      1.0  0.26792  0.75432  0.50121  1.0000
  H   H292      1.0  0.26450  0.73842  0.55666  1.0000
  H   H293      1.0  0.26919  0.78377  0.52546  1.0000
  H   H294      1.0  0.27531  0.74079  0.48850  1.0000
  C   C323      1.0  0.24729  0.71930  0.48891  1.0000
  H   H295      1.0  0.23963  0.70795  0.47935  1.0000
  H   H296      1.0  0.24676  0.74006  0.54425  1.0000
  H   H297      1.0  0.25201  0.69489  0.50958  1.0000
  C   C324      1.0  0.23769  0.71881  0.31230  1.0000
  H   H298      1.0  0.23860  0.69266  0.28556  1.0000
  C   C325      1.0  0.30014  0.96553  0.35435  1.0000
  C   C326      1.0  0.30259  0.98562  0.43576  1.0000
  C   C327      1.0  0.30221  0.02692  0.43683  1.0000
  C   C328      1.0  0.30394  0.05003  0.52173  1.0000
  H   H299      1.0  0.30580  0.03333  0.58162  1.0000
  H   H300      1.0  0.29710  0.06657  0.53807  1.0000
  H   H301      1.0  0.31024  0.07015  0.51111  1.0000
  C   C329      1.0  0.30530  0.96395  0.52046  1.0000
  H   H302      1.0  0.30590  0.93270  0.51249  1.0000
  H   H303      1.0  0.29955  0.96929  0.57224  1.0000
  H   H304      1.0  0.31272  0.97357  0.54487  1.0000
  C   C330      1.0  0.29781  0.92651  0.35909  1.0000
  H   H305      1.0  0.29098  0.91940  0.38273  1.0000
  C   C331      1.0  0.71279  0.04741  0.35418  1.0000
  C   C332      1.0  0.71034  0.02729  0.43558  1.0000
  C   C333      1.0  0.71073  0.98599  0.43663  1.0000
  C   C334      1.0  0.70901  0.96287  0.52154  1.0000
  H   H306      1.0  0.70716  0.97957  0.58147  1.0000
  H   H307      1.0  0.71585  0.94632  0.53778  1.0000
  H   H308      1.0  0.70270  0.94276  0.51099  1.0000
  C   C335      1.0  0.70764  0.04895  0.52031  1.0000
  H   H309      1.0  0.70702  0.08019  0.51236  1.0000
  H   H310      1.0  0.71339  0.04364  0.57205  1.0000
  H   H311      1.0  0.70021  0.03929  0.54477  1.0000
  C   C336      1.0  0.71511  0.08643  0.35899  1.0000
  H   H312      1.0  0.72194  0.09354  0.38277  1.0000
  C   C337      1.0  0.79994  0.46581  0.35713  1.0000
  C   C338      1.0  0.80270  0.48557  0.43819  1.0000
  C   C339      1.0  0.80249  0.52689  0.43983  1.0000
  C   C340      1.0  0.80483  0.54970  0.52408  1.0000
  H   H313      1.0  0.80719  0.53283  0.58227  1.0000
  H   H314      1.0  0.79808  0.56595  0.54482  1.0000
  H   H315      1.0  0.81098  0.57008  0.51019  1.0000
  C   C341      1.0  0.80556  0.46356  0.52202  1.0000
  H   H316      1.0  0.80581  0.43224  0.51424  1.0000
  H   H317      1.0  0.80011  0.46977  0.57572  1.0000
  H   H318      1.0  0.81318  0.47212  0.54373  1.0000
  C   C342      1.0  0.79749  0.42689  0.36169  1.0000
  H   H319      1.0  0.79045  0.42025  0.38103  1.0000
  C   C343      1.0  0.21298  0.54711  0.35702  1.0000
  C   C344      1.0  0.21022  0.52734  0.43806  1.0000
  C   C345      1.0  0.21044  0.48602  0.43966  1.0000
  C   C346      1.0  0.20811  0.46320  0.52389  1.0000
  H   H320      1.0  0.20574  0.48006  0.58208  1.0000
  H   H321      1.0  0.21485  0.44696  0.54464  1.0000
  H   H322      1.0  0.20195  0.44280  0.50998  1.0000
  C   C347      1.0  0.20736  0.54934  0.52189  1.0000
  H   H323      1.0  0.20711  0.58066  0.51412  1.0000
  H   H324      1.0  0.21282  0.54313  0.57560  1.0000
  H   H325      1.0  0.19974  0.54078  0.54360  1.0000
  C   C348      1.0  0.21544  0.58603  0.36156  1.0000
  H   H326      1.0  0.22247  0.59265  0.38087  1.0000
  C   C349      1.0  0.33883  0.24351  0.39717  1.0000
  C   C350      1.0  0.34393  0.25804  0.47541  1.0000
  C   C351      1.0  0.35463  0.26611  0.47208  1.0000
  C   C352      1.0  0.33819  0.26399  0.56230  1.0000
  H   H327      1.0  0.32996  0.26044  0.55637  1.0000
  H   H328      1.0  0.33934  0.29342  0.58684  1.0000
  H   H329      1.0  0.34085  0.24358  0.61330  1.0000
  C   C353      1.0  0.36007  0.27704  0.55781  1.0000
  H   H330      1.0  0.36825  0.28133  0.55093  1.0000
  H   H331      1.0  0.35906  0.25437  0.60829  1.0000
  H   H332      1.0  0.35700  0.30411  0.58406  1.0000
  C   C354      1.0  0.32959  0.22359  0.40795  1.0000
  H   H333      1.0  0.32955  0.20257  0.45397  1.0000
  C   C355      1.0  0.67412  0.76940  0.39698  1.0000
  C   C356      1.0  0.66901  0.75481  0.47513  1.0000
  C   C357      1.0  0.65832  0.74672  0.47169  1.0000
  C   C358      1.0  0.67474  0.74881  0.56203  1.0000
  H   H334      1.0  0.68297  0.75237  0.55615  1.0000
  H   H335      1.0  0.67359  0.71937  0.58646  1.0000
  H   H336      1.0  0.67207  0.76919  0.61308  1.0000
  C   C359      1.0  0.65286  0.73574  0.55733  1.0000
  H   H337      1.0  0.64468  0.73144  0.55036  1.0000
  H   H338      1.0  0.65386  0.75838  0.60788  1.0000
  H   H339      1.0  0.65593  0.70866  0.58355  1.0000
  C   C360      1.0  0.68335  0.78939  0.40790  1.0000
  H   H340      1.0  0.68339  0.81029  0.45420  1.0000
  C   C361      1.0  0.65328  0.26540  0.31146  1.0000
  C   C362      1.0  0.65860  0.25445  0.39181  1.0000
  C   C363      1.0  0.66907  0.24288  0.38642  1.0000
  C   C364      1.0  0.67475  0.22728  0.46691  1.0000
  H   H341      1.0  0.67045  0.22589  0.52948  1.0000
  H   H342      1.0  0.68138  0.24549  0.48024  1.0000
  H   H343      1.0  0.67734  0.19785  0.45315  1.0000
  C   C365      1.0  0.65323  0.25409  0.48146  1.0000
  H   H344      1.0  0.64553  0.26592  0.48043  1.0000
  H   H345      1.0  0.65746  0.27169  0.52982  1.0000
  H   H346      1.0  0.65268  0.22447  0.50652  1.0000
  C   C366      1.0  0.64264  0.26597  0.31215  1.0000
  H   H347      1.0  0.63911  0.24057  0.31261  1.0000
  C   C367      1.0  0.35964  0.74752  0.31201  1.0000
  C   C368      1.0  0.35433  0.75845  0.39237  1.0000
  C   C369      1.0  0.34386  0.77004  0.38700  1.0000
  C   C370      1.0  0.33818  0.78563  0.46749  1.0000
  H   H348      1.0  0.34247  0.78694  0.53011  1.0000
  H   H349      1.0  0.33153  0.76748  0.48067  1.0000
  H   H350      1.0  0.33561  0.81510  0.45381  1.0000
  C   C371      1.0  0.35970  0.75882  0.48200  1.0000
  H   H351      1.0  0.36740  0.74703  0.48094  1.0000
  H   H352      1.0  0.35547  0.74121  0.53036  1.0000
  H   H353      1.0  0.36024  0.78845  0.50708  1.0000
  C   C372      1.0  0.37028  0.74694  0.31263  1.0000
  H   H354      1.0  0.37382  0.77233  0.31300  1.0000
  C   C373      1.0  0.83894  0.74313  0.40014  1.0000
  C   C374      1.0  0.84407  0.75780  0.47805  1.0000
  C   C375      1.0  0.85476  0.76603  0.47413  1.0000
  C   C376      1.0  0.83838  0.76375  0.56519  1.0000
  H   H355      1.0  0.83016  0.76004  0.55972  1.0000
  H   H356      1.0  0.83952  0.79322  0.58949  1.0000
  H   H357      1.0  0.84111  0.74343  0.61617  1.0000
  C   C377      1.0  0.86025  0.77712  0.55951  1.0000
  H   H358      1.0  0.86842  0.78154  0.55220  1.0000
  H   H359      1.0  0.85930  0.75448  0.61015  1.0000
  H   H360      1.0  0.85716  0.80417  0.58579  1.0000
  C   C378      1.0  0.82971  0.72318  0.41136  1.0000
  H   H361      1.0  0.82969  0.70215  0.45735  1.0000
  C   C379      1.0  0.17401  0.26980  0.39992  1.0000
  C   C380      1.0  0.16887  0.25507  0.47774  1.0000
  C   C381      1.0  0.15819  0.24680  0.47372  1.0000
  C   C382      1.0  0.17456  0.24907  0.56489  1.0000
  H   H362      1.0  0.18278  0.25279  0.55945  1.0000
  H   H363      1.0  0.17343  0.21959  0.58909  1.0000
  H   H364      1.0  0.17183  0.26935  0.61592  1.0000
  C   C383      1.0  0.15269  0.23565  0.55904  1.0000
  H   H365      1.0  0.14453  0.23122  0.55165  1.0000
  H   H366      1.0  0.15363  0.25827  0.60974  1.0000
  H   H367      1.0  0.15578  0.20860  0.58527  1.0000
  C   C384      1.0  0.18322  0.28984  0.41125  1.0000
  H   H368      1.0  0.18326  0.31072  0.45759  1.0000
  C   C385      1.0  0.15336  0.76498  0.30993  1.0000
  C   C386      1.0  0.15871  0.75399  0.39005  1.0000
  C   C387      1.0  0.16916  0.74223  0.38422  1.0000
  C   C388      1.0  0.17488  0.72668  0.46455  1.0000
  H   H369      1.0  0.17062  0.72549  0.52738  1.0000
  H   H370      1.0  0.18154  0.74477  0.47731  1.0000
  H   H371      1.0  0.17742  0.69716  0.45095  1.0000
  C   C389      1.0  0.15339  0.75379  0.47995  1.0000
  H   H372      1.0  0.14571  0.76571  0.47921  1.0000
  H   H373      1.0  0.15767  0.77139  0.52801  1.0000
  H   H374      1.0  0.15283  0.72420  0.50522  1.0000
  C   C390      1.0  0.14271  0.76565  0.31106  1.0000
  H   H375      1.0  0.13917  0.74027  0.31168  1.0000
  C   C391      1.0  0.85957  0.24794  0.31045  1.0000
  C   C392      1.0  0.85422  0.25893  0.39060  1.0000
  C   C393      1.0  0.84378  0.27070  0.38478  1.0000
  C   C394      1.0  0.83805  0.28626  0.46511  1.0000
  H   H376      1.0  0.84230  0.28735  0.52799  1.0000
  H   H377      1.0  0.83138  0.26822  0.47772  1.0000
  H   H378      1.0  0.83554  0.31581  0.45159  1.0000
  C   C395      1.0  0.85954  0.25914  0.48048  1.0000
  H   H379      1.0  0.86723  0.24725  0.47970  1.0000
  H   H380      1.0  0.85528  0.24152  0.52855  1.0000
  H   H381      1.0  0.86010  0.28873  0.50575  1.0000
  C   C396      1.0  0.87022  0.24726  0.31151  1.0000
  H   H382      1.0  0.87376  0.27264  0.31203  1.0000
  C   C397      1.0  0.09240  0.31525  0.35338  1.0000
  C   C398      1.0  0.08697  0.33215  0.42761  1.0000
  C   C399      1.0  0.08050  0.36523  0.41464  1.0000
  C   C400      1.0  0.07584  0.38619  0.49361  1.0000
  H   H383      1.0  0.07789  0.37521  0.55993  1.0000
  H   H384      1.0  0.06756  0.38471  0.48878  1.0000
  H   H385      1.0  0.07821  0.41647  0.49338  1.0000
  C   C401      1.0  0.08745  0.31330  0.51904  1.0000
  H   H386      1.0  0.09097  0.28475  0.51946  1.0000
  H   H387      1.0  0.07976  0.30879  0.54510  1.0000
  H   H388      1.0  0.09171  0.33163  0.56568  1.0000
  C   C402      1.0  0.10072  0.28972  0.37052  1.0000
  H   H389      1.0  0.10512  0.29548  0.42598  1.0000
  C   C403      1.0  0.92056  0.69763  0.35377  1.0000
  C   C404      1.0  0.92596  0.68063  0.42804  1.0000
  C   C405      1.0  0.93241  0.64751  0.41509  1.0000
  C   C406      1.0  0.93704  0.62646  0.49409  1.0000
  H   H390      1.0  0.93497  0.63736  0.56039  1.0000
  H   H391      1.0  0.94533  0.62794  0.48953  1.0000
  H   H392      1.0  0.93467  0.59618  0.49359  1.0000
  C   C407      1.0  0.92548  0.69943  0.51953  1.0000
  H   H393      1.0  0.92198  0.72802  0.52000  1.0000
  H   H394      1.0  0.93317  0.70383  0.54575  1.0000
  H   H395      1.0  0.92119  0.68112  0.56602  1.0000
  C   C408      1.0  0.91226  0.72328  0.37092  1.0000
  H   H396      1.0  0.90784  0.71734  0.42621  1.0000
  C   C409      1.0  0.93600  0.37694  0.35273  1.0000
  C   C410      1.0  0.93784  0.33680  0.37224  1.0000
  C   C411      1.0  0.93024  0.30774  0.35543  1.0000
  C   C412      1.0  0.94719  0.32595  0.42536  1.0000
  H   H397      1.0  0.94909  0.34817  0.47502  1.0000
  H   H398      1.0  0.95364  0.32203  0.37968  1.0000
  H   H399      1.0  0.94621  0.29974  0.46535  1.0000
  C   C413      1.0  0.93313  0.26574  0.35473  1.0000
  H   H400      1.0  0.93021  0.25178  0.29388  1.0000
  H   H401      1.0  0.93003  0.25134  0.41433  1.0000
  H   H402      1.0  0.94131  0.26062  0.35272  1.0000
  C   C414      1.0  0.94431  0.40426  0.35498  1.0000
  H   H403      1.0  0.95152  0.39412  0.36491  1.0000
  C   C415      1.0  0.07693  0.63592  0.35190  1.0000
  C   C416      1.0  0.07509  0.67606  0.37134  1.0000
  C   C417      1.0  0.08269  0.70514  0.35455  1.0000
  C   C418      1.0  0.06573  0.68691  0.42437  1.0000
  H   H404      1.0  0.06382  0.66468  0.47394  1.0000
  H   H405      1.0  0.05930  0.69089  0.37862  1.0000
  H   H406      1.0  0.06671  0.71310  0.46446  1.0000
  C   C419      1.0  0.07980  0.74714  0.35390  1.0000
  H   H407      1.0  0.08271  0.76110  0.29307  1.0000
  H   H408      1.0  0.08289  0.76153  0.41352  1.0000
  H   H409      1.0  0.07161  0.75226  0.35188  1.0000
  C   C420      1.0  0.06863  0.60860  0.35405  1.0000
  H   H410      1.0  0.06141  0.61875  0.36378  1.0000
  C   C421      1.0  0.59245  0.81554  0.35326  1.0000
  C   C422      1.0  0.58703  0.83240  0.42754  1.0000
  C   C423      1.0  0.58054  0.86544  0.41462  1.0000
  C   C424      1.0  0.57588  0.88636  0.49363  1.0000
  H   H411      1.0  0.57793  0.87538  0.55992  1.0000
  H   H412      1.0  0.56759  0.88483  0.48880  1.0000
  H   H413      1.0  0.57823  0.91665  0.49340  1.0000
  C   C425      1.0  0.58753  0.81358  0.51900  1.0000
  H   H414      1.0  0.59108  0.78507  0.51942  1.0000
  H   H415      1.0  0.57985  0.80898  0.54515  1.0000
  H   H416      1.0  0.59179  0.83197  0.56555  1.0000
  C   C426      1.0  0.60079  0.79005  0.37028  1.0000
  H   H417      1.0  0.60520  0.79583  0.42566  1.0000
  C   C427      1.0  0.42050  0.19738  0.35367  1.0000
  C   C428      1.0  0.42589  0.18041  0.42799  1.0000
  C   C429      1.0  0.43236  0.14733  0.41509  1.0000
  C   C430      1.0  0.43699  0.12631  0.49412  1.0000
  H   H418      1.0  0.43491  0.13720  0.56041  1.0000
  H   H419      1.0  0.44528  0.12782  0.48960  1.0000
  H   H420      1.0  0.43463  0.09602  0.49363  1.0000
  C   C431      1.0  0.42539  0.19919  0.51949  1.0000
  H   H421      1.0  0.42187  0.22775  0.51996  1.0000
  H   H422      1.0  0.43307  0.20366  0.54579  1.0000
  H   H423      1.0  0.42111  0.18084  0.56594  1.0000
  C   C432      1.0  0.41219  0.22300  0.37071  1.0000
  H   H424      1.0  0.40776  0.21704  0.42591  1.0000
  C   C433      1.0  0.43603  0.87680  0.35283  1.0000
  C   C434      1.0  0.43788  0.83668  0.37238  1.0000
  C   C435      1.0  0.43029  0.80758  0.35557  1.0000
  C   C436      1.0  0.44723  0.82587  0.42553  1.0000
  H   H425      1.0  0.44912  0.84810  0.47518  1.0000
  H   H426      1.0  0.45368  0.82196  0.37987  1.0000
  H   H427      1.0  0.44626  0.79966  0.46553  1.0000
  C   C437      1.0  0.43319  0.76560  0.35489  1.0000
  H   H428      1.0  0.43028  0.75162  0.29406  1.0000
  H   H429      1.0  0.43010  0.75118  0.41450  1.0000
  H   H430      1.0  0.44137  0.76050  0.35290  1.0000
  C   C438      1.0  0.44433  0.90415  0.35508  1.0000
  H   H431      1.0  0.45154  0.89404  0.36502  1.0000
  C   C439      1.0  0.57689  0.13607  0.35200  1.0000
  C   C440      1.0  0.57504  0.17620  0.37149  1.0000
  C   C441      1.0  0.58263  0.20530  0.35470  1.0000
  C   C442      1.0  0.56568  0.18701  0.42456  1.0000
  H   H432      1.0  0.56378  0.16477  0.47412  1.0000
  H   H433      1.0  0.55924  0.19097  0.37883  1.0000
  H   H434      1.0  0.56665  0.21320  0.46466  1.0000
  C   C443      1.0  0.57973  0.24729  0.35408  1.0000
  H   H435      1.0  0.58264  0.26128  0.29327  1.0000
  H   H436      1.0  0.58282  0.26169  0.41372  1.0000
  H   H437      1.0  0.57155  0.25239  0.35207  1.0000
  C   C444      1.0  0.56859  0.10872  0.35415  1.0000
  H   H438      1.0  0.56138  0.11885  0.36391  1.0000
  C   C445      1.0  0.11422  0.04829  0.34844  1.0000
  C   C446      1.0  0.11230  0.02179  0.42093  1.0000
  C   C447      1.0  0.11235  0.98074  0.40582  1.0000
  C   C448      1.0  0.11174  0.95262  0.48324  1.0000
  H   H439      1.0  0.11142  0.96544  0.55016  1.0000
  H   H440      1.0  0.11846  0.93397  0.48361  1.0000
  H   H441      1.0  0.10492  0.93482  0.47587  1.0000
  C   C449      1.0  0.10950  0.03716  0.51262  1.0000
  H   H442      1.0  0.10786  0.06806  0.51419  1.0000
  H   H443      1.0  0.11568  0.03163  0.56025  1.0000
  H   H444      1.0  0.10255  0.02318  0.53657  1.0000
  C   C450      1.0  0.11698  0.08728  0.36833  1.0000
  H   H445      1.0  0.12130  0.09176  0.42493  1.0000
  C   C451      1.0  0.89870  0.96460  0.34901  1.0000
  C   C452      1.0  0.90061  0.99111  0.42153  1.0000
  C   C453      1.0  0.90056  0.03216  0.40649  1.0000
  C   C454      1.0  0.90117  0.06026  0.48394  1.0000
  H   H446      1.0  0.90148  0.04743  0.55085  1.0000
  H   H447      1.0  0.89445  0.07892  0.48427  1.0000
  H   H448      1.0  0.90799  0.07805  0.47666  1.0000
  C   C455      1.0  0.90344  0.97572  0.51317  1.0000
  H   H449      1.0  0.90509  0.94483  0.51468  1.0000
  H   H450      1.0  0.89726  0.98119  0.56086  1.0000
  H   H451      1.0  0.91038  0.98975  0.53711  1.0000
  C   C456      1.0  0.89595  0.92561  0.36892  1.0000
  H   H452      1.0  0.89164  0.92111  0.42558  1.0000
  C   C457      1.0  0.61419  0.54852  0.34835  1.0000
  C   C458      1.0  0.61230  0.52204  0.42095  1.0000
  C   C459      1.0  0.61233  0.48098  0.40594  1.0000
  C   C460      1.0  0.61174  0.45290  0.48342  1.0000
  H   H453      1.0  0.61144  0.46573  0.55033  1.0000
  H   H454      1.0  0.61845  0.43421  0.48365  1.0000
  H   H455      1.0  0.60491  0.43514  0.47626  1.0000
  C   C461      1.0  0.60952  0.53745  0.51268  1.0000
  H   H456      1.0  0.60788  0.56835  0.51426  1.0000
  H   H457      1.0  0.61571  0.53191  0.56019  1.0000
  H   H458      1.0  0.60257  0.52349  0.53681  1.0000
  C   C462      1.0  0.61694  0.58753  0.36815  1.0000
  H   H459      1.0  0.62132  0.59190  0.42451  1.0000
  C   C463      1.0  0.39872  0.46441  0.34899  1.0000
  C   C464      1.0  0.40064  0.49087  0.42157  1.0000
  C   C465      1.0  0.40061  0.53193  0.40655  1.0000
  C   C466      1.0  0.40121  0.56001  0.48402  1.0000
  H   H460      1.0  0.40152  0.54717  0.55093  1.0000
  H   H461      1.0  0.39451  0.57870  0.48435  1.0000
  H   H462      1.0  0.40804  0.57778  0.47678  1.0000
  C   C467      1.0  0.40343  0.47545  0.51322  1.0000
  H   H463      1.0  0.40508  0.44455  0.51473  1.0000
  H   H464      1.0  0.39726  0.48097  0.56085  1.0000
  H   H465      1.0  0.41039  0.48941  0.53724  1.0000
  C   C468      1.0  0.39597  0.42541  0.36877  1.0000
  H   H466      1.0  0.39164  0.42088  0.42536  1.0000
  C   C469      1.0  0.99559  0.51263  0.36710  1.0000
  C   C470      1.0  0.00121  0.51364  0.44981  1.0000
  C   C471      1.0  0.01205  0.50740  0.44983  1.0000
  C   C472      1.0  0.99583  0.52079  0.53803  1.0000
  H   H467      1.0  0.98759  0.52375  0.53306  1.0000
  H   H468      1.0  0.99866  0.54741  0.56864  1.0000
  H   H469      1.0  0.99718  0.49674  0.58417  1.0000
  C   C473      1.0  0.01773  0.50853  0.53814  1.0000
  H   H470      1.0  0.02595  0.50492  0.53275  1.0000
  H   H471      1.0  0.01500  0.48551  0.58235  1.0000
  H   H472      1.0  0.01654  0.53637  0.57116  1.0000
  C   C474      1.0  0.98524  0.52417  0.36489  1.0000
  H   H473      1.0  0.98396  0.55234  0.35851  1.0000
  C   C475      1.0  0.49558  0.01264  0.36718  1.0000
  C   C476      1.0  0.50120  0.01366  0.44989  1.0000
  C   C477      1.0  0.51204  0.00743  0.44991  1.0000
  C   C478      1.0  0.49582  0.02083  0.53811  1.0000
  H   H474      1.0  0.48758  0.02379  0.53312  1.0000
  H   H475      1.0  0.49865  0.04745  0.56869  1.0000
  H   H476      1.0  0.49717  0.99679  0.58426  1.0000
  C   C479      1.0  0.51772  0.00856  0.53823  1.0000
  H   H477      1.0  0.52594  0.00494  0.53285  1.0000
  H   H478      1.0  0.51499  0.98555  0.58245  1.0000
  H   H479      1.0  0.51653  0.03640  0.57124  1.0000
  C   C480      1.0  0.48523  0.02416  0.36496  1.0000
  H   H480      1.0  0.48395  0.05233  0.35852  1.0000
