data_image0
_chemical_formula_structural       C2H2C3H2CHC2H2C3H2CHC2H2C3H2CHC2H2C3H2CHC7H3NH2CHC7H3NH2CHC7H3NH2CHC7H3NH2CHC7H3NH2CHC7H3NH2CHC7H3NH2CHC7H3NH2CHC2H2C3H2CHC2H2C3H2CHC2H2C3H2CHC2H2C3H2CHC7H3NH2CHC7H3NH2CHC7H3NH2CHC7H3NH2CHC2H2C3H2CHC2H2C3H2CHC2H2C3H2CHC2H2C3H2CHC7H3NH2CHC7H3NH2CHC2H2C3H2CHC2H2C3H2CHC2H2C3H2CHC2H2C3H2CHC7H3NH2CHC7H3NH2CHC7H3NH2CHC7H3NH2CHC7H3NH2CHC7H3NH2CHC7H3NH2CHC7H3NH2CHC2H2C3H2CHC2H2C3H2CHC2H2C3H2CHC2H2C3H2CHC6H3N3C6H3N3C6H3N3C6H3N3C6H3N3C6H3N3C6H3N3C6H3N3C6H3N3C6H3N3C6H3N3C6H3N3C6H3N3C6H3N3C6H3N3C6H3N3C6H3N3C6H3N3C6H3N3C6H3N3C6H3N3C6H3N3C6H3N3C6H3N3C6H3N3C6H3N3C6H3N3C6H3N3C7H3NH2CHC7H3NH2CHC7H3NH2CHC7H3NH2CHC2H2C3H2CHC2H2C3H2CHC2H2C3H2CHC2H2C3H2CHC2H2C3H2CHC2H2C3H2CHC2H2C3H2CHC2H2C3H2CHC7H3NH2CHC7H3NH2CHC7H3NH2CHC7H3NH2CHC2H2C3H2CHC2H2C3H2CHC2H2C3H2CHC2H2C3H2CHC7H3NH2CHC7H3NH2CHC7H3NH2CHC7H3NH2CHC2H2C3H2CHC2H2C3H2CHC7H3NH2CHC7H3NH2CHC7H3NH2CHC7H3NH2CHC2H2C3H2CHC2H2C3H2CHC2H2C3H2CHC2H2C3H2CHC2H2C3H2CHC2H2C3H2CHC2H2C3H2CHC2H2C3H2CHC7H3NH2CHC7H3NH2CHC7H3NH2CHC7H3NH2CH
_chemical_formula_sum              "C756 H546 N126"
_cell_length_a       103.719
_cell_length_b       103.719
_cell_length_c       14.9754
_cell_angle_alpha    90
_cell_angle_beta     90
_cell_angle_gamma    90

_space_group_name_H-M_alt    "P 1"
_space_group_IT_number       1

loop_
  _space_group_symop_operation_xyz
  'x, y, z'

loop_
  _atom_site_type_symbol
  _atom_site_label
  _atom_site_symmetry_multiplicity
  _atom_site_fract_x
  _atom_site_fract_y
  _atom_site_fract_z
  _atom_site_occupancy
  C   C1        1.0  0.15128  0.14769  0.28748  1.0000
  C   C2        1.0  0.16084  0.15721  0.29513  1.0000
  H   H1        1.0  0.14783  0.14550  0.22520  1.0000
  H   H2        1.0  0.16420  0.16152  0.23816  1.0000
  C   C3        1.0  0.11945  0.11064  0.32862  1.0000
  C   C4        1.0  0.13224  0.10955  0.29628  1.0000
  C   C5        1.0  0.14114  0.11965  0.30694  1.0000
  H   H3        1.0  0.13529  0.10129  0.26519  1.0000
  H   H4        1.0  0.15036  0.11845  0.28398  1.0000
  C   C6        1.0  0.11100  0.10032  0.31826  1.0000
  H   H5        1.0  0.11408  0.09247  0.28648  1.0000
  C   C7        1.0  0.85034  0.85400  0.28712  1.0000
  C   C8        1.0  0.84072  0.84454  0.29481  1.0000
  H   H6        1.0  0.85379  0.85619  0.22482  1.0000
  H   H7        1.0  0.83734  0.84026  0.23784  1.0000
  C   C9        1.0  0.88234  0.89092  0.32805  1.0000
  C   C10       1.0  0.86956  0.89205  0.29572  1.0000
  C   C11       1.0  0.86062  0.88198  0.30644  1.0000
  H   H8        1.0  0.86654  0.90031  0.26457  1.0000
  H   H9        1.0  0.85140  0.88321  0.28348  1.0000
  C   C12       1.0  0.89083  0.90120  0.31765  1.0000
  H   H10       1.0  0.88779  0.90904  0.28551  1.0000
  C   C13       1.0  0.85407  0.15132  0.28753  1.0000
  C   C14       1.0  0.84457  0.16090  0.29517  1.0000
  H   H11       1.0  0.85628  0.14788  0.22524  1.0000
  H   H12       1.0  0.84028  0.16427  0.23818  1.0000
  C   C15       1.0  0.89103  0.11940  0.32854  1.0000
  C   C16       1.0  0.89216  0.13219  0.29632  1.0000
  C   C17       1.0  0.88207  0.14111  0.30708  1.0000
  H   H13       1.0  0.90041  0.13522  0.26518  1.0000
  H   H14       1.0  0.88329  0.15033  0.28414  1.0000
  C   C18       1.0  0.90132  0.11092  0.31803  1.0000
  H   H15       1.0  0.90917  0.11398  0.28610  1.0000
  C   C19       1.0  0.14772  0.85030  0.28733  1.0000
  C   C20       1.0  0.15720  0.84070  0.29499  1.0000
  H   H16       1.0  0.14554  0.85375  0.22504  1.0000
  H   H17       1.0  0.16151  0.83734  0.23803  1.0000
  C   C21       1.0  0.11072  0.88221  0.32845  1.0000
  C   C22       1.0  0.10962  0.86943  0.29607  1.0000
  C   C23       1.0  0.11971  0.86052  0.30670  1.0000
  H   H18       1.0  0.10136  0.86639  0.26493  1.0000
  H   H19       1.0  0.11850  0.85129  0.28374  1.0000
  C   C24       1.0  0.10042  0.89068  0.31809  1.0000
  H   H20       1.0  0.09258  0.88762  0.28613  1.0000
  C   C25       1.0  0.08978  0.96832  0.27886  1.0000
  C   C26       1.0  0.09187  0.97688  0.20683  1.0000
  C   C27       1.0  0.09315  0.99034  0.21978  1.0000
  C   C28       1.0  0.09210  0.99534  0.30814  1.0000
  C   C29       1.0  0.09201  0.00876  0.32625  1.0000
  C   C30       1.0  0.08186  0.01655  0.29403  1.0000
  C   C31       1.0  0.08188  0.02991  0.30935  1.0000
  H   H21       1.0  0.07446  0.01257  0.25814  1.0000
  H   H22       1.0  0.07445  0.03523  0.28351  1.0000
  H   H23       1.0  0.09239  0.97326  0.14323  1.0000
  N   N1        1.0  0.09542  0.99792  0.14719  1.0000
  H   H24       1.0  0.09624  0.99425  0.08762  1.0000
  H   H25       1.0  0.09697  0.00712  0.15270  1.0000
  C   C32       1.0  0.08744  0.95536  0.26304  1.0000
  H   H26       1.0  0.08521  0.95258  0.20124  1.0000
  C   C33       1.0  0.91175  0.03321  0.27920  1.0000
  C   C34       1.0  0.90976  0.02463  0.20715  1.0000
  C   C35       1.0  0.90852  0.01116  0.22019  1.0000
  C   C36       1.0  0.90950  0.00619  0.30865  1.0000
  C   C37       1.0  0.90962  0.99277  0.32692  1.0000
  C   C38       1.0  0.91981  0.98501  0.29494  1.0000
  C   C39       1.0  0.91982  0.97165  0.31043  1.0000
  H   H27       1.0  0.92720  0.98900  0.25902  1.0000
  H   H28       1.0  0.92728  0.96635  0.28473  1.0000
  H   H29       1.0  0.90928  0.02824  0.14351  1.0000
  N   N2        1.0  0.90633  0.00356  0.14759  1.0000
  H   H30       1.0  0.90551  0.00723  0.08800  1.0000
  H   H31       1.0  0.90476  0.99436  0.15317  1.0000
  C   C40       1.0  0.91399  0.04618  0.26330  1.0000
  H   H32       1.0  0.91655  0.04891  0.20198  1.0000
  C   C41       1.0  0.03329  0.08982  0.27906  1.0000
  C   C42       1.0  0.02473  0.09179  0.20687  1.0000
  C   C43       1.0  0.01126  0.09302  0.21970  1.0000
  C   C44       1.0  0.00626  0.09205  0.30810  1.0000
  C   C45       1.0  0.99284  0.09195  0.32619  1.0000
  C   C46       1.0  0.98508  0.08177  0.29434  1.0000
  C   C47       1.0  0.97171  0.08177  0.30967  1.0000
  H   H33       1.0  0.98907  0.07435  0.25865  1.0000
  H   H34       1.0  0.96641  0.07430  0.28411  1.0000
  H   H35       1.0  0.02836  0.09226  0.14327  1.0000
  N   N3        1.0  0.00368  0.09518  0.14696  1.0000
  H   H36       1.0  0.00737  0.09602  0.08744  1.0000
  H   H37       1.0  0.99449  0.09677  0.15245  1.0000
  C   C48       1.0  0.04627  0.08760  0.26335  1.0000
  H   H38       1.0  0.04902  0.08503  0.20210  1.0000
  C   C49       1.0  0.96841  0.91188  0.27821  1.0000
  C   C50       1.0  0.97698  0.90961  0.20651  1.0000
  C   C51       1.0  0.99044  0.90830  0.21980  1.0000
  C   C52       1.0  0.99541  0.90949  0.30814  1.0000
  C   C53       1.0  0.00882  0.90958  0.32641  1.0000
  C   C54       1.0  0.01663  0.91967  0.29363  1.0000
  C   C55       1.0  0.02999  0.91965  0.30899  1.0000
  H   H39       1.0  0.01267  0.92704  0.25723  1.0000
  H   H40       1.0  0.03532  0.92704  0.28274  1.0000
  H   H41       1.0  0.97338  0.90899  0.14291  1.0000
  N   N4        1.0  0.99803  0.90588  0.14753  1.0000
  H   H42       1.0  0.99437  0.90497  0.08797  1.0000
  H   H43       1.0  0.00723  0.90432  0.15331  1.0000
  C   C56       1.0  0.95546  0.91430  0.26206  1.0000
  H   H44       1.0  0.95276  0.91625  0.19969  1.0000
  C   C57       1.0  0.16318  0.30852  0.29144  1.0000
  C   C58       1.0  0.16483  0.30051  0.21595  1.0000
  C   C59       1.0  0.16729  0.28712  0.22401  1.0000
  C   C60       1.0  0.16845  0.28168  0.31112  1.0000
  C   C61       1.0  0.17171  0.26853  0.32593  1.0000
  C   C62       1.0  0.18371  0.26354  0.29766  1.0000
  C   C63       1.0  0.18686  0.25049  0.31196  1.0000
  H   H45       1.0  0.19025  0.26936  0.26606  1.0000
  H   H46       1.0  0.19561  0.24722  0.28998  1.0000
  H   H47       1.0  0.16422  0.30451  0.15348  1.0000
  N   N5        1.0  0.16825  0.27998  0.14796  1.0000
  H   H48       1.0  0.16721  0.28390  0.08928  1.0000
  H   H49       1.0  0.16924  0.27067  0.14950  1.0000
  C   C64       1.0  0.16193  0.32172  0.28058  1.0000
  H   H50       1.0  0.16705  0.32594  0.23239  1.0000
  C   C65       1.0  0.83814  0.69332  0.29156  1.0000
  C   C66       1.0  0.83654  0.70133  0.21603  1.0000
  C   C67       1.0  0.83410  0.71473  0.22405  1.0000
  C   C68       1.0  0.83291  0.72016  0.31114  1.0000
  C   C69       1.0  0.82967  0.73332  0.32588  1.0000
  C   C70       1.0  0.81767  0.73832  0.29741  1.0000
  C   C71       1.0  0.81453  0.75137  0.31168  1.0000
  H   H51       1.0  0.81115  0.73250  0.26566  1.0000
  H   H52       1.0  0.80579  0.75465  0.28955  1.0000
  H   H53       1.0  0.83716  0.69733  0.15357  1.0000
  N   N6        1.0  0.83317  0.72187  0.14798  1.0000
  H   H54       1.0  0.83425  0.71795  0.08935  1.0000
  H   H55       1.0  0.83223  0.73118  0.14952  1.0000
  C   C72       1.0  0.83939  0.68012  0.28071  1.0000
  H   H56       1.0  0.83428  0.67590  0.23249  1.0000
  C   C73       1.0  0.69324  0.16345  0.29146  1.0000
  C   C74       1.0  0.70125  0.16506  0.21591  1.0000
  C   C75       1.0  0.71465  0.16748  0.22393  1.0000
  C   C76       1.0  0.72009  0.16864  0.31102  1.0000
  C   C77       1.0  0.73325  0.17185  0.32575  1.0000
  C   C78       1.0  0.73827  0.18385  0.29740  1.0000
  C   C79       1.0  0.75132  0.18697  0.31167  1.0000
  H   H57       1.0  0.73246  0.19039  0.26574  1.0000
  H   H58       1.0  0.75461  0.19571  0.28963  1.0000
  H   H59       1.0  0.69724  0.16445  0.15346  1.0000
  N   N7        1.0  0.72179  0.16840  0.14785  1.0000
  H   H60       1.0  0.71787  0.16730  0.08923  1.0000
  H   H61       1.0  0.73110  0.16929  0.14943  1.0000
  C   C80       1.0  0.68004  0.16222  0.28063  1.0000
  H   H62       1.0  0.67582  0.16733  0.23243  1.0000
  C   C81       1.0  0.30845  0.83840  0.29147  1.0000
  C   C82       1.0  0.30044  0.83676  0.21597  1.0000
  C   C83       1.0  0.28705  0.83427  0.22404  1.0000
  C   C84       1.0  0.28162  0.83308  0.31114  1.0000
  C   C85       1.0  0.26847  0.82981  0.32592  1.0000
  C   C86       1.0  0.26348  0.81781  0.29746  1.0000
  C   C87       1.0  0.25044  0.81464  0.31170  1.0000
  H   H63       1.0  0.26931  0.81129  0.26573  1.0000
  H   H64       1.0  0.24717  0.80590  0.28957  1.0000
  H   H65       1.0  0.30444  0.83740  0.15350  1.0000
  N   N8        1.0  0.27991  0.83333  0.14798  1.0000
  H   H66       1.0  0.28383  0.83438  0.08931  1.0000
  H   H67       1.0  0.27061  0.83232  0.14952  1.0000
  C   C88       1.0  0.32165  0.83969  0.28057  1.0000
  H   H68       1.0  0.32588  0.83457  0.23237  1.0000
  C   C89       1.0  0.83483  0.28859  0.28111  1.0000
  C   C90       1.0  0.83738  0.30181  0.29107  1.0000
  H   H69       1.0  0.83391  0.28495  0.21780  1.0000
  H   H70       1.0  0.83816  0.30739  0.23490  1.0000
  C   C91       1.0  0.82315  0.24103  0.31041  1.0000
  C   C92       1.0  0.83512  0.24613  0.28153  1.0000
  C   C93       1.0  0.83835  0.25912  0.29640  1.0000
  H   H71       1.0  0.84174  0.24037  0.25013  1.0000
  H   H72       1.0  0.84716  0.26242  0.27558  1.0000
  C   C94       1.0  0.82051  0.22801  0.29711  1.0000
  H   H73       1.0  0.82646  0.22295  0.25834  1.0000
  C   C95       1.0  0.16664  0.71297  0.28104  1.0000
  C   C96       1.0  0.16403  0.69976  0.29101  1.0000
  H   H74       1.0  0.16756  0.71660  0.21772  1.0000
  H   H75       1.0  0.16320  0.69419  0.23485  1.0000
  C   C97       1.0  0.17854  0.76050  0.31052  1.0000
  C   C98       1.0  0.16656  0.75543  0.28146  1.0000
  C   C99       1.0  0.16329  0.74245  0.29621  1.0000
  H   H76       1.0  0.15996  0.76121  0.24996  1.0000
  H   H77       1.0  0.15448  0.73918  0.27527  1.0000
  C   C100      1.0  0.18121  0.77352  0.29728  1.0000
  H   H78       1.0  0.17527  0.77860  0.25854  1.0000
  C   C101      1.0  0.28852  0.16689  0.28106  1.0000
  C   C102      1.0  0.30174  0.16432  0.29100  1.0000
  H   H79       1.0  0.28489  0.16780  0.21776  1.0000
  H   H80       1.0  0.30732  0.16351  0.23482  1.0000
  C   C103      1.0  0.24098  0.17864  0.31051  1.0000
  C   C104      1.0  0.24607  0.16667  0.28143  1.0000
  C   C105      1.0  0.25906  0.16343  0.29626  1.0000
  H   H81       1.0  0.24031  0.16007  0.24986  1.0000
  H   H82       1.0  0.26235  0.15463  0.27524  1.0000
  C   C106      1.0  0.22796  0.18129  0.29721  1.0000
  H   H83       1.0  0.22289  0.17535  0.25843  1.0000
  C   C107      1.0  0.71291  0.83505  0.28115  1.0000
  C   C108      1.0  0.69969  0.83764  0.29114  1.0000
  H   H84       1.0  0.71654  0.83415  0.21783  1.0000
  H   H85       1.0  0.69412  0.83847  0.23498  1.0000
  C   C109      1.0  0.76046  0.82327  0.31064  1.0000
  C   C110      1.0  0.75538  0.83525  0.28171  1.0000
  C   C111      1.0  0.74238  0.83848  0.29644  1.0000
  H   H86       1.0  0.76114  0.84186  0.25032  1.0000
  H   H87       1.0  0.73910  0.84730  0.27562  1.0000
  C   C112      1.0  0.77348  0.82062  0.29741  1.0000
  H   H88       1.0  0.77855  0.82657  0.25871  1.0000
  C   C113      1.0  0.40000  0.04548  0.29256  1.0000
  C   C114      1.0  0.39835  0.05369  0.21794  1.0000
  C   C115      1.0  0.39323  0.06631  0.22589  1.0000
  C   C116      1.0  0.38947  0.07082  0.31200  1.0000
  C   C117      1.0  0.38526  0.08370  0.32732  1.0000
  C   C118      1.0  0.37337  0.08824  0.29356  1.0000
  C   C119      1.0  0.36972  0.10123  0.30477  1.0000
  H   H89       1.0  0.36739  0.08215  0.25918  1.0000
  H   H90       1.0  0.36113  0.10417  0.27796  1.0000
  H   H91       1.0  0.40141  0.05058  0.15648  1.0000
  N   N9        1.0  0.39267  0.07378  0.15115  1.0000
  H   H92       1.0  0.39551  0.07053  0.09337  1.0000
  H   H93       1.0  0.38978  0.08267  0.15296  1.0000
  C   C120      1.0  0.40669  0.03394  0.28278  1.0000
  H   H94       1.0  0.41330  0.03343  0.23449  1.0000
  C   C121      1.0  0.60153  0.95656  0.28981  1.0000
  C   C122      1.0  0.60312  0.94830  0.21542  1.0000
  C   C123      1.0  0.60820  0.93566  0.22369  1.0000
  C   C124      1.0  0.61196  0.93119  0.30988  1.0000
  C   C125      1.0  0.61616  0.91831  0.32551  1.0000
  C   C126      1.0  0.62804  0.91374  0.29178  1.0000
  C   C127      1.0  0.63170  0.90076  0.30337  1.0000
  H   H95       1.0  0.63401  0.91980  0.25707  1.0000
  H   H96       1.0  0.64028  0.89779  0.27653  1.0000
  H   H97       1.0  0.60007  0.95138  0.15391  1.0000
  N   N10       1.0  0.60873  0.92815  0.14916  1.0000
  H   H98       1.0  0.60588  0.93136  0.09134  1.0000
  H   H99       1.0  0.61157  0.91924  0.15123  1.0000
  C   C128      1.0  0.59484  0.96810  0.27985  1.0000
  H   H100      1.0  0.58814  0.96855  0.23219  1.0000
  C   C129      1.0  0.95617  0.40005  0.29255  1.0000
  C   C130      1.0  0.94796  0.39839  0.21792  1.0000
  C   C131      1.0  0.93533  0.39328  0.22589  1.0000
  C   C132      1.0  0.93082  0.38955  0.31204  1.0000
  C   C133      1.0  0.91794  0.38534  0.32736  1.0000
  C   C134      1.0  0.91341  0.37345  0.29360  1.0000
  C   C135      1.0  0.90041  0.36979  0.30477  1.0000
  H   H101      1.0  0.91949  0.36747  0.25915  1.0000
  H   H102      1.0  0.89747  0.36121  0.27796  1.0000
  H   H103      1.0  0.95108  0.40142  0.15642  1.0000
  N   N11       1.0  0.92787  0.39271  0.15114  1.0000
  H   H104      1.0  0.93111  0.39556  0.09338  1.0000
  H   H105      1.0  0.91896  0.38986  0.15302  1.0000
  C   C136      1.0  0.96771  0.40673  0.28270  1.0000
  H   H106      1.0  0.96823  0.41331  0.23429  1.0000
  C   C137      1.0  0.04509  0.60157  0.28984  1.0000
  C   C138      1.0  0.05335  0.60317  0.21545  1.0000
  C   C139      1.0  0.06599  0.60823  0.22373  1.0000
  C   C140      1.0  0.07046  0.61200  0.30993  1.0000
  C   C141      1.0  0.08334  0.61621  0.32556  1.0000
  C   C142      1.0  0.08790  0.62809  0.29177  1.0000
  C   C143      1.0  0.10089  0.63175  0.30335  1.0000
  H   H107      1.0  0.08184  0.63406  0.25708  1.0000
  H   H108      1.0  0.10385  0.64033  0.27656  1.0000
  H   H109      1.0  0.05027  0.60010  0.15394  1.0000
  N   N12       1.0  0.07351  0.60876  0.14922  1.0000
  H   H110      1.0  0.07029  0.60592  0.09137  1.0000
  H   H111      1.0  0.08241  0.61162  0.15128  1.0000
  C   C144      1.0  0.03354  0.59489  0.27986  1.0000
  H   H112      1.0  0.03308  0.58819  0.23223  1.0000
  C   C145      1.0  0.60985  0.06234  0.28362  1.0000
  C   C146      1.0  0.60474  0.04986  0.29290  1.0000
  H   H113      1.0  0.61225  0.06550  0.22095  1.0000
  H   H114      1.0  0.60337  0.04442  0.23661  1.0000
  C   C147      1.0  0.62289  0.10986  0.32018  1.0000
  C   C148      1.0  0.61107  0.10515  0.28575  1.0000
  C   C149      1.0  0.60742  0.09218  0.29691  1.0000
  H   H115      1.0  0.60483  0.11118  0.25308  1.0000
  H   H116      1.0  0.59866  0.08923  0.27280  1.0000
  C   C150      1.0  0.62592  0.12290  0.31039  1.0000
  H   H117      1.0  0.61952  0.12866  0.28107  1.0000
  C   C151      1.0  0.39181  0.93964  0.28425  1.0000
  C   C152      1.0  0.39687  0.95214  0.29359  1.0000
  H   H118      1.0  0.38940  0.93649  0.22158  1.0000
  H   H119      1.0  0.39820  0.95760  0.23735  1.0000
  C   C153      1.0  0.37882  0.89208  0.32048  1.0000
  C   C154      1.0  0.39061  0.89682  0.28569  1.0000
  C   C155      1.0  0.39426  0.90978  0.29690  1.0000
  H   H120      1.0  0.39682  0.89080  0.25261  1.0000
  H   H121      1.0  0.40300  0.91275  0.27247  1.0000
  C   C156      1.0  0.37578  0.87904  0.31063  1.0000
  H   H122      1.0  0.38220  0.87328  0.28139  1.0000
  C   C157      1.0  0.06200  0.39189  0.28421  1.0000
  C   C158      1.0  0.04949  0.39695  0.29357  1.0000
  H   H123      1.0  0.06515  0.38949  0.22154  1.0000
  H   H124      1.0  0.04403  0.39827  0.23736  1.0000
  C   C159      1.0  0.10955  0.37890  0.32044  1.0000
  C   C160      1.0  0.10482  0.39070  0.28569  1.0000
  C   C161      1.0  0.09185  0.39435  0.29693  1.0000
  H   H125      1.0  0.11083  0.39691  0.25260  1.0000
  H   H126      1.0  0.08889  0.40308  0.27247  1.0000
  C   C162      1.0  0.12260  0.37586  0.31056  1.0000
  H   H127      1.0  0.12835  0.38228  0.28130  1.0000
  C   C163      1.0  0.93929  0.60991  0.28359  1.0000
  C   C164      1.0  0.95177  0.60479  0.29285  1.0000
  H   H128      1.0  0.93613  0.61231  0.22093  1.0000
  H   H129      1.0  0.95722  0.60344  0.23659  1.0000
  C   C165      1.0  0.89177  0.62296  0.32013  1.0000
  C   C166      1.0  0.89648  0.61114  0.28565  1.0000
  C   C167      1.0  0.90944  0.60749  0.29677  1.0000
  H   H130      1.0  0.89044  0.60492  0.25286  1.0000
  H   H131      1.0  0.91239  0.59873  0.27261  1.0000
  C   C168      1.0  0.87872  0.62601  0.31030  1.0000
  H   H132      1.0  0.87297  0.61961  0.28090  1.0000
  C   C169      1.0  0.46651  0.99703  0.29582  1.0000
  C   C170      1.0  0.47468  0.99572  0.22077  1.0000
  C   C171      1.0  0.48830  0.99594  0.22843  1.0000
  C   C172      1.0  0.49388  0.99763  0.31468  1.0000
  C   C173      1.0  0.50739  0.99704  0.32973  1.0000
  C   C174      1.0  0.51574  0.00680  0.29823  1.0000
  C   C175      1.0  0.52917  0.00579  0.31069  1.0000
  H   H133      1.0  0.51211  0.01463  0.26505  1.0000
  H   H134      1.0  0.53491  0.01299  0.28603  1.0000
  H   H135      1.0  0.47062  0.99425  0.15915  1.0000
  N   N13       1.0  0.49546  0.99407  0.15329  1.0000
  H   H136      1.0  0.49139  0.99277  0.09535  1.0000
  H   H137      1.0  0.50480  0.99365  0.15489  1.0000
  C   C176      1.0  0.45328  0.99560  0.28609  1.0000
  H   H138      1.0  0.45001  0.98954  0.23966  1.0000
  C   C177      1.0  0.00460  0.46656  0.29584  1.0000
  C   C178      1.0  0.00591  0.47473  0.22077  1.0000
  C   C179      1.0  0.00569  0.48835  0.22844  1.0000
  C   C180      1.0  0.00401  0.49393  0.31468  1.0000
  C   C181      1.0  0.00460  0.50745  0.32972  1.0000
  C   C182      1.0  0.99484  0.51580  0.29819  1.0000
  C   C183      1.0  0.99585  0.52923  0.31064  1.0000
  H   H139      1.0  0.98702  0.51216  0.26494  1.0000
  H   H140      1.0  0.98865  0.53497  0.28593  1.0000
  H   H141      1.0  0.00737  0.47068  0.15915  1.0000
  N   N14       1.0  0.00756  0.49551  0.15328  1.0000
  H   H142      1.0  0.00888  0.49145  0.09536  1.0000
  H   H143      1.0  0.00800  0.50486  0.15491  1.0000
  C   C184      1.0  0.00603  0.45334  0.28609  1.0000
  H   H144      1.0  0.01208  0.45007  0.23964  1.0000
  C   C185      1.0  0.21101  0.38715  0.28304  1.0000
  C   C186      1.0  0.19917  0.38069  0.29164  1.0000
  H   H145      1.0  0.21449  0.38885  0.22011  1.0000
  H   H146      1.0  0.19444  0.37784  0.23490  1.0000
  C   C187      1.0  0.25546  0.40774  0.31814  1.0000
  C   C188      1.0  0.24406  0.41394  0.28852  1.0000
  C   C189      1.0  0.23185  0.40831  0.30160  1.0000
  H   H147      1.0  0.24449  0.42274  0.25757  1.0000
  H   H148      1.0  0.22383  0.41316  0.28017  1.0000
  C   C190      1.0  0.26734  0.41376  0.30580  1.0000
  H   H149      1.0  0.26765  0.42183  0.26986  1.0000
  C   C191      1.0  0.79036  0.61465  0.28340  1.0000
  C   C192      1.0  0.80219  0.62113  0.29202  1.0000
  H   H150      1.0  0.78687  0.61296  0.22047  1.0000
  H   H151      1.0  0.80689  0.62401  0.23530  1.0000
  C   C193      1.0  0.74595  0.59400  0.31837  1.0000
  C   C194      1.0  0.75735  0.58780  0.28873  1.0000
  C   C195      1.0  0.76955  0.59343  0.30183  1.0000
  H   H152      1.0  0.75692  0.57901  0.25774  1.0000
  H   H153      1.0  0.77758  0.58858  0.28043  1.0000
  C   C196      1.0  0.73407  0.58798  0.30599  1.0000
  H   H154      1.0  0.73376  0.57991  0.27006  1.0000
  C   C197      1.0  0.61457  0.21126  0.28343  1.0000
  C   C198      1.0  0.62105  0.19943  0.29206  1.0000
  H   H155      1.0  0.61288  0.21475  0.22050  1.0000
  H   H156      1.0  0.62394  0.19473  0.23533  1.0000
  C   C199      1.0  0.59390  0.25566  0.31829  1.0000
  C   C200      1.0  0.58771  0.24425  0.28876  1.0000
  C   C201      1.0  0.59334  0.23205  0.30193  1.0000
  H   H157      1.0  0.57891  0.24467  0.25784  1.0000
  H   H158      1.0  0.58849  0.22402  0.28060  1.0000
  C   C202      1.0  0.58788  0.26754  0.30584  1.0000
  H   H159      1.0  0.57981  0.26784  0.26986  1.0000
  C   C203      1.0  0.38708  0.79061  0.28300  1.0000
  C   C204      1.0  0.38063  0.80246  0.29160  1.0000
  H   H160      1.0  0.38877  0.78712  0.22007  1.0000
  H   H161      1.0  0.37777  0.80717  0.23487  1.0000
  C   C205      1.0  0.40764  0.74615  0.31812  1.0000
  C   C206      1.0  0.41386  0.75754  0.28845  1.0000
  C   C207      1.0  0.40824  0.76975  0.30149  1.0000
  H   H162      1.0  0.42265  0.75710  0.25750  1.0000
  H   H163      1.0  0.41310  0.77777  0.28007  1.0000
  C   C208      1.0  0.41366  0.73426  0.30582  1.0000
  H   H164      1.0  0.42173  0.73395  0.26994  1.0000
  C   C209      1.0  0.80690  0.37654  0.29367  1.0000
  C   C210      1.0  0.79974  0.38036  0.21782  1.0000
  C   C211      1.0  0.78795  0.38718  0.22521  1.0000
  C   C212      1.0  0.78303  0.38998  0.31202  1.0000
  C   C213      1.0  0.77082  0.39591  0.32616  1.0000
  C   C214      1.0  0.75932  0.38983  0.29785  1.0000
  C   C215      1.0  0.74725  0.39572  0.31162  1.0000
  H   H165      1.0  0.75966  0.38105  0.26660  1.0000
  H   H166      1.0  0.73918  0.39104  0.28941  1.0000
  H   H167      1.0  0.80317  0.37809  0.15556  1.0000
  N   N15       1.0  0.78189  0.39091  0.14876  1.0000
  H   H168      1.0  0.78559  0.38912  0.09031  1.0000
  H   H169      1.0  0.77421  0.39626  0.14985  1.0000
  C   C216      1.0  0.81770  0.36879  0.28343  1.0000
  H   H170      1.0  0.81753  0.36215  0.23529  1.0000
  C   C217      1.0  0.19443  0.62504  0.29415  1.0000
  C   C218      1.0  0.20160  0.62123  0.21832  1.0000
  C   C219      1.0  0.21342  0.61446  0.22572  1.0000
  C   C220      1.0  0.21835  0.61168  0.31253  1.0000
  C   C221      1.0  0.23059  0.60579  0.32667  1.0000
  C   C222      1.0  0.24207  0.61190  0.29831  1.0000
  C   C223      1.0  0.25415  0.60603  0.31198  1.0000
  H   H171      1.0  0.24171  0.62067  0.26706  1.0000
  H   H172      1.0  0.26221  0.61073  0.28971  1.0000
  H   H173      1.0  0.19816  0.62349  0.15605  1.0000
  N   N16       1.0  0.21948  0.61073  0.14927  1.0000
  H   H174      1.0  0.21581  0.61257  0.09078  1.0000
  H   H175      1.0  0.22723  0.60548  0.15029  1.0000
  C   C224      1.0  0.18361  0.63276  0.28388  1.0000
  H   H176      1.0  0.18377  0.63940  0.23573  1.0000
  C   C225      1.0  0.37650  0.19474  0.29368  1.0000
  C   C226      1.0  0.38033  0.20190  0.21785  1.0000
  C   C227      1.0  0.38715  0.21370  0.22526  1.0000
  C   C228      1.0  0.38993  0.21862  0.31207  1.0000
  C   C229      1.0  0.39584  0.23084  0.32623  1.0000
  C   C230      1.0  0.38975  0.24233  0.29793  1.0000
  C   C231      1.0  0.39563  0.25440  0.31171  1.0000
  H   H177      1.0  0.38098  0.24198  0.26667  1.0000
  H   H178      1.0  0.39094  0.26247  0.28949  1.0000
  H   H179      1.0  0.37808  0.19846  0.15557  1.0000
  N   N17       1.0  0.39090  0.21974  0.14882  1.0000
  H   H180      1.0  0.38906  0.21608  0.09033  1.0000
  H   H181      1.0  0.39618  0.22747  0.14987  1.0000
  C   C232      1.0  0.36874  0.18395  0.28344  1.0000
  H   H182      1.0  0.36211  0.18411  0.23526  1.0000
  C   C233      1.0  0.62498  0.80722  0.29418  1.0000
  C   C234      1.0  0.62120  0.80004  0.21834  1.0000
  C   C235      1.0  0.61441  0.78822  0.22573  1.0000
  C   C236      1.0  0.61161  0.78330  0.31253  1.0000
  C   C237      1.0  0.60571  0.77107  0.32668  1.0000
  C   C238      1.0  0.61182  0.75959  0.29839  1.0000
  C   C239      1.0  0.60594  0.74751  0.31206  1.0000
  H   H183      1.0  0.62060  0.75994  0.26718  1.0000
  H   H184      1.0  0.61064  0.73945  0.28984  1.0000
  H   H185      1.0  0.62347  0.80347  0.15608  1.0000
  N   N18       1.0  0.61071  0.78215  0.14927  1.0000
  H   H186      1.0  0.61254  0.78584  0.09081  1.0000
  H   H187      1.0  0.60541  0.77443  0.15028  1.0000
  C   C240      1.0  0.63272  0.81803  0.28394  1.0000
  H   H188      1.0  0.63937  0.81786  0.23587  1.0000
  C   C241      1.0  0.30614  0.46653  0.29631  1.0000
  C   C242      1.0  0.30699  0.47435  0.21923  1.0000
  C   C243      1.0  0.30918  0.48782  0.22445  1.0000
  C   C244      1.0  0.31022  0.49368  0.31032  1.0000
  C   C245      1.0  0.31132  0.50726  0.32201  1.0000
  C   C246      1.0  0.30142  0.51560  0.29234  1.0000
  C   C247      1.0  0.30258  0.52905  0.30195  1.0000
  H   H189      1.0  0.29333  0.51194  0.26260  1.0000
  H   H190      1.0  0.29527  0.53473  0.27823  1.0000
  H   H191      1.0  0.30601  0.47014  0.15764  1.0000
  N   N19       1.0  0.31038  0.49455  0.14680  1.0000
  H   H192      1.0  0.30990  0.49027  0.08903  1.0000
  H   H193      1.0  0.31269  0.50362  0.14625  1.0000
  C   C248      1.0  0.30293  0.45361  0.28788  1.0000
  H   H194      1.0  0.29646  0.45121  0.24159  1.0000
  C   C249      1.0  0.69529  0.53523  0.29616  1.0000
  C   C250      1.0  0.69443  0.52741  0.21910  1.0000
  C   C251      1.0  0.69226  0.51394  0.22437  1.0000
  C   C252      1.0  0.69122  0.50809  0.31026  1.0000
  C   C253      1.0  0.69013  0.49450  0.32201  1.0000
  C   C254      1.0  0.70004  0.48617  0.29259  1.0000
  C   C255      1.0  0.69888  0.47272  0.30228  1.0000
  H   H195      1.0  0.70815  0.48984  0.26301  1.0000
  H   H196      1.0  0.70621  0.46705  0.27878  1.0000
  H   H197      1.0  0.69541  0.53162  0.15750  1.0000
  N   N20       1.0  0.69106  0.50720  0.14675  1.0000
  H   H198      1.0  0.69161  0.51146  0.08893  1.0000
  H   H199      1.0  0.68885  0.49810  0.14617  1.0000
  C   C256      1.0  0.69848  0.54815  0.28772  1.0000
  H   H200      1.0  0.70494  0.55057  0.24140  1.0000
  C   C257      1.0  0.53512  0.30632  0.29614  1.0000
  C   C258      1.0  0.52730  0.30719  0.21909  1.0000
  C   C259      1.0  0.51383  0.30938  0.22433  1.0000
  C   C260      1.0  0.50797  0.31042  0.31022  1.0000
  C   C261      1.0  0.49439  0.31152  0.32196  1.0000
  C   C262      1.0  0.48605  0.30162  0.29249  1.0000
  C   C263      1.0  0.47260  0.30278  0.30216  1.0000
  H   H201      1.0  0.48971  0.29350  0.26290  1.0000
  H   H202      1.0  0.46693  0.29546  0.27860  1.0000
  H   H203      1.0  0.53150  0.30620  0.15749  1.0000
  N   N21       1.0  0.50709  0.31058  0.14671  1.0000
  H   H204      1.0  0.51136  0.31002  0.08890  1.0000
  H   H205      1.0  0.49800  0.31280  0.14612  1.0000
  C   C264      1.0  0.54803  0.30312  0.28772  1.0000
  H   H206      1.0  0.55044  0.29664  0.24145  1.0000
  C   C265      1.0  0.46642  0.69546  0.29636  1.0000
  C   C266      1.0  0.47423  0.69461  0.21929  1.0000
  C   C267      1.0  0.48770  0.69243  0.22451  1.0000
  C   C268      1.0  0.49357  0.69140  0.31038  1.0000
  C   C269      1.0  0.50716  0.69032  0.32209  1.0000
  C   C270      1.0  0.51548  0.70022  0.29247  1.0000
  C   C271      1.0  0.52893  0.69908  0.30209  1.0000
  H   H207      1.0  0.51181  0.70832  0.26275  1.0000
  H   H208      1.0  0.53460  0.70639  0.27839  1.0000
  H   H209      1.0  0.47003  0.69560  0.15770  1.0000
  N   N22       1.0  0.49444  0.69124  0.14687  1.0000
  H   H210      1.0  0.49016  0.69175  0.08909  1.0000
  H   H211      1.0  0.50353  0.68898  0.14628  1.0000
  C   C272      1.0  0.45350  0.69867  0.28794  1.0000
  H   H212      1.0  0.45109  0.70515  0.24167  1.0000
  C   C273      1.0  0.37376  0.35178  0.28456  1.0000
  C   C274      1.0  0.38288  0.34185  0.29496  1.0000
  H   H213      1.0  0.37225  0.35544  0.22188  1.0000
  H   H214      1.0  0.38758  0.33851  0.23948  1.0000
  C   C275      1.0  0.33551  0.38296  0.31389  1.0000
  C   C276      1.0  0.33533  0.37036  0.27721  1.0000
  C   C277      1.0  0.34563  0.36177  0.29054  1.0000
  H   H215      1.0  0.32753  0.36718  0.24148  1.0000
  H   H216      1.0  0.34498  0.35265  0.26471  1.0000
  C   C278      1.0  0.32484  0.39096  0.30167  1.0000
  H   H217      1.0  0.31799  0.38810  0.25944  1.0000
  C   C279      1.0  0.62771  0.65004  0.28442  1.0000
  C   C280      1.0  0.61863  0.66000  0.29480  1.0000
  H   H218      1.0  0.62921  0.64637  0.22176  1.0000
  H   H219      1.0  0.61393  0.66334  0.23933  1.0000
  C   C281      1.0  0.66592  0.61881  0.31367  1.0000
  C   C282      1.0  0.66613  0.63140  0.27706  1.0000
  C   C283      1.0  0.65583  0.64002  0.29035  1.0000
  H   H220      1.0  0.67393  0.63458  0.24139  1.0000
  H   H221      1.0  0.65651  0.64914  0.26465  1.0000
  C   C284      1.0  0.67658  0.61079  0.30147  1.0000
  H   H222      1.0  0.68343  0.61364  0.25920  1.0000
  C   C285      1.0  0.64987  0.37392  0.28463  1.0000
  C   C286      1.0  0.65981  0.38303  0.29505  1.0000
  H   H223      1.0  0.64621  0.37242  0.22196  1.0000
  H   H224      1.0  0.66316  0.38772  0.23956  1.0000
  C   C287      1.0  0.61868  0.33569  0.31374  1.0000
  C   C288      1.0  0.63128  0.33549  0.27717  1.0000
  C   C289      1.0  0.63989  0.34579  0.29056  1.0000
  H   H225      1.0  0.63447  0.32768  0.24158  1.0000
  H   H226      1.0  0.64901  0.34512  0.26489  1.0000
  C   C290      1.0  0.61067  0.32502  0.30150  1.0000
  H   H227      1.0  0.61353  0.31817  0.25922  1.0000
  C   C291      1.0  0.35163  0.62785  0.28444  1.0000
  C   C292      1.0  0.34169  0.61875  0.29479  1.0000
  H   H228      1.0  0.35529  0.62936  0.22177  1.0000
  H   H229      1.0  0.33833  0.61407  0.23926  1.0000
  C   C293      1.0  0.38283  0.66609  0.31382  1.0000
  C   C294      1.0  0.37024  0.66628  0.27715  1.0000
  C   C295      1.0  0.36164  0.65597  0.29043  1.0000
  H   H230      1.0  0.36706  0.67408  0.24147  1.0000
  H   H231      1.0  0.35252  0.65664  0.26467  1.0000
  C   C296      1.0  0.39084  0.67676  0.30167  1.0000
  H   H232      1.0  0.38796  0.68363  0.25954  1.0000
  C   C297      1.0  0.06693  0.08738  0.32615  1.0000
  C   C298      1.0  0.07721  0.09618  0.33502  1.0000
  C   C299      1.0  0.09003  0.09179  0.34251  1.0000
  C   C300      1.0  0.09242  0.07836  0.34629  1.0000
  C   C301      1.0  0.08220  0.06940  0.34051  1.0000
  C   C302      1.0  0.06953  0.07401  0.32914  1.0000
  H   H233      1.0  0.10168  0.07510  0.35254  1.0000
  H   H234      1.0  0.06207  0.06757  0.32396  1.0000
  H   H235      1.0  0.07537  0.10588  0.33264  1.0000
  N   N23       1.0  0.05504  0.09193  0.31701  1.0000
  N   N24       1.0  0.09929  0.10061  0.34656  1.0000
  N   N25       1.0  0.08379  0.05673  0.33950  1.0000
  C   C303      1.0  0.93485  0.91423  0.32510  1.0000
  C   C304      1.0  0.92459  0.90540  0.33424  1.0000
  C   C305      1.0  0.91176  0.90976  0.34239  1.0000
  C   C306      1.0  0.90934  0.92317  0.34677  1.0000
  C   C307      1.0  0.91954  0.93216  0.34080  1.0000
  C   C308      1.0  0.93220  0.92759  0.32870  1.0000
  H   H236      1.0  0.90009  0.92641  0.35345  1.0000
  H   H237      1.0  0.93963  0.93405  0.32329  1.0000
  H   H238      1.0  0.92645  0.89570  0.33122  1.0000
  N   N26       1.0  0.94673  0.90971  0.31499  1.0000
  N   N27       1.0  0.90251  0.90092  0.34645  1.0000
  N   N28       1.0  0.91792  0.94483  0.34002  1.0000
  C   C309      1.0  0.91422  0.06685  0.32593  1.0000
  C   C310      1.0  0.90543  0.07713  0.33486  1.0000
  C   C311      1.0  0.90983  0.08995  0.34237  1.0000
  C   C312      1.0  0.92326  0.09233  0.34615  1.0000
  C   C313      1.0  0.93221  0.08210  0.34031  1.0000
  C   C314      1.0  0.92759  0.06944  0.32889  1.0000
  H   H239      1.0  0.92653  0.10158  0.35242  1.0000
  H   H240      1.0  0.93402  0.06198  0.32368  1.0000
  H   H241      1.0  0.89572  0.07530  0.33250  1.0000
  N   N29       1.0  0.90965  0.05497  0.31681  1.0000
  N   N30       1.0  0.90102  0.09922  0.34649  1.0000
  N   N31       1.0  0.94488  0.08369  0.33928  1.0000
  C   C315      1.0  0.08740  0.93471  0.32593  1.0000
  C   C316      1.0  0.09622  0.92446  0.33496  1.0000
  C   C317      1.0  0.09186  0.91162  0.34271  1.0000
  C   C318      1.0  0.07844  0.90920  0.34682  1.0000
  C   C319      1.0  0.06946  0.91941  0.34096  1.0000
  C   C320      1.0  0.07404  0.93208  0.32925  1.0000
  H   H242      1.0  0.07519  0.89994  0.35325  1.0000
  H   H243      1.0  0.06758  0.93952  0.32394  1.0000
  H   H244      1.0  0.10592  0.92631  0.33215  1.0000
  N   N32       1.0  0.09193  0.94660  0.31625  1.0000
  N   N33       1.0  0.10070  0.90237  0.34672  1.0000
  N   N34       1.0  0.05679  0.91779  0.34003  1.0000
  C   C321      1.0  0.18665  0.18767  0.33636  1.0000
  C   C322      1.0  0.18325  0.20079  0.33150  1.0000
  C   C323      1.0  0.19281  0.21052  0.33175  1.0000
  C   C324      1.0  0.20594  0.20689  0.33155  1.0000
  C   C325      1.0  0.20957  0.19376  0.33270  1.0000
  C   C326      1.0  0.19982  0.18425  0.33666  1.0000
  H   H245      1.0  0.21293  0.21387  0.33045  1.0000
  H   H246      1.0  0.20231  0.17472  0.33958  1.0000
  H   H247      1.0  0.17370  0.20328  0.32915  1.0000
  N   N35       1.0  0.17733  0.17890  0.33698  1.0000
  N   N36       1.0  0.18981  0.22299  0.32803  1.0000
  N   N37       1.0  0.22204  0.19070  0.33557  1.0000
  C   C327      1.0  0.81480  0.81418  0.33621  1.0000
  C   C328      1.0  0.81817  0.80105  0.33126  1.0000
  C   C329      1.0  0.80859  0.79134  0.33158  1.0000
  C   C330      1.0  0.79547  0.79500  0.33155  1.0000
  C   C331      1.0  0.79187  0.80813  0.33278  1.0000
  C   C332      1.0  0.80163  0.81762  0.33664  1.0000
  H   H248      1.0  0.78847  0.78803  0.33049  1.0000
  H   H249      1.0  0.79916  0.82716  0.33960  1.0000
  H   H250      1.0  0.82772  0.79855  0.32881  1.0000
  N   N38       1.0  0.82414  0.82293  0.33671  1.0000
  N   N39       1.0  0.81159  0.77887  0.32787  1.0000
  N   N40       1.0  0.77940  0.81120  0.33566  1.0000
  C   C333      1.0  0.81412  0.18670  0.33618  1.0000
  C   C334      1.0  0.80100  0.18331  0.33130  1.0000
  C   C335      1.0  0.79127  0.19287  0.33154  1.0000
  C   C336      1.0  0.79491  0.20600  0.33137  1.0000
  C   C337      1.0  0.80804  0.20962  0.33254  1.0000
  C   C338      1.0  0.81755  0.19987  0.33651  1.0000
  H   H251      1.0  0.78794  0.21299  0.33026  1.0000
  H   H252      1.0  0.82708  0.20235  0.33946  1.0000
  H   H253      1.0  0.79850  0.17376  0.32893  1.0000
  N   N41       1.0  0.82288  0.17738  0.33682  1.0000
  N   N42       1.0  0.77880  0.18988  0.32781  1.0000
  N   N43       1.0  0.81110  0.22209  0.33542  1.0000
  C   C339      1.0  0.18762  0.81483  0.33636  1.0000
  C   C340      1.0  0.20074  0.81822  0.33139  1.0000
  C   C341      1.0  0.21047  0.80865  0.33168  1.0000
  C   C342      1.0  0.20682  0.79552  0.33162  1.0000
  C   C343      1.0  0.19369  0.79190  0.33286  1.0000
  C   C344      1.0  0.18419  0.80166  0.33676  1.0000
  H   H254      1.0  0.21379  0.78853  0.33052  1.0000
  H   H255      1.0  0.17465  0.79918  0.33973  1.0000
  H   H256      1.0  0.20323  0.82776  0.32895  1.0000
  N   N44       1.0  0.17885  0.82415  0.33688  1.0000
  N   N45       1.0  0.22294  0.81166  0.32793  1.0000
  N   N46       1.0  0.19062  0.77943  0.33570  1.0000
  C   C345      1.0  0.43239  0.00144  0.33303  1.0000
  C   C346      1.0  0.42540  0.01308  0.33464  1.0000
  C   C347      1.0  0.41175  0.01311  0.33343  1.0000
  C   C348      1.0  0.40512  0.00121  0.33556  1.0000
  C   C349      1.0  0.41192  0.98940  0.33741  1.0000
  C   C350      1.0  0.42556  0.98966  0.33467  1.0000
  H   H257      1.0  0.39524  0.00114  0.33608  1.0000
  H   H258      1.0  0.43058  0.98116  0.33463  1.0000
  H   H259      1.0  0.43030  0.02165  0.33540  1.0000
  N   N47       1.0  0.44519  0.00197  0.33405  1.0000
  N   N48       1.0  0.40516  0.02415  0.33472  1.0000
  N   N49       1.0  0.40549  0.97826  0.33690  1.0000
  C   C351      1.0  0.56913  0.00064  0.33379  1.0000
  C   C352      1.0  0.57620  0.98899  0.33180  1.0000
  C   C353      1.0  0.58984  0.98898  0.33065  1.0000
  C   C354      1.0  0.59643  0.00089  0.33401  1.0000
  C   C355      1.0  0.58958  0.01266  0.33628  1.0000
  C   C356      1.0  0.57593  0.01239  0.33395  1.0000
  H   H260      1.0  0.60630  0.00099  0.33436  1.0000
  H   H261      1.0  0.57089  0.02089  0.33321  1.0000
  H   H262      1.0  0.57137  0.98039  0.33024  1.0000
  N   N50       1.0  0.55630  0.00106  0.33130  1.0000
  N   N51       1.0  0.59644  0.97794  0.33128  1.0000
  N   N52       1.0  0.59600  0.02380  0.33564  1.0000
  C   C357      1.0  0.00019  0.43245  0.33305  1.0000
  C   C358      1.0  0.98856  0.42545  0.33467  1.0000
  C   C359      1.0  0.98853  0.41181  0.33346  1.0000
  C   C360      1.0  0.00042  0.40517  0.33556  1.0000
  C   C361      1.0  0.01223  0.41198  0.33740  1.0000
  C   C362      1.0  0.01197  0.42562  0.33467  1.0000
  H   H263      1.0  0.00050  0.39530  0.33608  1.0000
  H   H264      1.0  0.02047  0.43064  0.33463  1.0000
  H   H265      1.0  0.97998  0.43035  0.33543  1.0000
  N   N53       1.0  0.99966  0.44525  0.33407  1.0000
  N   N54       1.0  0.97749  0.40522  0.33477  1.0000
  N   N55       1.0  0.02337  0.40556  0.33686  1.0000
  C   C363      1.0  0.00100  0.56918  0.33381  1.0000
  C   C364      1.0  0.01265  0.57626  0.33184  1.0000
  C   C365      1.0  0.01266  0.58990  0.33068  1.0000
  C   C366      1.0  0.00074  0.59649  0.33402  1.0000
  C   C367      1.0  0.98897  0.58964  0.33626  1.0000
  C   C368      1.0  0.98924  0.57599  0.33395  1.0000
  H   H266      1.0  0.00065  0.60636  0.33435  1.0000
  H   H267      1.0  0.98075  0.57095  0.33321  1.0000
  H   H268      1.0  0.02124  0.57142  0.33029  1.0000
  N   N56       1.0  0.00058  0.55636  0.33134  1.0000
  N   N57       1.0  0.02370  0.59650  0.33131  1.0000
  N   N58       1.0  0.97784  0.59605  0.33561  1.0000
  C   C369      1.0  0.28986  0.41418  0.33657  1.0000
  C   C370      1.0  0.29257  0.42753  0.33586  1.0000
  C   C371      1.0  0.30539  0.43216  0.33596  1.0000
  C   C372      1.0  0.31562  0.42320  0.33987  1.0000
  C   C373      1.0  0.31320  0.40979  0.33963  1.0000
  C   C374      1.0  0.30026  0.40543  0.33978  1.0000
  H   H269      1.0  0.32494  0.42647  0.34115  1.0000
  H   H270      1.0  0.29839  0.39575  0.34269  1.0000
  H   H271      1.0  0.28512  0.43400  0.33729  1.0000
  N   N59       1.0  0.27792  0.40946  0.33962  1.0000
  N   N60       1.0  0.30801  0.44474  0.33674  1.0000
  N   N61       1.0  0.32319  0.40170  0.34344  1.0000
  C   C375      1.0  0.71155  0.58757  0.33670  1.0000
  C   C376      1.0  0.70884  0.57422  0.33585  1.0000
  C   C377      1.0  0.69601  0.56959  0.33594  1.0000
  C   C378      1.0  0.68579  0.57856  0.33984  1.0000
  C   C379      1.0  0.68820  0.59196  0.33962  1.0000
  C   C380      1.0  0.70115  0.59632  0.33984  1.0000
  H   H272      1.0  0.67646  0.57529  0.34104  1.0000
  H   H273      1.0  0.70303  0.60600  0.34276  1.0000
  H   H274      1.0  0.71628  0.56775  0.33737  1.0000
  N   N62       1.0  0.72349  0.59228  0.33976  1.0000
  N   N63       1.0  0.69340  0.55701  0.33667  1.0000
  N   N64       1.0  0.67823  0.60006  0.34338  1.0000
  C   C381      1.0  0.58746  0.29006  0.33658  1.0000
  C   C382      1.0  0.57410  0.29276  0.33582  1.0000
  C   C383      1.0  0.56947  0.30559  0.33586  1.0000
  C   C384      1.0  0.57844  0.31581  0.33976  1.0000
  C   C385      1.0  0.59184  0.31340  0.33956  1.0000
  C   C386      1.0  0.59620  0.30045  0.33978  1.0000
  H   H275      1.0  0.57517  0.32513  0.34101  1.0000
  H   H276      1.0  0.60589  0.29858  0.34271  1.0000
  H   H277      1.0  0.56764  0.28531  0.33726  1.0000
  N   N65       1.0  0.59217  0.27812  0.33968  1.0000
  N   N66       1.0  0.55689  0.30820  0.33660  1.0000
  N   N67       1.0  0.59994  0.32338  0.34337  1.0000
  C   C387      1.0  0.41407  0.71174  0.33666  1.0000
  C   C388      1.0  0.42742  0.70903  0.33586  1.0000
  C   C389      1.0  0.43205  0.69620  0.33603  1.0000
  C   C390      1.0  0.42308  0.68598  0.33992  1.0000
  C   C391      1.0  0.40968  0.68839  0.33966  1.0000
  C   C392      1.0  0.40532  0.70134  0.33981  1.0000
  H   H278      1.0  0.42635  0.67666  0.34116  1.0000
  H   H279      1.0  0.39563  0.70322  0.34269  1.0000
  H   H280      1.0  0.43389  0.71647  0.33739  1.0000
  N   N68       1.0  0.40935  0.72368  0.33965  1.0000
  N   N69       1.0  0.44463  0.69359  0.33678  1.0000
  N   N70       1.0  0.40158  0.67841  0.34339  1.0000
  C   C393      1.0  0.71192  0.41485  0.34113  1.0000
  C   C394      1.0  0.70947  0.42826  0.33903  1.0000
  C   C395      1.0  0.69677  0.43314  0.33986  1.0000
  C   C396      1.0  0.68634  0.42434  0.34095  1.0000
  C   C397      1.0  0.68852  0.41091  0.34324  1.0000
  C   C398      1.0  0.70136  0.40629  0.34178  1.0000
  H   H281      1.0  0.67707  0.42770  0.33957  1.0000
  H   H282      1.0  0.70302  0.39655  0.34063  1.0000
  H   H283      1.0  0.71704  0.43457  0.33554  1.0000
  N   N71       1.0  0.72376  0.40989  0.33695  1.0000
  N   N72       1.0  0.69557  0.44590  0.33649  1.0000
  N   N73       1.0  0.67843  0.40298  0.34133  1.0000
  C   C399      1.0  0.28953  0.58694  0.34102  1.0000
  C   C400      1.0  0.29199  0.57352  0.33900  1.0000
  C   C401      1.0  0.30468  0.56864  0.33975  1.0000
  C   C402      1.0  0.31512  0.57744  0.34072  1.0000
  C   C403      1.0  0.31294  0.59087  0.34299  1.0000
  C   C404      1.0  0.30010  0.59550  0.34164  1.0000
  H   H284      1.0  0.32439  0.57407  0.33929  1.0000
  H   H285      1.0  0.29844  0.60523  0.34052  1.0000
  H   H286      1.0  0.28441  0.56721  0.33552  1.0000
  N   N74       1.0  0.27769  0.59190  0.33699  1.0000
  N   N75       1.0  0.30589  0.55588  0.33637  1.0000
  N   N76       1.0  0.32304  0.59880  0.34105  1.0000
  C   C405      1.0  0.41474  0.28975  0.34114  1.0000
  C   C406      1.0  0.42815  0.29221  0.33901  1.0000
  C   C407      1.0  0.43303  0.30491  0.33978  1.0000
  C   C408      1.0  0.42423  0.31534  0.34083  1.0000
  C   C409      1.0  0.41080  0.31316  0.34315  1.0000
  C   C410      1.0  0.40617  0.30032  0.34175  1.0000
  H   H287      1.0  0.42759  0.32461  0.33942  1.0000
  H   H288      1.0  0.39644  0.29866  0.34062  1.0000
  H   H289      1.0  0.43446  0.28464  0.33554  1.0000
  N   N77       1.0  0.40978  0.27792  0.33700  1.0000
  N   N78       1.0  0.44579  0.30611  0.33638  1.0000
  N   N79       1.0  0.40286  0.32325  0.34119  1.0000
  C   C411      1.0  0.58682  0.71214  0.34101  1.0000
  C   C412      1.0  0.57341  0.70969  0.33900  1.0000
  C   C413      1.0  0.56852  0.69699  0.33974  1.0000
  C   C414      1.0  0.57732  0.68656  0.34071  1.0000
  C   C415      1.0  0.59076  0.68874  0.34298  1.0000
  C   C416      1.0  0.59538  0.70157  0.34163  1.0000
  H   H290      1.0  0.57396  0.67729  0.33927  1.0000
  H   H291      1.0  0.60512  0.70323  0.34050  1.0000
  H   H292      1.0  0.56710  0.71726  0.33553  1.0000
  N   N80       1.0  0.59179  0.72398  0.33699  1.0000
  N   N81       1.0  0.55576  0.69579  0.33636  1.0000
  N   N82       1.0  0.59869  0.67864  0.34103  1.0000
  C   C417      1.0  0.15351  0.34141  0.33093  1.0000
  C   C418      1.0  0.14114  0.34704  0.33447  1.0000
  C   C419      1.0  0.13957  0.36058  0.33382  1.0000
  C   C420      1.0  0.15071  0.36851  0.33380  1.0000
  C   C421      1.0  0.16318  0.36307  0.33487  1.0000
  C   C422      1.0  0.16444  0.34952  0.33200  1.0000
  H   H293      1.0  0.14979  0.37832  0.33580  1.0000
  H   H294      1.0  0.17346  0.34550  0.33144  1.0000
  H   H295      1.0  0.13318  0.34119  0.33537  1.0000
  N   N83       1.0  0.15478  0.32865  0.33191  1.0000
  N   N84       1.0  0.12754  0.36512  0.33661  1.0000
  N   N85       1.0  0.17356  0.37061  0.33440  1.0000
  C   C423      1.0  0.84780  0.66043  0.33114  1.0000
  C   C424      1.0  0.86018  0.65481  0.33467  1.0000
  C   C425      1.0  0.86176  0.64128  0.33390  1.0000
  C   C426      1.0  0.85062  0.63334  0.33392  1.0000
  C   C427      1.0  0.83815  0.63877  0.33508  1.0000
  C   C428      1.0  0.83687  0.65232  0.33226  1.0000
  H   H296      1.0  0.85155  0.62353  0.33592  1.0000
  H   H297      1.0  0.82785  0.65633  0.33173  1.0000
  H   H298      1.0  0.86813  0.66067  0.33544  1.0000
  N   N86       1.0  0.84653  0.67319  0.33210  1.0000
  N   N87       1.0  0.87379  0.63674  0.33662  1.0000
  N   N88       1.0  0.82778  0.63122  0.33465  1.0000
  C   C429      1.0  0.66035  0.15382  0.33114  1.0000
  C   C430      1.0  0.65473  0.14144  0.33460  1.0000
  C   C431      1.0  0.64120  0.13987  0.33396  1.0000
  C   C432      1.0  0.63326  0.15101  0.33404  1.0000
  C   C433      1.0  0.63870  0.16348  0.33518  1.0000
  C   C434      1.0  0.65224  0.16475  0.33230  1.0000
  H   H299      1.0  0.62345  0.15008  0.33604  1.0000
  H   H300      1.0  0.65626  0.17377  0.33178  1.0000
  H   H301      1.0  0.66059  0.13349  0.33542  1.0000
  N   N89       1.0  0.67311  0.15508  0.33205  1.0000
  N   N90       1.0  0.63666  0.12784  0.33664  1.0000
  N   N91       1.0  0.63115  0.17385  0.33477  1.0000
  C   C435      1.0  0.34134  0.84810  0.33100  1.0000
  C   C436      1.0  0.34696  0.86048  0.33460  1.0000
  C   C437      1.0  0.36050  0.86206  0.33385  1.0000
  C   C438      1.0  0.36843  0.85092  0.33379  1.0000
  C   C439      1.0  0.36300  0.83845  0.33488  1.0000
  C   C440      1.0  0.34945  0.83717  0.33206  1.0000
  H   H302      1.0  0.37825  0.85185  0.33580  1.0000
  H   H303      1.0  0.34544  0.82815  0.33148  1.0000
  H   H304      1.0  0.34110  0.86843  0.33544  1.0000
  N   N92       1.0  0.32858  0.84683  0.33200  1.0000
  N   N93       1.0  0.36503  0.87409  0.33665  1.0000
  N   N94       1.0  0.37055  0.82806  0.33439  1.0000
  C   C441      1.0  0.84767  0.34035  0.33799  1.0000
  C   C442      1.0  0.86003  0.34600  0.33480  1.0000
  C   C443      1.0  0.86157  0.35954  0.33591  1.0000
  C   C444      1.0  0.85041  0.36745  0.33604  1.0000
  C   C445      1.0  0.83796  0.36198  0.33463  1.0000
  C   C446      1.0  0.83672  0.34843  0.33704  1.0000
  H   H305      1.0  0.85132  0.37726  0.33441  1.0000
  H   H306      1.0  0.82771  0.34439  0.33743  1.0000
  H   H307      1.0  0.86800  0.34017  0.33385  1.0000
  N   N95       1.0  0.84645  0.32759  0.33670  1.0000
  N   N96       1.0  0.87359  0.36410  0.33345  1.0000
  N   N97       1.0  0.82757  0.36953  0.33533  1.0000
  C   C447      1.0  0.15365  0.66121  0.33817  1.0000
  C   C448      1.0  0.14128  0.65557  0.33467  1.0000
  C   C449      1.0  0.13973  0.64203  0.33584  1.0000
  C   C450      1.0  0.15088  0.63411  0.33620  1.0000
  C   C451      1.0  0.16335  0.63957  0.33502  1.0000
  C   C452      1.0  0.16459  0.65312  0.33742  1.0000
  H   H308      1.0  0.14997  0.62430  0.33450  1.0000
  H   H309      1.0  0.17360  0.65715  0.33794  1.0000
  H   H310      1.0  0.13332  0.66141  0.33360  1.0000
  N   N98       1.0  0.15489  0.67398  0.33679  1.0000
  N   N99       1.0  0.12770  0.63747  0.33301  1.0000
  N   N100      1.0  0.17374  0.63202  0.33579  1.0000
  C   C453      1.0  0.34029  0.15399  0.33793  1.0000
  C   C454      1.0  0.34593  0.14163  0.33474  1.0000
  C   C455      1.0  0.35947  0.14008  0.33587  1.0000
  C   C456      1.0  0.36738  0.15124  0.33603  1.0000
  C   C457      1.0  0.36192  0.16369  0.33462  1.0000
  C   C458      1.0  0.34837  0.16494  0.33699  1.0000
  H   H311      1.0  0.37720  0.15032  0.33442  1.0000
  H   H312      1.0  0.34433  0.17395  0.33737  1.0000
  H   H313      1.0  0.34009  0.13366  0.33377  1.0000
  N   N101      1.0  0.32752  0.15522  0.33660  1.0000
  N   N102      1.0  0.36402  0.12806  0.33341  1.0000
  N   N103      1.0  0.36947  0.17408  0.33534  1.0000
  C   C459      1.0  0.66115  0.84801  0.33821  1.0000
  C   C460      1.0  0.65550  0.86037  0.33475  1.0000
  C   C461      1.0  0.64196  0.86192  0.33585  1.0000
  C   C462      1.0  0.63405  0.85076  0.33618  1.0000
  C   C463      1.0  0.63951  0.83830  0.33498  1.0000
  C   C464      1.0  0.65306  0.83706  0.33742  1.0000
  H   H314      1.0  0.62424  0.85168  0.33445  1.0000
  H   H315      1.0  0.65710  0.82805  0.33794  1.0000
  H   H316      1.0  0.66134  0.86834  0.33367  1.0000
  N   N104      1.0  0.67392  0.84677  0.33687  1.0000
  N   N105      1.0  0.63741  0.87394  0.33305  1.0000
  N   N106      1.0  0.63197  0.82791  0.33574  1.0000
  C   C465      1.0  0.16608  0.16038  0.37936  1.0000
  C   C466      1.0  0.16138  0.15386  0.45557  1.0000
  C   C467      1.0  0.15175  0.14421  0.44950  1.0000
  C   C468      1.0  0.14667  0.14111  0.36372  1.0000
  C   C469      1.0  0.13750  0.13115  0.35063  1.0000
  C   C470      1.0  0.12473  0.13243  0.38205  1.0000
  C   C471      1.0  0.11584  0.12230  0.37129  1.0000
  H   H317      1.0  0.12185  0.14069  0.41375  1.0000
  H   H318      1.0  0.10671  0.12353  0.39572  1.0000
  H   H319      1.0  0.16525  0.15597  0.51687  1.0000
  N   N107      1.0  0.14812  0.13801  0.52563  1.0000
  H   H320      1.0  0.15189  0.14020  0.58324  1.0000
  H   H321      1.0  0.14193  0.13099  0.52509  1.0000
  C   C472      1.0  0.17625  0.16896  0.38774  1.0000
  H   H322      1.0  0.18282  0.16735  0.43497  1.0000
  C   C473      1.0  0.83548  0.84139  0.37907  1.0000
  C   C474      1.0  0.84024  0.84787  0.45528  1.0000
  C   C475      1.0  0.84992  0.85747  0.44916  1.0000
  C   C476      1.0  0.85501  0.86055  0.36336  1.0000
  C   C477      1.0  0.86422  0.87047  0.35020  1.0000
  C   C478      1.0  0.87698  0.86915  0.38159  1.0000
  C   C479      1.0  0.88591  0.87925  0.37079  1.0000
  H   H323      1.0  0.87983  0.86089  0.41338  1.0000
  H   H324      1.0  0.89504  0.87798  0.39522  1.0000
  H   H325      1.0  0.83637  0.84577  0.51660  1.0000
  N   N108      1.0  0.85361  0.86363  0.52531  1.0000
  H   H326      1.0  0.84983  0.86147  0.58290  1.0000
  H   H327      1.0  0.85982  0.87064  0.52472  1.0000
  C   C480      1.0  0.82528  0.83285  0.38753  1.0000
  H   H328      1.0  0.81873  0.83448  0.43492  1.0000
  C   C481      1.0  0.84137  0.16611  0.37943  1.0000
  C   C482      1.0  0.84786  0.16137  0.45569  1.0000
  C   C483      1.0  0.85750  0.15173  0.44962  1.0000
  C   C484      1.0  0.86062  0.14668  0.36382  1.0000
  C   C485      1.0  0.87056  0.13749  0.35074  1.0000
  C   C486      1.0  0.86926  0.12472  0.38205  1.0000
  C   C487      1.0  0.87937  0.11581  0.37122  1.0000
  H   H329      1.0  0.86099  0.12186  0.41374  1.0000
  H   H330      1.0  0.87811  0.10667  0.39555  1.0000
  H   H331      1.0  0.84572  0.16522  0.51701  1.0000
  N   N109      1.0  0.86366  0.14806  0.52581  1.0000
  H   H332      1.0  0.86148  0.15184  0.58340  1.0000
  H   H333      1.0  0.87071  0.14190  0.52523  1.0000
  C   C488      1.0  0.83279  0.17627  0.38784  1.0000
  H   H334      1.0  0.83438  0.18283  0.43526  1.0000
  C   C489      1.0  0.16036  0.83545  0.37923  1.0000
  C   C490      1.0  0.15386  0.84019  0.45545  1.0000
  C   C491      1.0  0.14424  0.84985  0.44935  1.0000
  C   C492      1.0  0.14116  0.85494  0.36357  1.0000
  C   C493      1.0  0.13121  0.86413  0.35045  1.0000
  C   C494      1.0  0.13251  0.87690  0.38189  1.0000
  C   C495      1.0  0.12239  0.88580  0.37116  1.0000
  H   H335      1.0  0.14077  0.87976  0.41364  1.0000
  H   H336      1.0  0.12364  0.89493  0.39559  1.0000
  H   H337      1.0  0.15597  0.83632  0.51675  1.0000
  N   N110      1.0  0.13806  0.85351  0.52549  1.0000
  H   H338      1.0  0.14025  0.84974  0.58310  1.0000
  H   H339      1.0  0.13105  0.85972  0.52494  1.0000
  C   C496      1.0  0.16892  0.82527  0.38765  1.0000
  H   H340      1.0  0.16731  0.81871  0.43501  1.0000
  C   C497      1.0  0.09018  0.98679  0.38044  1.0000
  C   C498      1.0  0.08901  0.97347  0.36601  1.0000
  H   H341      1.0  0.08914  0.99023  0.44417  1.0000
  H   H342      1.0  0.08713  0.96763  0.41961  1.0000
  C   C499      1.0  0.09201  0.03590  0.35769  1.0000
  C   C500      1.0  0.10197  0.02794  0.39165  1.0000
  C   C501      1.0  0.10196  0.01455  0.37653  1.0000
  H   H343      1.0  0.10949  0.03185  0.42683  1.0000
  H   H344      1.0  0.10943  0.00911  0.40060  1.0000
  C   C502      1.0  0.09255  0.04919  0.37043  1.0000
  H   H345      1.0  0.09993  0.05297  0.40381  1.0000
  C   C503      1.0  0.91131  0.01475  0.38096  1.0000
  C   C504      1.0  0.91245  0.02808  0.36645  1.0000
  H   H346      1.0  0.91230  0.01133  0.44476  1.0000
  H   H347      1.0  0.91424  0.03394  0.42008  1.0000
  C   C505      1.0  0.90971  0.96564  0.35877  1.0000
  C   C506      1.0  0.89971  0.97357  0.39255  1.0000
  C   C507      1.0  0.89969  0.98697  0.37724  1.0000
  H   H348      1.0  0.89221  0.96966  0.42774  1.0000
  H   H349      1.0  0.89220  0.99238  0.40118  1.0000
  C   C508      1.0  0.90920  0.95235  0.37161  1.0000
  H   H350      1.0  0.90187  0.94856  0.40546  1.0000
  C   C509      1.0  0.01481  0.09028  0.38056  1.0000
  C   C510      1.0  0.02814  0.08915  0.36625  1.0000
  H   H351      1.0  0.01137  0.08932  0.44434  1.0000
  H   H352      1.0  0.03399  0.08740  0.42000  1.0000
  C   C511      1.0  0.96571  0.09191  0.35773  1.0000
  C   C512      1.0  0.97364  0.10192  0.39134  1.0000
  C   C513      1.0  0.98703  0.10193  0.37616  1.0000
  H   H353      1.0  0.96972  0.10944  0.42635  1.0000
  H   H354      1.0  0.99245  0.10942  0.40004  1.0000
  C   C514      1.0  0.95242  0.09243  0.37053  1.0000
  H   H355      1.0  0.94863  0.09978  0.40419  1.0000
  C   C515      1.0  0.98685  0.91158  0.38013  1.0000
  C   C516      1.0  0.97353  0.91280  0.36536  1.0000
  H   H356      1.0  0.99027  0.91273  0.44381  1.0000
  H   H357      1.0  0.96768  0.91481  0.41869  1.0000
  C   C517      1.0  0.03596  0.90957  0.35799  1.0000
  C   C518      1.0  0.02798  0.89967  0.39250  1.0000
  C   C519      1.0  0.01459  0.89969  0.37735  1.0000
  H   H358      1.0  0.03187  0.89219  0.42817  1.0000
  H   H359      1.0  0.00913  0.89225  0.40180  1.0000
  C   C520      1.0  0.04925  0.90902  0.37075  1.0000
  H   H360      1.0  0.05303  0.90162  0.40394  1.0000
  C   C521      1.0  0.16669  0.28968  0.38667  1.0000
  C   C522      1.0  0.16409  0.30290  0.37708  1.0000
  H   H361      1.0  0.16766  0.28602  0.44987  1.0000
  H   H362      1.0  0.16333  0.30846  0.43338  1.0000
  C   C523      1.0  0.17813  0.24208  0.35562  1.0000
  C   C524      1.0  0.16623  0.24723  0.38523  1.0000
  C   C525      1.0  0.16306  0.26025  0.37085  1.0000
  H   H363      1.0  0.15960  0.24150  0.41686  1.0000
  H   H364      1.0  0.15430  0.26359  0.39218  1.0000
  C   C526      1.0  0.18074  0.22906  0.36914  1.0000
  H   H365      1.0  0.17508  0.22414  0.41071  1.0000
  C   C527      1.0  0.83465  0.71216  0.38673  1.0000
  C   C528      1.0  0.83723  0.69894  0.37718  1.0000
  H   H366      1.0  0.83366  0.71582  0.44990  1.0000
  H   H367      1.0  0.83796  0.69339  0.43350  1.0000
  C   C529      1.0  0.82325  0.75977  0.35554  1.0000
  C   C530      1.0  0.83514  0.75461  0.38532  1.0000
  C   C531      1.0  0.83830  0.74159  0.37098  1.0000
  H   H368      1.0  0.84175  0.76034  0.41711  1.0000
  H   H369      1.0  0.84706  0.73825  0.39246  1.0000
  C   C532      1.0  0.82064  0.77279  0.36904  1.0000
  H   H370      1.0  0.82630  0.77771  0.41065  1.0000
  C   C533      1.0  0.71209  0.16691  0.38661  1.0000
  C   C534      1.0  0.69886  0.16436  0.37708  1.0000
  H   H371      1.0  0.71576  0.16787  0.44979  1.0000
  H   H372      1.0  0.69331  0.16361  0.43340  1.0000
  C   C535      1.0  0.75971  0.17823  0.35540  1.0000
  C   C536      1.0  0.75453  0.16633  0.38508  1.0000
  C   C537      1.0  0.74151  0.16320  0.37071  1.0000
  H   H373      1.0  0.76025  0.15971  0.41680  1.0000
  H   H374      1.0  0.73815  0.15444  0.39215  1.0000
  C   C538      1.0  0.77273  0.18082  0.36889  1.0000
  H   H375      1.0  0.77764  0.17516  0.41051  1.0000
  C   C539      1.0  0.28962  0.83484  0.38669  1.0000
  C   C540      1.0  0.30284  0.83746  0.37711  1.0000
  H   H376      1.0  0.28597  0.83386  0.44988  1.0000
  H   H377      1.0  0.30839  0.83823  0.43340  1.0000
  C   C541      1.0  0.24202  0.82335  0.35551  1.0000
  C   C542      1.0  0.24717  0.83525  0.38529  1.0000
  C   C543      1.0  0.26019  0.83843  0.37100  1.0000
  H   H378      1.0  0.24143  0.84186  0.41706  1.0000
  H   H379      1.0  0.26351  0.84719  0.39244  1.0000
  C   C544      1.0  0.22901  0.82073  0.36897  1.0000
  H   H380      1.0  0.22408  0.82639  0.41055  1.0000
  C   C545      1.0  0.83817  0.30739  0.37686  1.0000
  C   C546      1.0  0.83650  0.29935  0.45213  1.0000
  C   C547      1.0  0.83408  0.28595  0.44369  1.0000
  C   C548      1.0  0.83301  0.28055  0.35642  1.0000
  C   C549      1.0  0.82972  0.26743  0.34121  1.0000
  C   C550      1.0  0.81765  0.26249  0.36880  1.0000
  C   C551      1.0  0.81444  0.24947  0.35397  1.0000
  H   H381      1.0  0.81113  0.26833  0.40034  1.0000
  H   H382      1.0  0.80566  0.24624  0.37566  1.0000
  H   H383      1.0  0.83704  0.30332  0.51470  1.0000
  N   N111      1.0  0.83308  0.27878  0.51954  1.0000
  H   H384      1.0  0.83406  0.28267  0.57835  1.0000
  H   H385      1.0  0.83212  0.26947  0.51773  1.0000
  C   C552      1.0  0.83935  0.32060  0.38802  1.0000
  H   H386      1.0  0.83425  0.32477  0.43646  1.0000
  C   C553      1.0  0.16323  0.69417  0.37678  1.0000
  C   C554      1.0  0.16497  0.70221  0.45204  1.0000
  C   C555      1.0  0.16745  0.71559  0.44359  1.0000
  C   C556      1.0  0.16853  0.72099  0.35633  1.0000
  C   C557      1.0  0.17188  0.73411  0.34111  1.0000
  C   C558      1.0  0.18395  0.73902  0.36888  1.0000
  C   C559      1.0  0.18721  0.75203  0.35417  1.0000
  H   H387      1.0  0.19045  0.73316  0.40052  1.0000
  H   H388      1.0  0.19599  0.75524  0.37602  1.0000
  H   H389      1.0  0.16443  0.69823  0.51462  1.0000
  N   N112      1.0  0.16851  0.72276  0.51946  1.0000
  H   H390      1.0  0.16749  0.71887  0.57824  1.0000
  H   H391      1.0  0.16947  0.73207  0.51766  1.0000
  C   C560      1.0  0.16200  0.68097  0.38801  1.0000
  H   H392      1.0  0.16711  0.67679  0.43639  1.0000
  C   C561      1.0  0.30733  0.16352  0.37677  1.0000
  C   C562      1.0  0.29929  0.16521  0.45205  1.0000
  C   C563      1.0  0.28590  0.16764  0.44364  1.0000
  C   C564      1.0  0.28050  0.16873  0.35638  1.0000
  C   C565      1.0  0.26737  0.17204  0.34121  1.0000
  C   C566      1.0  0.26244  0.18409  0.36900  1.0000
  C   C567      1.0  0.24943  0.18733  0.35423  1.0000
  H   H393      1.0  0.26828  0.19060  0.40067  1.0000
  H   H394      1.0  0.24620  0.19610  0.37608  1.0000
  H   H395      1.0  0.30327  0.16466  0.51462  1.0000
  N   N113      1.0  0.27873  0.16866  0.51951  1.0000
  H   H396      1.0  0.28261  0.16760  0.57827  1.0000
  H   H397      1.0  0.26941  0.16956  0.51767  1.0000
  C   C568      1.0  0.32054  0.16231  0.38796  1.0000
  H   H398      1.0  0.32471  0.16742  0.43639  1.0000
  C   C569      1.0  0.69410  0.83843  0.37693  1.0000
  C   C570      1.0  0.70215  0.83672  0.45217  1.0000
  C   C571      1.0  0.71554  0.83426  0.44371  1.0000
  C   C572      1.0  0.72093  0.83318  0.35644  1.0000
  C   C573      1.0  0.73406  0.82986  0.34121  1.0000
  C   C574      1.0  0.73899  0.81780  0.36883  1.0000
  C   C575      1.0  0.75200  0.81457  0.35412  1.0000
  H   H399      1.0  0.73313  0.81128  0.40035  1.0000
  H   H400      1.0  0.75523  0.80579  0.37585  1.0000
  H   H401      1.0  0.69818  0.83726  0.51476  1.0000
  N   N114      1.0  0.72271  0.83322  0.51956  1.0000
  H   H402      1.0  0.71882  0.83420  0.57837  1.0000
  H   H403      1.0  0.73201  0.83223  0.51777  1.0000
  C   C576      1.0  0.68090  0.83967  0.38816  1.0000
  H   H404      1.0  0.67672  0.83455  0.43653  1.0000
  C   C577      1.0  0.39090  0.06255  0.38653  1.0000
  C   C578      1.0  0.39605  0.05008  0.37704  1.0000
  H   H405      1.0  0.38848  0.06567  0.44922  1.0000
  H   H406      1.0  0.39742  0.04463  0.43323  1.0000
  C   C579      1.0  0.37781  0.11009  0.35021  1.0000
  C   C580      1.0  0.38960  0.10537  0.38514  1.0000
  C   C581      1.0  0.39326  0.09241  0.37405  1.0000
  H   H407      1.0  0.39580  0.11141  0.41810  1.0000
  H   H408      1.0  0.40200  0.08946  0.39847  1.0000
  C   C582      1.0  0.37476  0.12313  0.35982  1.0000
  H   H409      1.0  0.38116  0.12890  0.38915  1.0000
  C   C583      1.0  0.61057  0.93950  0.38419  1.0000
  C   C584      1.0  0.60546  0.95198  0.37441  1.0000
  H   H410      1.0  0.61299  0.93641  0.44696  1.0000
  H   H411      1.0  0.60411  0.95747  0.43046  1.0000
  C   C585      1.0  0.62362  0.89193  0.34925  1.0000
  C   C586      1.0  0.61184  0.89667  0.38414  1.0000
  C   C587      1.0  0.60818  0.90963  0.37267  1.0000
  H   H412      1.0  0.60565  0.89067  0.41744  1.0000
  H   H413      1.0  0.59944  0.91260  0.39712  1.0000
  C   C588      1.0  0.62667  0.87889  0.35925  1.0000
  H   H414      1.0  0.62027  0.87314  0.38868  1.0000
  C   C589      1.0  0.93908  0.39098  0.38657  1.0000
  C   C590      1.0  0.95155  0.39613  0.37707  1.0000
  H   H415      1.0  0.93596  0.38856  0.44928  1.0000
  H   H416      1.0  0.95702  0.39749  0.43324  1.0000
  C   C591      1.0  0.89155  0.37788  0.35027  1.0000
  C   C592      1.0  0.89627  0.38967  0.38521  1.0000
  C   C593      1.0  0.90923  0.39334  0.37410  1.0000
  H   H417      1.0  0.89024  0.39587  0.41827  1.0000
  H   H418      1.0  0.91218  0.40207  0.39859  1.0000
  C   C594      1.0  0.87851  0.37483  0.35992  1.0000
  H   H419      1.0  0.87274  0.38122  0.38929  1.0000
  C   C595      1.0  0.06214  0.61062  0.38422  1.0000
  C   C596      1.0  0.04966  0.60550  0.37443  1.0000
  H   H420      1.0  0.06523  0.61305  0.44698  1.0000
  H   H421      1.0  0.04416  0.60418  0.43046  1.0000
  C   C597      1.0  0.10972  0.62369  0.34927  1.0000
  C   C598      1.0  0.10497  0.61190  0.38419  1.0000
  C   C599      1.0  0.09202  0.60823  0.37275  1.0000
  H   H422      1.0  0.11098  0.60572  0.41752  1.0000
  H   H423      1.0  0.08905  0.59950  0.39720  1.0000
  C   C600      1.0  0.12276  0.62674  0.35931  1.0000
  H   H424      1.0  0.12850  0.62035  0.38882  1.0000
  C   C601      1.0  0.60084  0.04520  0.37734  1.0000
  C   C602      1.0  0.60248  0.05337  0.45213  1.0000
  C   C603      1.0  0.60758  0.06601  0.44441  1.0000
  C   C604      1.0  0.61130  0.07057  0.35834  1.0000
  C   C605      1.0  0.61547  0.08346  0.34320  1.0000
  C   C606      1.0  0.62738  0.08800  0.37650  1.0000
  C   C607      1.0  0.63102  0.10100  0.36523  1.0000
  H   H425      1.0  0.63340  0.08192  0.41053  1.0000
  H   H426      1.0  0.63963  0.10394  0.39164  1.0000
  H   H427      1.0  0.59946  0.05022  0.51357  1.0000
  N   N115      1.0  0.60817  0.07344  0.51932  1.0000
  H   H428      1.0  0.60537  0.07016  0.57709  1.0000
  H   H429      1.0  0.61107  0.08233  0.51767  1.0000
  C   C608      1.0  0.59421  0.03362  0.38685  1.0000
  H   H430      1.0  0.58749  0.03309  0.43433  1.0000
  C   C609      1.0  0.40077  0.95680  0.37803  1.0000
  C   C610      1.0  0.39920  0.94860  0.45272  1.0000
  C   C611      1.0  0.39416  0.93593  0.44492  1.0000
  C   C612      1.0  0.39043  0.93138  0.35887  1.0000
  C   C613      1.0  0.38625  0.91848  0.34370  1.0000
  C   C614      1.0  0.37437  0.91392  0.37738  1.0000
  C   C615      1.0  0.37072  0.90092  0.36605  1.0000
  H   H431      1.0  0.36838  0.91999  0.41182  1.0000
  H   H432      1.0  0.36214  0.89796  0.39279  1.0000
  H   H433      1.0  0.40224  0.95174  0.51414  1.0000
  N   N116      1.0  0.39364  0.92848  0.51973  1.0000
  H   H434      1.0  0.39647  0.93175  0.57746  1.0000
  H   H435      1.0  0.39081  0.91956  0.51799  1.0000
  C   C616      1.0  0.40737  0.96840  0.38758  1.0000
  H   H436      1.0  0.41417  0.96889  0.43452  1.0000
  C   C617      1.0  0.04483  0.40082  0.37805  1.0000
  C   C618      1.0  0.05303  0.39925  0.45275  1.0000
  C   C619      1.0  0.06570  0.39422  0.44492  1.0000
  C   C620      1.0  0.07025  0.39051  0.35883  1.0000
  C   C621      1.0  0.08315  0.38633  0.34366  1.0000
  C   C622      1.0  0.08771  0.37445  0.37730  1.0000
  C   C623      1.0  0.10071  0.37080  0.36598  1.0000
  H   H437      1.0  0.08164  0.36846  0.41170  1.0000
  H   H438      1.0  0.10367  0.36222  0.39266  1.0000
  H   H439      1.0  0.04988  0.40226  0.51420  1.0000
  N   N117      1.0  0.07315  0.39368  0.51974  1.0000
  H   H440      1.0  0.06987  0.39651  0.57747  1.0000
  H   H441      1.0  0.08207  0.39088  0.51795  1.0000
  C   C624      1.0  0.03323  0.40742  0.38764  1.0000
  H   H442      1.0  0.03273  0.41420  0.43470  1.0000
  C   C625      1.0  0.95642  0.60088  0.37729  1.0000
  C   C626      1.0  0.94826  0.60253  0.45209  1.0000
  C   C627      1.0  0.93561  0.60762  0.44435  1.0000
  C   C628      1.0  0.93106  0.61134  0.35829  1.0000
  C   C629      1.0  0.91816  0.61552  0.34316  1.0000
  C   C630      1.0  0.91363  0.62743  0.37655  1.0000
  C   C631      1.0  0.90063  0.63108  0.36530  1.0000
  H   H443      1.0  0.91971  0.63344  0.41065  1.0000
  H   H444      1.0  0.89769  0.63969  0.39172  1.0000
  H   H445      1.0  0.95141  0.59950  0.51352  1.0000
  N   N118      1.0  0.92818  0.60821  0.51926  1.0000
  H   H446      1.0  0.93147  0.60541  0.57703  1.0000
  H   H447      1.0  0.91929  0.61110  0.51761  1.0000
  C   C632      1.0  0.96801  0.59427  0.38684  1.0000
  H   H448      1.0  0.96854  0.58755  0.43432  1.0000
  C   C633      1.0  0.48572  0.99907  0.38970  1.0000
  C   C634      1.0  0.47224  0.99881  0.38048  1.0000
  H   H449      1.0  0.48953  0.00011  0.45239  1.0000
  H   H450      1.0  0.46667  0.99949  0.43675  1.0000
  C   C635      1.0  0.53464  0.99504  0.35519  1.0000
  C   C636      1.0  0.52615  0.98542  0.38775  1.0000
  C   C637      1.0  0.51275  0.98640  0.37535  1.0000
  H   H451      1.0  0.52965  0.97744  0.41991  1.0000
  H   H452      1.0  0.50695  0.97913  0.39833  1.0000
  C   C638      1.0  0.54789  0.99346  0.36647  1.0000
  H   H453      1.0  0.55101  0.98606  0.40285  1.0000
  C   C639      1.0  0.00257  0.48577  0.38970  1.0000
  C   C640      1.0  0.00283  0.47230  0.38049  1.0000
  H   H454      1.0  0.00153  0.48959  0.45240  1.0000
  H   H455      1.0  0.00214  0.46673  0.43676  1.0000
  C   C641      1.0  0.00660  0.53470  0.35520  1.0000
  C   C642      1.0  0.01622  0.52621  0.38778  1.0000
  C   C643      1.0  0.01523  0.51280  0.37541  1.0000
  H   H456      1.0  0.02419  0.52971  0.42002  1.0000
  H   H457      1.0  0.02250  0.50700  0.39843  1.0000
  C   C644      1.0  0.00817  0.54795  0.36647  1.0000
  H   H458      1.0  0.01558  0.55107  0.40281  1.0000
  C   C645      1.0  0.19424  0.37754  0.37680  1.0000
  C   C646      1.0  0.20143  0.38122  0.45284  1.0000
  C   C647      1.0  0.21333  0.38787  0.44579  1.0000
  C   C648      1.0  0.21831  0.39065  0.35912  1.0000
  C   C649      1.0  0.23065  0.39632  0.34538  1.0000
  C   C650      1.0  0.24198  0.38995  0.37368  1.0000
  C   C651      1.0  0.25419  0.39559  0.36059  1.0000
  H   H459      1.0  0.24143  0.38115  0.40447  1.0000
  H   H460      1.0  0.26214  0.39070  0.38273  1.0000
  H   H461      1.0  0.19797  0.37894  0.51500  1.0000
  N   N119      1.0  0.21943  0.39146  0.52242  1.0000
  H   H462      1.0  0.21568  0.38968  0.58078  1.0000
  H   H463      1.0  0.22718  0.39670  0.52157  1.0000
  C   C652      1.0  0.18339  0.36986  0.38673  1.0000
  H   H464      1.0  0.18349  0.36322  0.43487  1.0000
  C   C653      1.0  0.80712  0.62425  0.37720  1.0000
  C   C654      1.0  0.79996  0.62051  0.45324  1.0000
  C   C655      1.0  0.78808  0.61384  0.44616  1.0000
  C   C656      1.0  0.78309  0.61109  0.35948  1.0000
  C   C657      1.0  0.77076  0.60542  0.34573  1.0000
  C   C658      1.0  0.75942  0.61178  0.37406  1.0000
  C   C659      1.0  0.74722  0.60614  0.36090  1.0000
  H   H465      1.0  0.75997  0.62057  0.40491  1.0000
  H   H466      1.0  0.73926  0.61103  0.38305  1.0000
  H   H467      1.0  0.80344  0.62276  0.51541  1.0000
  N   N120      1.0  0.78201  0.61019  0.52276  1.0000
  H   H468      1.0  0.78572  0.61202  0.58117  1.0000
  H   H469      1.0  0.77422  0.60501  0.52193  1.0000
  C   C660      1.0  0.81797  0.63194  0.38716  1.0000
  H   H470      1.0  0.81787  0.63857  0.43540  1.0000
  C   C661      1.0  0.62418  0.19451  0.37724  1.0000
  C   C662      1.0  0.62046  0.20167  0.45328  1.0000
  C   C663      1.0  0.61378  0.21355  0.44619  1.0000
  C   C664      1.0  0.61101  0.21853  0.35952  1.0000
  C   C665      1.0  0.60533  0.23086  0.34573  1.0000
  C   C666      1.0  0.61170  0.24221  0.37395  1.0000
  C   C667      1.0  0.60606  0.25440  0.36074  1.0000
  H   H471      1.0  0.62050  0.24166  0.40472  1.0000
  H   H472      1.0  0.61094  0.26236  0.38279  1.0000
  H   H473      1.0  0.62272  0.19820  0.51544  1.0000
  N   N121      1.0  0.61015  0.21963  0.52279  1.0000
  H   H474      1.0  0.61198  0.21593  0.58120  1.0000
  H   H475      1.0  0.60496  0.22742  0.52197  1.0000
  C   C668      1.0  0.63188  0.18367  0.38717  1.0000
  H   H476      1.0  0.63852  0.18378  0.43535  1.0000
  C   C669      1.0  0.37749  0.80739  0.37676  1.0000
  C   C670      1.0  0.38118  0.80020  0.45280  1.0000
  C   C671      1.0  0.38783  0.78831  0.44574  1.0000
  C   C672      1.0  0.39060  0.78332  0.35907  1.0000
  C   C673      1.0  0.39625  0.77097  0.34533  1.0000
  C   C674      1.0  0.38987  0.75964  0.37368  1.0000
  C   C675      1.0  0.39550  0.74743  0.36060  1.0000
  H   H477      1.0  0.38108  0.76020  0.40451  1.0000
  H   H478      1.0  0.39060  0.73949  0.38279  1.0000
  H   H479      1.0  0.37891  0.80367  0.51496  1.0000
  N   N122      1.0  0.39143  0.78221  0.52236  1.0000
  H   H480      1.0  0.38962  0.78594  0.58074  1.0000
  H   H481      1.0  0.39663  0.77443  0.52155  1.0000
  C   C676      1.0  0.36980  0.81823  0.38671  1.0000
  H   H482      1.0  0.36316  0.81813  0.43485  1.0000
  C   C677      1.0  0.79028  0.38630  0.38790  1.0000
  C   C678      1.0  0.80204  0.37969  0.37897  1.0000
  H   H483      1.0  0.78685  0.38803  0.45093  1.0000
  H   H484      1.0  0.80674  0.37676  0.43557  1.0000
  C   C679      1.0  0.74628  0.40785  0.35480  1.0000
  C   C680      1.0  0.75784  0.41376  0.38431  1.0000
  C   C681      1.0  0.76990  0.40788  0.37055  1.0000
  H   H485      1.0  0.75763  0.42253  0.41575  1.0000
  H   H486      1.0  0.77804  0.41253  0.39201  1.0000
  C   C682      1.0  0.73454  0.41414  0.36780  1.0000
  H   H487      1.0  0.73451  0.42237  0.40199  1.0000
  C   C683      1.0  0.21108  0.61534  0.38840  1.0000
  C   C684      1.0  0.19931  0.62191  0.37946  1.0000
  H   H488      1.0  0.21452  0.61362  0.45143  1.0000
  H   H489      1.0  0.19459  0.62483  0.43605  1.0000
  C   C685      1.0  0.25516  0.59391  0.35511  1.0000
  C   C686      1.0  0.24362  0.58797  0.38468  1.0000
  C   C687      1.0  0.23154  0.59382  0.37106  1.0000
  H   H490      1.0  0.24386  0.57919  0.41607  1.0000
  H   H491      1.0  0.22341  0.58915  0.39249  1.0000
  C   C688      1.0  0.26692  0.58764  0.36796  1.0000
  H   H492      1.0  0.26697  0.57941  0.40216  1.0000
  C   C689      1.0  0.38624  0.21137  0.38795  1.0000
  C   C690      1.0  0.37963  0.19962  0.37900  1.0000
  H   H493      1.0  0.38795  0.21481  0.45097  1.0000
  H   H494      1.0  0.37668  0.19492  0.43559  1.0000
  C   C691      1.0  0.40776  0.25539  0.35489  1.0000
  C   C692      1.0  0.41368  0.24384  0.38440  1.0000
  C   C693      1.0  0.40782  0.23177  0.37065  1.0000
  H   H495      1.0  0.42245  0.24406  0.41581  1.0000
  H   H496      1.0  0.41247  0.22363  0.39206  1.0000
  C   C694      1.0  0.41403  0.26714  0.36787  1.0000
  H   H497      1.0  0.42227  0.26717  0.40203  1.0000
  C   C695      1.0  0.61525  0.79058  0.38840  1.0000
  C   C696      1.0  0.62183  0.80235  0.37948  1.0000
  H   H498      1.0  0.61352  0.78715  0.45143  1.0000
  H   H499      1.0  0.62475  0.80706  0.43607  1.0000
  C   C697      1.0  0.59381  0.74650  0.35513  1.0000
  C   C698      1.0  0.58787  0.75805  0.38463  1.0000
  C   C699      1.0  0.59373  0.77013  0.37098  1.0000
  H   H500      1.0  0.57909  0.75782  0.41596  1.0000
  H   H501      1.0  0.58906  0.77826  0.39237  1.0000
  C   C700      1.0  0.58754  0.73476  0.36799  1.0000
  H   H502      1.0  0.57930  0.73471  0.40219  1.0000
  C   C701      1.0  0.30953  0.48582  0.38745  1.0000
  C   C702      1.0  0.30752  0.47245  0.38066  1.0000
  H   H503      1.0  0.31005  0.48984  0.44983  1.0000
  H   H504      1.0  0.30662  0.46716  0.43804  1.0000
  C   C703      1.0  0.31363  0.53463  0.34229  1.0000
  C   C704      1.0  0.32339  0.52619  0.37340  1.0000
  C   C705      1.0  0.32224  0.51273  0.36382  1.0000
  H   H505      1.0  0.33153  0.52977  0.40311  1.0000
  H   H506      1.0  0.32957  0.50695  0.38609  1.0000
  C   C706      1.0  0.31517  0.54794  0.35095  1.0000
  H   H507      1.0  0.32366  0.55140  0.37046  1.0000
  C   C707      1.0  0.69191  0.51595  0.38737  1.0000
  C   C708      1.0  0.69391  0.52932  0.38053  1.0000
  H   H508      1.0  0.69140  0.51193  0.44977  1.0000
  H   H509      1.0  0.69481  0.53461  0.43790  1.0000
  C   C709      1.0  0.68782  0.46714  0.34245  1.0000
  C   C710      1.0  0.67805  0.47558  0.37330  1.0000
  C   C711      1.0  0.67919  0.48904  0.36370  1.0000
  H   H510      1.0  0.66989  0.47200  0.40286  1.0000
  H   H511      1.0  0.67185  0.49482  0.38571  1.0000
  C   C712      1.0  0.68628  0.45384  0.35118  1.0000
  H   H512      1.0  0.67780  0.45038  0.37075  1.0000
  C   C713      1.0  0.51583  0.30971  0.38734  1.0000
  C   C714      1.0  0.52920  0.30771  0.38051  1.0000
  H   H513      1.0  0.51181  0.31022  0.44973  1.0000
  H   H514      1.0  0.53449  0.30678  0.43790  1.0000
  C   C715      1.0  0.46703  0.31384  0.34233  1.0000
  C   C716      1.0  0.47548  0.32361  0.37324  1.0000
  C   C717      1.0  0.48894  0.32245  0.36364  1.0000
  H   H515      1.0  0.47190  0.33177  0.40279  1.0000
  H   H516      1.0  0.49472  0.32979  0.38571  1.0000
  C   C718      1.0  0.45373  0.31540  0.35100  1.0000
  H   H517      1.0  0.45027  0.32388  0.37059  1.0000
  C   C719      1.0  0.48571  0.69209  0.38751  1.0000
  C   C720      1.0  0.47233  0.69408  0.38071  1.0000
  H   H518      1.0  0.48973  0.69159  0.44989  1.0000
  H   H519      1.0  0.46705  0.69500  0.43810  1.0000
  C   C721      1.0  0.53452  0.68804  0.34239  1.0000
  C   C722      1.0  0.52609  0.67826  0.37344  1.0000
  C   C723      1.0  0.51263  0.67940  0.36388  1.0000
  H   H520      1.0  0.52968  0.67012  0.40309  1.0000
  H   H521      1.0  0.50686  0.67206  0.38606  1.0000
  C   C724      1.0  0.54783  0.68650  0.35101  1.0000
  H   H522      1.0  0.55129  0.67802  0.37060  1.0000
  C   C725      1.0  0.38499  0.33612  0.37928  1.0000
  C   C726      1.0  0.37788  0.34087  0.45291  1.0000
  C   C727      1.0  0.36860  0.35084  0.44401  1.0000
  C   C728      1.0  0.36649  0.35635  0.35799  1.0000
  C   C729      1.0  0.35652  0.36547  0.34111  1.0000
  C   C730      1.0  0.35692  0.37810  0.37650  1.0000
  C   C731      1.0  0.34656  0.38670  0.36325  1.0000
  H   H523      1.0  0.36467  0.38104  0.41356  1.0000
  H   H524      1.0  0.34713  0.39570  0.39100  1.0000
  H   H525      1.0  0.37917  0.33668  0.51426  1.0000
  N   N123      1.0  0.36172  0.35431  0.51767  1.0000
  H   H526      1.0  0.36321  0.35023  0.57534  1.0000
  H   H527      1.0  0.35487  0.36067  0.51506  1.0000
  C   C732      1.0  0.39283  0.32535  0.38977  1.0000
  H   H528      1.0  0.39050  0.31896  0.43684  1.0000
  C   C733      1.0  0.61655  0.66575  0.37909  1.0000
  C   C734      1.0  0.62365  0.66099  0.45271  1.0000
  C   C735      1.0  0.63290  0.65100  0.44381  1.0000
  C   C736      1.0  0.63498  0.64547  0.35783  1.0000
  C   C737      1.0  0.64494  0.63633  0.34092  1.0000
  C   C738      1.0  0.64452  0.62370  0.37628  1.0000
  C   C739      1.0  0.65486  0.61508  0.36301  1.0000
  H   H529      1.0  0.63676  0.62077  0.41330  1.0000
  H   H530      1.0  0.65427  0.60608  0.39069  1.0000
  H   H531      1.0  0.62239  0.66520  0.51402  1.0000
  N   N124      1.0  0.63978  0.64752  0.51745  1.0000
  H   H532      1.0  0.63830  0.65159  0.57514  1.0000
  H   H533      1.0  0.64660  0.64112  0.51490  1.0000
  C   C740      1.0  0.60872  0.67654  0.38956  1.0000
  H   H534      1.0  0.61107  0.68292  0.43658  1.0000
  C   C741      1.0  0.66556  0.38510  0.37934  1.0000
  C   C742      1.0  0.66081  0.37798  0.45292  1.0000
  C   C743      1.0  0.65083  0.36872  0.44401  1.0000
  C   C744      1.0  0.64530  0.36665  0.35803  1.0000
  C   C745      1.0  0.63618  0.35668  0.34109  1.0000
  C   C746      1.0  0.62355  0.35709  0.37639  1.0000
  C   C747      1.0  0.61494  0.34674  0.36304  1.0000
  H   H535      1.0  0.62060  0.36485  0.41336  1.0000
  H   H536      1.0  0.60593  0.34733  0.39071  1.0000
  H   H537      1.0  0.66503  0.37925  0.51424  1.0000
  N   N125      1.0  0.64737  0.36183  0.51762  1.0000
  H   H538      1.0  0.65144  0.36331  0.57531  1.0000
  H   H539      1.0  0.64097  0.35502  0.51506  1.0000
  C   C748      1.0  0.67634  0.39293  0.38979  1.0000
  H   H540      1.0  0.68274  0.39058  0.43672  1.0000
  C   C749      1.0  0.33594  0.61666  0.37907  1.0000
  C   C750      1.0  0.34069  0.62376  0.45271  1.0000
  C   C751      1.0  0.35068  0.63302  0.44385  1.0000
  C   C752      1.0  0.35621  0.63511  0.35789  1.0000
  C   C753      1.0  0.36534  0.64509  0.34101  1.0000
  C   C754      1.0  0.37796  0.64468  0.37639  1.0000
  C   C755      1.0  0.38657  0.65504  0.36316  1.0000
  H   H541      1.0  0.38090  0.63692  0.41346  1.0000
  H   H542      1.0  0.39557  0.65446  0.39093  1.0000
  H   H543      1.0  0.33649  0.62248  0.51404  1.0000
  N   N126      1.0  0.35416  0.63989  0.51754  1.0000
  H   H544      1.0  0.35008  0.63841  0.57520  1.0000
  H   H545      1.0  0.36055  0.64671  0.51500  1.0000
  C   C756      1.0  0.32514  0.60884  0.38950  1.0000
  H   H546      1.0  0.31875  0.61119  0.43648  1.0000
