data_image0
_chemical_formula_structural       CNCHNHCNCHNHCNCHNHCNCHNHC4HC6HOHOHC4HC6HOHOHC4HC6HOHOHC4HC6HOHOHC4HC6HOHOHC4HC6HOHOHC4HC6HOHOHC4HC6HOHOHCNCHNHCNCHNHCNCHNHCNCHNHC4HC6HOHOHC4HC6HOHOHC4HC6HOHOHC4HC6HOHOHCNCHNHCNCHNHCNCHNHCNCHNHC4HC6HOHOHC4HC6HOHOHCNCHNHCNCHNHCNCHNHCNCHNHC4HC6HOHOHC4HC6HOHOHC4HC6HOHOHC4HC6HOHOHC4HC6HOHOHC4HC6HOHOHC4HC6HOHOHC4HC6HOHOHCNCHNHCNCHNHCNCHNHCNCHNHCNCNCNCNCNCNCNCNCNCNCNCNCNCNCNCNCNCNCNCNCNCNCNCNCNCNCNCNCNCNCNCNCNCNCNCNCNCNCNCNCNCNCNCNCNCNCNCNCNCNCNCNCNCNCNCNCNCNCNCNCNCNCNCNCNCNCNCNCNCNCNCNCNCNCNCNCNCNCNCNCNCNCNCNC4HC6HOHOHC4HC6HOHOHC4HC6HOHOHC4HC6HOHOHCNCHNHCNCHNHCNCHNHCNCHNHCNCHNHCNCHNHCNCHNHCNCHNHC4HC6HOHOHC4HC6HOHOHC4HC6HOHOHC4HC6HOHOHCNCHNHCNCHNHCNCHNHCNCHNHC4HC6HOHOHC4HC6HOHOHC4HC6HOHOHC4HC6HOHOHCNCHNHCNCHNHC4HC6HOHOHC4HC6HOHOHC4HC6HOHOHC4HC6HOHOHCNCHNHCNCHNHCNCHNHCNCHNHCNCHNHCNCHNHCNCHNHCNCHNHC4HC6HOHOHC4HC6HOHOHC4HC6HOHOHC4HC6HOHOH
_chemical_formula_sum              "C588 N168 H252 O84"
_cell_length_a       76.9593
_cell_length_b       76.9593
_cell_length_c       14.9121
_cell_angle_alpha    90
_cell_angle_beta     90
_cell_angle_gamma    90

_space_group_name_H-M_alt    "P 1"
_space_group_IT_number       1

loop_
  _space_group_symop_operation_xyz
  'x, y, z'

loop_
  _atom_site_type_symbol
  _atom_site_label
  _atom_site_symmetry_multiplicity
  _atom_site_fract_x
  _atom_site_fract_y
  _atom_site_fract_z
  _atom_site_occupancy
  C   C1        1.0  0.17495  0.15514  0.33832  1.0000
  N   N1        1.0  0.16236  0.14294  0.34536  1.0000
  C   C2        1.0  0.12562  0.10392  0.34835  1.0000
  H   H1        1.0  0.18624  0.15187  0.30651  1.0000
  N   N2        1.0  0.13738  0.11697  0.35078  1.0000
  H   H2        1.0  0.12906  0.09271  0.31618  1.0000
  C   C3        1.0  0.85002  0.82907  0.33753  1.0000
  N   N3        1.0  0.86222  0.84169  0.34267  1.0000
  C   C4        1.0  0.90108  0.87851  0.33781  1.0000
  H   H3        1.0  0.85335  0.81765  0.30705  1.0000
  N   N4        1.0  0.88811  0.86670  0.34337  1.0000
  H   H4        1.0  0.91226  0.87485  0.30608  1.0000
  C   C5        1.0  0.83036  0.15434  0.34155  1.0000
  N   N5        1.0  0.84305  0.14224  0.34846  1.0000
  C   C6        1.0  0.88008  0.10344  0.35159  1.0000
  H   H5        1.0  0.81898  0.15082  0.31126  1.0000
  N   N6        1.0  0.86823  0.11641  0.35412  1.0000
  H   H6        1.0  0.87653  0.09203  0.32170  1.0000
  C   C7        1.0  0.15619  0.82925  0.33516  1.0000
  N   N7        1.0  0.14400  0.84188  0.34005  1.0000
  C   C8        1.0  0.10523  0.87874  0.33435  1.0000
  H   H7        1.0  0.15303  0.81790  0.30358  1.0000
  N   N8        1.0  0.11819  0.86693  0.33995  1.0000
  H   H8        1.0  0.09422  0.87525  0.30060  1.0000
  C   C9        1.0  0.09236  0.95584  0.30457  1.0000
  C   C10       1.0  0.09505  0.99232  0.29691  1.0000
  C   C11       1.0  0.08582  0.98345  0.22820  1.0000
  C   C12       1.0  0.08472  0.96519  0.23315  1.0000
  H   H9        1.0  0.07755  0.95862  0.18620  1.0000
  C   C13       1.0  0.09496  0.01068  0.29931  1.0000
  C   C14       1.0  0.09206  0.04699  0.31659  1.0000
  C   C15       1.0  0.08425  0.03834  0.24343  1.0000
  C   C16       1.0  0.08556  0.02016  0.23340  1.0000
  C   C17       1.0  0.07705  0.01127  0.16290  1.0000
  C   C18       1.0  0.07721  0.99296  0.16021  1.0000
  H   H10       1.0  0.07689  0.04534  0.19896  1.0000
  O   O1        1.0  0.06843  0.02007  0.09723  1.0000
  H   H11       1.0  0.05633  0.02119  0.11772  1.0000
  O   O2        1.0  0.06870  0.98476  0.09211  1.0000
  H   H12       1.0  0.05663  0.98320  0.11237  1.0000
  C   C19       1.0  0.91399  0.04684  0.31692  1.0000
  C   C20       1.0  0.91113  0.01054  0.29961  1.0000
  C   C21       1.0  0.92051  0.02003  0.23368  1.0000
  C   C22       1.0  0.92181  0.03821  0.24374  1.0000
  H   H13       1.0  0.92914  0.04523  0.19919  1.0000
  C   C23       1.0  0.91106  0.99219  0.29718  1.0000
  C   C24       1.0  0.91381  0.95572  0.30487  1.0000
  C   C25       1.0  0.92143  0.96507  0.23341  1.0000
  C   C26       1.0  0.92029  0.98333  0.22845  1.0000
  C   C27       1.0  0.92889  0.99285  0.16043  1.0000
  C   C28       1.0  0.92902  0.01116  0.16313  1.0000
  H   H14       1.0  0.92862  0.95851  0.18649  1.0000
  O   O3        1.0  0.93741  0.98466  0.09233  1.0000
  H   H15       1.0  0.94948  0.98312  0.11255  1.0000
  O   O4        1.0  0.93763  0.01998  0.09746  1.0000
  H   H16       1.0  0.94973  0.02112  0.11795  1.0000
  C   C29       1.0  0.04861  0.09064  0.32871  1.0000
  C   C30       1.0  0.01216  0.09349  0.31790  1.0000
  C   C31       1.0  0.02135  0.08529  0.24684  1.0000
  C   C32       1.0  0.03959  0.08400  0.25365  1.0000
  H   H17       1.0  0.04639  0.07748  0.20506  1.0000
  C   C33       1.0  0.99379  0.09348  0.31788  1.0000
  C   C34       1.0  0.95735  0.09059  0.32859  1.0000
  C   C35       1.0  0.96638  0.08396  0.25356  1.0000
  C   C36       1.0  0.98462  0.08527  0.24679  1.0000
  C   C37       1.0  0.99383  0.07785  0.17415  1.0000
  C   C38       1.0  0.01215  0.07786  0.17417  1.0000
  H   H18       1.0  0.95959  0.07743  0.20494  1.0000
  O   O5        1.0  0.98534  0.07042  0.10371  1.0000
  H   H19       1.0  0.98401  0.05804  0.11870  1.0000
  O   O6        1.0  0.02066  0.07044  0.10374  1.0000
  H   H20       1.0  0.02200  0.05806  0.11872  1.0000
  C   C39       1.0  0.95755  0.91244  0.29196  1.0000
  C   C40       1.0  0.99392  0.90983  0.27732  1.0000
  C   C41       1.0  0.98472  0.92033  0.21495  1.0000
  C   C42       1.0  0.96649  0.92139  0.22328  1.0000
  H   H21       1.0  0.95969  0.92947  0.18142  1.0000
  C   C43       1.0  0.01226  0.90985  0.27727  1.0000
  C   C44       1.0  0.04862  0.91255  0.29172  1.0000
  C   C45       1.0  0.03965  0.92150  0.22317  1.0000
  C   C46       1.0  0.02143  0.92038  0.21488  1.0000
  C   C47       1.0  0.01221  0.93019  0.15019  1.0000
  C   C48       1.0  0.99389  0.93016  0.15022  1.0000
  H   H22       1.0  0.04642  0.92960  0.18130  1.0000
  O   O7        1.0  0.02070  0.94001  0.08802  1.0000
  H   H23       1.0  0.02202  0.95164  0.11452  1.0000
  O   O8        1.0  0.98536  0.93996  0.08807  1.0000
  H   H24       1.0  0.98401  0.95158  0.11457  1.0000
  C   C49       1.0  0.15941  0.31919  0.34964  1.0000
  C   C50       1.0  0.17002  0.28417  0.34095  1.0000
  C   C51       1.0  0.15650  0.28997  0.28331  1.0000
  C   C52       1.0  0.15122  0.30761  0.28936  1.0000
  H   H25       1.0  0.14188  0.31228  0.24677  1.0000
  C   C53       1.0  0.17595  0.26685  0.33777  1.0000
  C   C54       1.0  0.18774  0.23224  0.33828  1.0000
  C   C55       1.0  0.17403  0.23736  0.28079  1.0000
  C   C56       1.0  0.16814  0.25479  0.27809  1.0000
  C   C57       1.0  0.15490  0.26058  0.21920  1.0000
  C   C58       1.0  0.14921  0.27807  0.22137  1.0000
  H   H26       1.0  0.16839  0.22828  0.23983  1.0000
  O   O9        1.0  0.14726  0.24943  0.16023  1.0000
  H   H27       1.0  0.15434  0.24983  0.10536  1.0000
  O   O10       1.0  0.13633  0.28311  0.16436  1.0000
  H   H28       1.0  0.14216  0.28721  0.10958  1.0000
  C   C59       1.0  0.84496  0.68520  0.34477  1.0000
  C   C60       1.0  0.83432  0.72019  0.33370  1.0000
  C   C61       1.0  0.84886  0.71466  0.28238  1.0000
  C   C62       1.0  0.85412  0.69702  0.28951  1.0000
  H   H29       1.0  0.86424  0.69255  0.25143  1.0000
  C   C63       1.0  0.82839  0.73750  0.32960  1.0000
  C   C64       1.0  0.81664  0.77214  0.32993  1.0000
  C   C65       1.0  0.83126  0.76726  0.27794  1.0000
  C   C66       1.0  0.83719  0.74984  0.27547  1.0000
  C   C67       1.0  0.85150  0.74433  0.22272  1.0000
  C   C68       1.0  0.85720  0.72685  0.22567  1.0000
  H   H30       1.0  0.83765  0.77654  0.24141  1.0000
  O   O11       1.0  0.86019  0.75578  0.16947  1.0000
  H   H31       1.0  0.85419  0.75567  0.11123  1.0000
  O   O12       1.0  0.87115  0.72211  0.17508  1.0000
  H   H32       1.0  0.86644  0.71822  0.11713  1.0000
  C   C69       1.0  0.68577  0.16055  0.34416  1.0000
  C   C70       1.0  0.72091  0.17074  0.33390  1.0000
  C   C71       1.0  0.71522  0.15628  0.28236  1.0000
  C   C72       1.0  0.69752  0.15126  0.28910  1.0000
  H   H33       1.0  0.69295  0.14118  0.25100  1.0000
  C   C73       1.0  0.73831  0.17639  0.33036  1.0000
  C   C74       1.0  0.77311  0.18767  0.33152  1.0000
  C   C75       1.0  0.76809  0.17313  0.27939  1.0000
  C   C76       1.0  0.75059  0.16743  0.27650  1.0000
  C   C77       1.0  0.74491  0.15325  0.22338  1.0000
  C   C78       1.0  0.72735  0.14779  0.22585  1.0000
  H   H34       1.0  0.77731  0.16666  0.24286  1.0000
  O   O13       1.0  0.75628  0.14443  0.17020  1.0000
  H   H35       1.0  0.75629  0.15047  0.11206  1.0000
  O   O14       1.0  0.72245  0.13395  0.17490  1.0000
  H   H36       1.0  0.71866  0.13875  0.11699  1.0000
  C   C79       1.0  0.31969  0.84621  0.35045  1.0000
  C   C80       1.0  0.28482  0.83516  0.34131  1.0000
  C   C81       1.0  0.29046  0.84881  0.28405  1.0000
  C   C82       1.0  0.30802  0.85432  0.29032  1.0000
  H   H37       1.0  0.31260  0.86369  0.24771  1.0000
  C   C83       1.0  0.26759  0.82897  0.33775  1.0000
  C   C84       1.0  0.23315  0.81669  0.33767  1.0000
  C   C85       1.0  0.23811  0.83052  0.28050  1.0000
  C   C86       1.0  0.25545  0.83666  0.27810  1.0000
  C   C87       1.0  0.26107  0.85006  0.21969  1.0000
  C   C88       1.0  0.27847  0.85600  0.22218  1.0000
  H   H38       1.0  0.22896  0.83609  0.23972  1.0000
  O   O15       1.0  0.24982  0.85761  0.16091  1.0000
  H   H39       1.0  0.25033  0.85060  0.10581  1.0000
  O   O16       1.0  0.28334  0.86901  0.16564  1.0000
  H   H40       1.0  0.28751  0.86331  0.11065  1.0000
  C   C89       1.0  0.82997  0.31246  0.29392  1.0000
  N   N9        1.0  0.82556  0.29558  0.30304  1.0000
  C   C90       1.0  0.80844  0.24501  0.31975  1.0000
  H   H41       1.0  0.82230  0.32000  0.25378  1.0000
  N   N10       1.0  0.81447  0.26153  0.31724  1.0000
  H   H42       1.0  0.79767  0.24205  0.28264  1.0000
  C   C91       1.0  0.17468  0.69206  0.27811  1.0000
  N   N11       1.0  0.17936  0.70886  0.28842  1.0000
  C   C92       1.0  0.19725  0.75919  0.30925  1.0000
  H   H43       1.0  0.18186  0.68463  0.23512  1.0000
  N   N12       1.0  0.19101  0.74275  0.30536  1.0000
  H   H44       1.0  0.20768  0.76234  0.27005  1.0000
  C   C93       1.0  0.31270  0.17512  0.28270  1.0000
  N   N13       1.0  0.29581  0.17953  0.29205  1.0000
  C   C94       1.0  0.24514  0.19659  0.30990  1.0000
  H   H45       1.0  0.32013  0.18248  0.24044  1.0000
  N   N14       1.0  0.26169  0.19060  0.30689  1.0000
  H   H46       1.0  0.24195  0.20705  0.27104  1.0000
  C   C95       1.0  0.69237  0.83050  0.28903  1.0000
  N   N15       1.0  0.70917  0.82584  0.29897  1.0000
  C   C96       1.0  0.75941  0.80792  0.31839  1.0000
  H   H47       1.0  0.68481  0.82298  0.24825  1.0000
  N   N16       1.0  0.74299  0.81421  0.31507  1.0000
  H   H48       1.0  0.76230  0.79718  0.28101  1.0000
  C   C97       1.0  0.37015  0.12204  0.32898  1.0000
  C   C98       1.0  0.38357  0.08755  0.32095  1.0000
  C   C99       1.0  0.39336  0.10151  0.28403  1.0000
  C   C100      1.0  0.38652  0.11857  0.28958  1.0000
  H   H49       1.0  0.39340  0.12862  0.26202  1.0000
  C   C101      1.0  0.39016  0.07033  0.31800  1.0000
  C   C102      1.0  0.40394  0.03592  0.31849  1.0000
  C   C103      1.0  0.41311  0.04993  0.27867  1.0000
  C   C104      1.0  0.40657  0.06710  0.27769  1.0000
  C   C105      1.0  0.41605  0.08097  0.23893  1.0000
  C   C106      1.0  0.40950  0.09807  0.24219  1.0000
  H   H50       1.0  0.42498  0.04764  0.25013  1.0000
  O   O17       1.0  0.43191  0.07830  0.20063  1.0000
  H   H51       1.0  0.42968  0.07562  0.13718  1.0000
  O   O18       1.0  0.41927  0.11113  0.20662  1.0000
  H   H52       1.0  0.41564  0.11223  0.14362  1.0000
  C   C107      1.0  0.63555  0.88465  0.32780  1.0000
  C   C108      1.0  0.62236  0.91922  0.31762  1.0000
  C   C109      1.0  0.61247  0.90524  0.28159  1.0000
  C   C110      1.0  0.61920  0.88814  0.28820  1.0000
  H   H53       1.0  0.61224  0.87809  0.26133  1.0000
  C   C111      1.0  0.61587  0.93647  0.31378  1.0000
  C   C112      1.0  0.60225  0.97095  0.31315  1.0000
  C   C113      1.0  0.59303  0.95694  0.27366  1.0000
  C   C114      1.0  0.59947  0.93973  0.27335  1.0000
  C   C115      1.0  0.58989  0.92584  0.23550  1.0000
  C   C116      1.0  0.59633  0.90870  0.23974  1.0000
  H   H54       1.0  0.58115  0.95924  0.24528  1.0000
  O   O19       1.0  0.57400  0.92851  0.19750  1.0000
  H   H55       1.0  0.57618  0.93108  0.13388  1.0000
  O   O20       1.0  0.58644  0.89562  0.20524  1.0000
  H   H56       1.0  0.59000  0.89435  0.14223  1.0000
  C   C117      1.0  0.88383  0.36957  0.33380  1.0000
  C   C118      1.0  0.91831  0.38300  0.32452  1.0000
  C   C119      1.0  0.90430  0.39274  0.28763  1.0000
  C   C120      1.0  0.88726  0.38590  0.29381  1.0000
  H   H57       1.0  0.87719  0.39276  0.26633  1.0000
  C   C121      1.0  0.93552  0.38962  0.32109  1.0000
  C   C122      1.0  0.96989  0.40348  0.32073  1.0000
  C   C123      1.0  0.95584  0.41258  0.28093  1.0000
  C   C124      1.0  0.93869  0.40600  0.28034  1.0000
  C   C125      1.0  0.92478  0.41543  0.24157  1.0000
  C   C126      1.0  0.90770  0.40885  0.24532  1.0000
  H   H58       1.0  0.95809  0.42443  0.25206  1.0000
  O   O21       1.0  0.92739  0.43126  0.20289  1.0000
  H   H59       1.0  0.93004  0.42898  0.13944  1.0000
  O   O22       1.0  0.89460  0.41857  0.20978  1.0000
  H   H60       1.0  0.89345  0.41488  0.14691  1.0000
  C   C127      1.0  0.12123  0.63493  0.32294  1.0000
  C   C128      1.0  0.08664  0.62177  0.31405  1.0000
  C   C129      1.0  0.10058  0.61183  0.27794  1.0000
  C   C130      1.0  0.11769  0.61854  0.28394  1.0000
  H   H61       1.0  0.12771  0.61156  0.25689  1.0000
  C   C131      1.0  0.06937  0.61531  0.31070  1.0000
  C   C132      1.0  0.03485  0.60179  0.31092  1.0000
  C   C133      1.0  0.04883  0.59250  0.27138  1.0000
  C   C134      1.0  0.06605  0.59890  0.27067  1.0000
  C   C135      1.0  0.07989  0.58925  0.23278  1.0000
  C   C136      1.0  0.09705  0.59566  0.23655  1.0000
  H   H62       1.0  0.04648  0.58060  0.24329  1.0000
  O   O23       1.0  0.07716  0.57334  0.19516  1.0000
  H   H63       1.0  0.07455  0.57548  0.13154  1.0000
  O   O24       1.0  0.11008  0.58571  0.20196  1.0000
  H   H64       1.0  0.11130  0.58922  0.13884  1.0000
  C   C137      1.0  0.64471  0.10694  0.31168  1.0000
  N   N17       1.0  0.63794  0.09064  0.31666  1.0000
  C   C138      1.0  0.61872  0.03937  0.31994  1.0000
  H   H65       1.0  0.65656  0.10843  0.28178  1.0000
  N   N18       1.0  0.62472  0.05604  0.32148  1.0000
  H   H66       1.0  0.62601  0.03013  0.28825  1.0000
  C   C139      1.0  0.36080  0.89964  0.31033  1.0000
  N   N19       1.0  0.36766  0.91592  0.31398  1.0000
  C   C140      1.0  0.38708  0.96724  0.31531  1.0000
  H   H67       1.0  0.34880  0.89817  0.28217  1.0000
  N   N20       1.0  0.38105  0.95058  0.31709  1.0000
  H   H68       1.0  0.37966  0.97656  0.28512  1.0000
  C   C141      1.0  0.10611  0.36038  0.31077  1.0000
  N   N21       1.0  0.08984  0.36726  0.31457  1.0000
  C   C142      1.0  0.03854  0.38670  0.31650  1.0000
  H   H69       1.0  0.10754  0.34835  0.28283  1.0000
  N   N22       1.0  0.05521  0.38066  0.31808  1.0000
  H   H70       1.0  0.02919  0.37926  0.28671  1.0000
  C   C143      1.0  0.89879  0.64428  0.31145  1.0000
  N   N23       1.0  0.91511  0.63754  0.31624  1.0000
  C   C144      1.0  0.96641  0.61836  0.31880  1.0000
  H   H71       1.0  0.89725  0.65610  0.28131  1.0000
  N   N24       1.0  0.94974  0.62435  0.32056  1.0000
  H   H72       1.0  0.97562  0.62560  0.28657  1.0000
  C   C145      1.0  0.54887  0.00317  0.32131  1.0000
  C   C146      1.0  0.51211  0.00295  0.31571  1.0000
  C   C147      1.0  0.52138  0.98854  0.28035  1.0000
  C   C148      1.0  0.53974  0.98889  0.28427  1.0000
  H   H73       1.0  0.54658  0.97857  0.25917  1.0000
  C   C149      1.0  0.49375  0.00294  0.31583  1.0000
  C   C150      1.0  0.45705  0.00317  0.32192  1.0000
  C   C151      1.0  0.46610  0.98874  0.28608  1.0000
  C   C152      1.0  0.48446  0.98846  0.28126  1.0000
  C   C153      1.0  0.49373  0.97435  0.24357  1.0000
  C   C154      1.0  0.51208  0.97440  0.24292  1.0000
  H   H74       1.0  0.45918  0.97841  0.26171  1.0000
  O   O25       1.0  0.48524  0.96029  0.20944  1.0000
  H   H75       1.0  0.48309  0.96291  0.14586  1.0000
  O   O26       1.0  0.52055  0.96038  0.20830  1.0000
  H   H76       1.0  0.52262  0.96304  0.14467  1.0000
  C   C155      1.0  0.00257  0.54847  0.32047  1.0000
  C   C156      1.0  0.00278  0.51171  0.31542  1.0000
  C   C157      1.0  0.01718  0.52095  0.27981  1.0000
  C   C158      1.0  0.01684  0.53932  0.28346  1.0000
  H   H77       1.0  0.02715  0.54614  0.25819  1.0000
  C   C159      1.0  0.00279  0.49335  0.31581  1.0000
  C   C160      1.0  0.00258  0.45665  0.32252  1.0000
  C   C161      1.0  0.01699  0.46568  0.28639  1.0000
  C   C162      1.0  0.01726  0.48404  0.28130  1.0000
  C   C163      1.0  0.03137  0.49329  0.24337  1.0000
  C   C164      1.0  0.03131  0.51164  0.24245  1.0000
  H   H78       1.0  0.02732  0.45875  0.26210  1.0000
  O   O27       1.0  0.04542  0.48479  0.20931  1.0000
  H   H79       1.0  0.04279  0.48259  0.14577  1.0000
  O   O28       1.0  0.04533  0.52009  0.20763  1.0000
  H   H80       1.0  0.04266  0.52213  0.14399  1.0000
  C   C165      1.0  0.25532  0.41757  0.32818  1.0000
  N   N25       1.0  0.23903  0.41089  0.33596  1.0000
  C   C166      1.0  0.18820  0.39065  0.33945  1.0000
  H   H81       1.0  0.25696  0.42865  0.29143  1.0000
  N   N26       1.0  0.20468  0.39714  0.34179  1.0000
  H   H82       1.0  0.17913  0.39678  0.30071  1.0000
  C   C167      1.0  0.74918  0.58785  0.32627  1.0000
  N   N27       1.0  0.76556  0.59428  0.33445  1.0000
  C   C168      1.0  0.81661  0.61384  0.33848  1.0000
  H   H83       1.0  0.74737  0.57689  0.28873  1.0000
  N   N28       1.0  0.80006  0.60754  0.34077  1.0000
  H   H84       1.0  0.82553  0.60780  0.29844  1.0000
  C   C169      1.0  0.58772  0.25626  0.32768  1.0000
  N   N29       1.0  0.59429  0.23993  0.33554  1.0000
  C   C170      1.0  0.61429  0.18904  0.33859  1.0000
  H   H85       1.0  0.57668  0.25798  0.29061  1.0000
  N   N30       1.0  0.60786  0.20553  0.34121  1.0000
  H   H86       1.0  0.60820  0.18004  0.29923  1.0000
  C   C171      1.0  0.41743  0.75014  0.32666  1.0000
  N   N31       1.0  0.41089  0.76648  0.33473  1.0000
  C   C172      1.0  0.39103  0.81745  0.33893  1.0000
  H   H87       1.0  0.42845  0.74841  0.28950  1.0000
  N   N32       1.0  0.39741  0.80093  0.34108  1.0000
  H   H88       1.0  0.39713  0.82646  0.29965  1.0000
  C   C173      1.0  0.73498  0.40914  0.31817  1.0000
  C   C174      1.0  0.76945  0.39659  0.29935  1.0000
  C   C175      1.0  0.75564  0.38791  0.25441  1.0000
  C   C176      1.0  0.73852  0.39426  0.26560  1.0000
  H   H89       1.0  0.72845  0.38807  0.23410  1.0000
  C   C177      1.0  0.78661  0.38997  0.29450  1.0000
  C   C178      1.0  0.82037  0.37518  0.29795  1.0000
  C   C179      1.0  0.80690  0.36763  0.24622  1.0000
  C   C180      1.0  0.78997  0.37471  0.24378  1.0000
  C   C181      1.0  0.77635  0.36660  0.19558  1.0000
  C   C182      1.0  0.75927  0.37314  0.20109  1.0000
  H   H90       1.0  0.80931  0.35631  0.21235  1.0000
  O   O29       1.0  0.77915  0.35183  0.14723  1.0000
  H   H91       1.0  0.78257  0.35566  0.08683  1.0000
  O   O30       1.0  0.74635  0.36446  0.15748  1.0000
  H   H92       1.0  0.74540  0.36988  0.09793  1.0000
  C   C183      1.0  0.27058  0.59658  0.31589  1.0000
  C   C184      1.0  0.23601  0.60866  0.29402  1.0000
  C   C185      1.0  0.24983  0.61743  0.24968  1.0000
  C   C186      1.0  0.26700  0.61133  0.26243  1.0000
  H   H93       1.0  0.27708  0.61756  0.23118  1.0000
  C   C187      1.0  0.21877  0.61502  0.28738  1.0000
  C   C188      1.0  0.18482  0.62935  0.28732  1.0000
  C   C189      1.0  0.19832  0.63692  0.23589  1.0000
  C   C190      1.0  0.21535  0.63009  0.23533  1.0000
  C   C191      1.0  0.22900  0.63831  0.18785  1.0000
  C   C192      1.0  0.24617  0.63204  0.19526  1.0000
  H   H94       1.0  0.19586  0.64814  0.20115  1.0000
  O   O31       1.0  0.22615  0.65293  0.13845  1.0000
  H   H95       1.0  0.22299  0.64893  0.07797  1.0000
  O   O32       1.0  0.25910  0.64081  0.15226  1.0000
  H   H96       1.0  0.26030  0.63531  0.09305  1.0000
  C   C193      1.0  0.40895  0.27108  0.31645  1.0000
  C   C194      1.0  0.39662  0.23656  0.29600  1.0000
  C   C195      1.0  0.38792  0.25039  0.25129  1.0000
  C   C196      1.0  0.39416  0.26753  0.26330  1.0000
  H   H97       1.0  0.38795  0.27760  0.23193  1.0000
  C   C197      1.0  0.39011  0.21937  0.29025  1.0000
  C   C198      1.0  0.37550  0.18554  0.29203  1.0000
  C   C199      1.0  0.36795  0.19902  0.24038  1.0000
  C   C200      1.0  0.37493  0.21599  0.23887  1.0000
  C   C201      1.0  0.36680  0.22964  0.19094  1.0000
  C   C202      1.0  0.37323  0.24675  0.19734  1.0000
  H   H98       1.0  0.35668  0.19660  0.20608  1.0000
  O   O33       1.0  0.35212  0.22682  0.14196  1.0000
  H   H99       1.0  0.35604  0.22352  0.08155  1.0000
  O   O34       1.0  0.36453  0.25968  0.15396  1.0000
  H   H100      1.0  0.37001  0.26076  0.09463  1.0000
  C   C203      1.0  0.59641  0.73550  0.31753  1.0000
  C   C204      1.0  0.60871  0.77003  0.29737  1.0000
  C   C205      1.0  0.61745  0.75622  0.25273  1.0000
  C   C206      1.0  0.61123  0.73907  0.26462  1.0000
  H   H101      1.0  0.61745  0.72901  0.23323  1.0000
  C   C207      1.0  0.61520  0.78724  0.29168  1.0000
  C   C208      1.0  0.62976  0.82109  0.29354  1.0000
  C   C209      1.0  0.63733  0.80762  0.24194  1.0000
  C   C210      1.0  0.63037  0.79064  0.24036  1.0000
  C   C211      1.0  0.63855  0.77701  0.19252  1.0000
  C   C212      1.0  0.63215  0.75988  0.19893  1.0000
  H   H102      1.0  0.64860  0.81006  0.20763  1.0000
  O   O35       1.0  0.65325  0.77984  0.14376  1.0000
  H   H103      1.0  0.64936  0.78313  0.08329  1.0000
  O   O36       1.0  0.64089  0.74696  0.15568  1.0000
  H   H104      1.0  0.63545  0.74588  0.09626  1.0000
  C   C213      1.0  0.31033  0.54906  0.35083  1.0000
  C   C214      1.0  0.31077  0.51234  0.34947  1.0000
  C   C215      1.0  0.31734  0.52153  0.27401  1.0000
  C   C216      1.0  0.31719  0.53996  0.27648  1.0000
  H   H105      1.0  0.32139  0.54688  0.22192  1.0000
  C   C217      1.0  0.31053  0.49395  0.34987  1.0000
  C   C218      1.0  0.30919  0.45724  0.35314  1.0000
  C   C219      1.0  0.31638  0.46601  0.27858  1.0000
  C   C220      1.0  0.31691  0.48443  0.27500  1.0000
  C   C221      1.0  0.32305  0.49364  0.19906  1.0000
  C   C222      1.0  0.32325  0.51202  0.19853  1.0000
  H   H106      1.0  0.32056  0.45886  0.22476  1.0000
  O   O37       1.0  0.32893  0.48501  0.12529  1.0000
  H   H107      1.0  0.31877  0.48330  0.08623  1.0000
  O   O38       1.0  0.32930  0.52036  0.12425  1.0000
  H   H108      1.0  0.31918  0.52218  0.08505  1.0000
  C   C223      1.0  0.69524  0.45683  0.35049  1.0000
  C   C224      1.0  0.69432  0.49353  0.34913  1.0000
  C   C225      1.0  0.68867  0.48427  0.27193  1.0000
  C   C226      1.0  0.68905  0.46585  0.27437  1.0000
  H   H109      1.0  0.68548  0.45889  0.21876  1.0000
  C   C227      1.0  0.69429  0.51192  0.34962  1.0000
  C   C228      1.0  0.69514  0.54863  0.35314  1.0000
  C   C229      1.0  0.68889  0.53978  0.27662  1.0000
  C   C230      1.0  0.68858  0.52136  0.27305  1.0000
  C   C231      1.0  0.68335  0.51208  0.19553  1.0000
  C   C232      1.0  0.68340  0.49370  0.19496  1.0000
  H   H110      1.0  0.68527  0.54688  0.22157  1.0000
  O   O39       1.0  0.67810  0.52065  0.12030  1.0000
  H   H111      1.0  0.68861  0.52246  0.08389  1.0000
  O   O40       1.0  0.67819  0.48529  0.11919  1.0000
  H   H112      1.0  0.68871  0.48362  0.08267  1.0000
  C   C233      1.0  0.45650  0.31087  0.35046  1.0000
  C   C234      1.0  0.49321  0.31154  0.34925  1.0000
  C   C235      1.0  0.48400  0.31730  0.27209  1.0000
  C   C236      1.0  0.46558  0.31703  0.27442  1.0000
  H   H113      1.0  0.45865  0.32067  0.21882  1.0000
  C   C237      1.0  0.51160  0.31143  0.34978  1.0000
  C   C238      1.0  0.54830  0.31027  0.35333  1.0000
  C   C239      1.0  0.53951  0.31668  0.27697  1.0000
  C   C240      1.0  0.52109  0.31711  0.27333  1.0000
  C   C241      1.0  0.51186  0.32247  0.19589  1.0000
  C   C242      1.0  0.49348  0.32254  0.19524  1.0000
  H   H114      1.0  0.54664  0.32031  0.22203  1.0000
  O   O41       1.0  0.52047  0.32770  0.12076  1.0000
  H   H115      1.0  0.52222  0.31720  0.08421  1.0000
  O   O42       1.0  0.48512  0.32785  0.11951  1.0000
  H   H116      1.0  0.48339  0.31737  0.08282  1.0000
  C   C243      1.0  0.54873  0.69582  0.35066  1.0000
  C   C244      1.0  0.51202  0.69509  0.34923  1.0000
  C   C245      1.0  0.52126  0.68872  0.27350  1.0000
  C   C246      1.0  0.53969  0.68900  0.27601  1.0000
  H   H117      1.0  0.54665  0.68491  0.22134  1.0000
  C   C247      1.0  0.49363  0.69518  0.34962  1.0000
  C   C248      1.0  0.45692  0.69625  0.35283  1.0000
  C   C249      1.0  0.46574  0.68927  0.27792  1.0000
  C   C250      1.0  0.48417  0.68886  0.27442  1.0000
  C   C251      1.0  0.49343  0.68292  0.19822  1.0000
  C   C252      1.0  0.51181  0.68286  0.19774  1.0000
  H   H118      1.0  0.45863  0.68516  0.22385  1.0000
  O   O43       1.0  0.48485  0.67710  0.12416  1.0000
  H   H119      1.0  0.48308  0.68731  0.08553  1.0000
  O   O44       1.0  0.52021  0.67699  0.12322  1.0000
  H   H120      1.0  0.52195  0.68719  0.08448  1.0000
  C   C253      1.0  0.32983  0.38192  0.29970  1.0000
  N   N33       1.0  0.34290  0.37005  0.29987  1.0000
  C   C254      1.0  0.38090  0.33142  0.29113  1.0000
  H   H121      1.0  0.31894  0.37924  0.26304  1.0000
  N   N34       1.0  0.36893  0.34435  0.29534  1.0000
  H   H122      1.0  0.37810  0.32078  0.25280  1.0000
  C   C255      1.0  0.67496  0.62406  0.29940  1.0000
  N   N35       1.0  0.66199  0.63603  0.29960  1.0000
  C   C256      1.0  0.62422  0.67493  0.29082  1.0000
  H   H123      1.0  0.68583  0.62662  0.26239  1.0000
  N   N36       1.0  0.63612  0.66192  0.29507  1.0000
  H   H124      1.0  0.62705  0.68551  0.25211  1.0000
  C   C257      1.0  0.62366  0.33058  0.29982  1.0000
  N   N37       1.0  0.63561  0.34357  0.30007  1.0000
  C   C258      1.0  0.67446  0.38136  0.29143  1.0000
  H   H125      1.0  0.62624  0.31972  0.26277  1.0000
  N   N38       1.0  0.66146  0.36945  0.29565  1.0000
  H   H126      1.0  0.68505  0.37854  0.25272  1.0000
  C   C259      1.0  0.38153  0.67572  0.29935  1.0000
  N   N39       1.0  0.36965  0.66267  0.29948  1.0000
  C   C260      1.0  0.33097  0.62468  0.29057  1.0000
  H   H127      1.0  0.37885  0.68663  0.26277  1.0000
  N   N40       1.0  0.34391  0.63665  0.29482  1.0000
  H   H128      1.0  0.32033  0.62750  0.25227  1.0000
  C   C261      1.0  0.06628  0.08637  0.34122  1.0000
  N   N41       1.0  0.07865  0.09816  0.36401  1.0000
  C   C262      1.0  0.09570  0.09348  0.37156  1.0000
  N   N42       1.0  0.10013  0.07658  0.35623  1.0000
  C   C263      1.0  0.08801  0.06455  0.33375  1.0000
  N   N43       1.0  0.07128  0.06977  0.32568  1.0000
  C   C264      1.0  0.93993  0.91631  0.30945  1.0000
  N   N44       1.0  0.92808  0.90428  0.33539  1.0000
  C   C265      1.0  0.91124  0.90871  0.35249  1.0000
  N   N45       1.0  0.90644  0.92569  0.34343  1.0000
  C   C266      1.0  0.91801  0.93800  0.31721  1.0000
  N   N46       1.0  0.93455  0.93296  0.30058  1.0000
  C   C267      1.0  0.91800  0.06442  0.33398  1.0000
  N   N47       1.0  0.90587  0.07643  0.35640  1.0000
  C   C268      1.0  0.91024  0.09335  0.37143  1.0000
  N   N48       1.0  0.92728  0.09805  0.36373  1.0000
  C   C269      1.0  0.93968  0.08629  0.34105  1.0000
  N   N49       1.0  0.93472  0.06967  0.32577  1.0000
  C   C270      1.0  0.08817  0.93812  0.31687  1.0000
  N   N50       1.0  0.09975  0.92580  0.34298  1.0000
  C   C271      1.0  0.09494  0.90882  0.35191  1.0000
  N   N51       1.0  0.07810  0.90439  0.33482  1.0000
  C   C272      1.0  0.06624  0.91643  0.30909  1.0000
  N   N52       1.0  0.07162  0.93308  0.30029  1.0000
  C   C273      1.0  0.21484  0.19309  0.35987  1.0000
  N   N53       1.0  0.21001  0.21001  0.34959  1.0000
  C   C274      1.0  0.19296  0.21468  0.34535  1.0000
  N   N54       1.0  0.18068  0.20209  0.35264  1.0000
  C   C275      1.0  0.18502  0.18511  0.36296  1.0000
  N   N55       1.0  0.20214  0.18090  0.36618  1.0000
  C   C276      1.0  0.78998  0.81134  0.36395  1.0000
  N   N56       1.0  0.79461  0.79451  0.34849  1.0000
  C   C277      1.0  0.81156  0.78972  0.33945  1.0000
  N   N57       1.0  0.82394  0.80221  0.34673  1.0000
  C   C278      1.0  0.81993  0.81911  0.36283  1.0000
  N   N58       1.0  0.80287  0.82330  0.37103  1.0000
  C   C279      1.0  0.81224  0.21442  0.36415  1.0000
  N   N59       1.0  0.79545  0.20968  0.34905  1.0000
  C   C280      1.0  0.79072  0.19271  0.34055  1.0000
  N   N60       1.0  0.80326  0.18037  0.34803  1.0000
  C   C281      1.0  0.82016  0.18449  0.36386  1.0000
  N   N61       1.0  0.82426  0.20159  0.37159  1.0000
  C   C282      1.0  0.19408  0.78947  0.36023  1.0000
  N   N62       1.0  0.21099  0.79430  0.34972  1.0000
  C   C283      1.0  0.21563  0.81136  0.34507  1.0000
  N   N63       1.0  0.20302  0.82362  0.35205  1.0000
  C   C284      1.0  0.18606  0.81927  0.36253  1.0000
  N   N64       1.0  0.18187  0.80216  0.36611  1.0000
  C   C285      1.0  0.41170  0.98806  0.33980  1.0000
  N   N65       1.0  0.40307  0.00363  0.33406  1.0000
  C   C286      1.0  0.41181  0.01907  0.32493  1.0000
  N   N66       1.0  0.42948  0.01836  0.32236  1.0000
  C   C287      1.0  0.43862  0.00337  0.32662  1.0000
  N   N67       1.0  0.42935  0.98852  0.33486  1.0000
  C   C288      1.0  0.59421  0.01857  0.34443  1.0000
  N   N68       1.0  0.60295  0.00315  0.33454  1.0000
  C   C289      1.0  0.59434  0.98778  0.32089  1.0000
  N   N69       1.0  0.57670  0.98850  0.31731  1.0000
  C   C290      1.0  0.56736  0.00331  0.32620  1.0000
  N   N70       1.0  0.57654  0.01808  0.33978  1.0000
  C   C291      1.0  0.01775  0.41132  0.34091  1.0000
  N   N71       1.0  0.00219  0.40267  0.33567  1.0000
  C   C292      1.0  0.98673  0.41139  0.32672  1.0000
  N   N72       1.0  0.98741  0.42906  0.32378  1.0000
  C   C293      1.0  0.00239  0.43822  0.32757  1.0000
  N   N73       1.0  0.01726  0.42897  0.33569  1.0000
  C   C294      1.0  0.98723  0.59385  0.34322  1.0000
  N   N74       1.0  0.00266  0.60256  0.33295  1.0000
  C   C295      1.0  0.01801  0.59393  0.31910  1.0000
  N   N75       1.0  0.01725  0.57628  0.31580  1.0000
  C   C296      1.0  0.00245  0.56697  0.32509  1.0000
  N   N76       1.0  0.98769  0.57618  0.33884  1.0000
  C   C297      1.0  0.31755  0.41002  0.34950  1.0000
  N   N77       1.0  0.32027  0.42756  0.34907  1.0000
  C   C298      1.0  0.30676  0.43900  0.35304  1.0000
  N   N78       1.0  0.29030  0.43266  0.35788  1.0000
  C   C299      1.0  0.28700  0.41532  0.35845  1.0000
  N   N79       1.0  0.30082  0.40430  0.35457  1.0000
  C   C300      1.0  0.68708  0.59591  0.34959  1.0000
  N   N80       1.0  0.68420  0.57839  0.34934  1.0000
  C   C301      1.0  0.69764  0.56685  0.35296  1.0000
  N   N81       1.0  0.71415  0.57305  0.35725  1.0000
  C   C302      1.0  0.71759  0.59036  0.35770  1.0000
  N   N82       1.0  0.70385  0.60150  0.35421  1.0000
  C   C303      1.0  0.59554  0.31841  0.35010  1.0000
  N   N83       1.0  0.57803  0.32124  0.34969  1.0000
  C   C304      1.0  0.56652  0.30778  0.35341  1.0000
  N   N84       1.0  0.57276  0.29128  0.35798  1.0000
  C   C305      1.0  0.59008  0.28789  0.35860  1.0000
  N   N85       1.0  0.60118  0.30166  0.35495  1.0000
  C   C306      1.0  0.40967  0.68796  0.34907  1.0000
  N   N86       1.0  0.42720  0.68519  0.34875  1.0000
  C   C307      1.0  0.43868  0.69868  0.35257  1.0000
  N   N87       1.0  0.43238  0.71515  0.35711  1.0000
  C   C308      1.0  0.41505  0.71850  0.35756  1.0000
  N   N88       1.0  0.40399  0.70471  0.35388  1.0000
  C   C309      1.0  0.68711  0.40970  0.33661  1.0000
  N   N89       1.0  0.68436  0.42714  0.34597  1.0000
  C   C310      1.0  0.69782  0.43865  0.34803  1.0000
  N   N90       1.0  0.71430  0.43252  0.33981  1.0000
  C   C311      1.0  0.71766  0.41531  0.32928  1.0000
  N   N91       1.0  0.70386  0.40423  0.32739  1.0000
  C   C312      1.0  0.31847  0.59623  0.33527  1.0000
  N   N92       1.0  0.32125  0.57880  0.34516  1.0000
  C   C313      1.0  0.30781  0.56726  0.34746  1.0000
  N   N93       1.0  0.29132  0.57335  0.33894  1.0000
  C   C314      1.0  0.28792  0.59054  0.32779  1.0000
  N   N94       1.0  0.30171  0.60164  0.32568  1.0000
  C   C315      1.0  0.40935  0.31894  0.33594  1.0000
  N   N95       1.0  0.42678  0.32173  0.34561  1.0000
  C   C316      1.0  0.43832  0.30829  0.34758  1.0000
  N   N96       1.0  0.43224  0.29180  0.33899  1.0000
  C   C317      1.0  0.41505  0.28840  0.32814  1.0000
  N   N97       1.0  0.40394  0.30218  0.32631  1.0000
  C   C318      1.0  0.59587  0.68761  0.33592  1.0000
  N   N98       1.0  0.57843  0.68487  0.34542  1.0000
  C   C319      1.0  0.56693  0.69834  0.34769  1.0000
  N   N99       1.0  0.57308  0.71481  0.33958  1.0000
  C   C320      1.0  0.59028  0.71817  0.32883  1.0000
  N   N100      1.0  0.60135  0.70436  0.32670  1.0000
  C   C321      1.0  0.16845  0.36553  0.36825  1.0000
  N   N101      1.0  0.15226  0.37251  0.35898  1.0000
  C   C322      1.0  0.13782  0.36237  0.34545  1.0000
  N   N102      1.0  0.14009  0.34476  0.34092  1.0000
  C   C323      1.0  0.15602  0.33731  0.35014  1.0000
  N   N103      1.0  0.16968  0.34802  0.36356  1.0000
  C   C324      1.0  0.83649  0.63881  0.36751  1.0000
  N   N104      1.0  0.85277  0.63197  0.36001  1.0000
  C   C325      1.0  0.86711  0.64223  0.34614  1.0000
  N   N105      1.0  0.86466  0.65980  0.33962  1.0000
  C   C326      1.0  0.84862  0.66711  0.34698  1.0000
  N   N106      1.0  0.83508  0.65626  0.36067  1.0000
  C   C327      1.0  0.63939  0.16928  0.36694  1.0000
  N   N107      1.0  0.63250  0.15302  0.35955  1.0000
  C   C328      1.0  0.64271  0.13864  0.34579  1.0000
  N   N108      1.0  0.66028  0.14104  0.33920  1.0000
  C   C329      1.0  0.66765  0.15705  0.34640  1.0000
  N   N109      1.0  0.65685  0.17063  0.36010  1.0000
  C   C330      1.0  0.36604  0.83733  0.36847  1.0000
  N   N110      1.0  0.37299  0.85353  0.35904  1.0000
  C   C331      1.0  0.36281  0.86795  0.34556  1.0000
  N   N111      1.0  0.34520  0.86565  0.34129  1.0000
  C   C332      1.0  0.33779  0.84971  0.35073  1.0000
  N   N112      1.0  0.34854  0.83608  0.36396  1.0000
  C   C333      1.0  0.83603  0.36577  0.31280  1.0000
  N   N113      1.0  0.85229  0.37261  0.32014  1.0000
  C   C334      1.0  0.86665  0.36240  0.33430  1.0000
  N   N114      1.0  0.86419  0.34485  0.34166  1.0000
  C   C335      1.0  0.84815  0.33750  0.33459  1.0000
  N   N115      1.0  0.83459  0.34832  0.32030  1.0000
  C   C336      1.0  0.16907  0.63870  0.30108  1.0000
  N   N116      1.0  0.15281  0.63183  0.30894  1.0000
  C   C337      1.0  0.13845  0.64205  0.32284  1.0000
  N   N117      1.0  0.14089  0.65961  0.32959  1.0000
  C   C338      1.0  0.15691  0.66695  0.32190  1.0000
  N   N118      1.0  0.17049  0.65615  0.30794  1.0000
  C   C339      1.0  0.36614  0.16981  0.30611  1.0000
  N   N119      1.0  0.37308  0.15359  0.31444  1.0000
  C   C340      1.0  0.36292  0.13920  0.32851  1.0000
  N   N120      1.0  0.34535  0.14156  0.33490  1.0000
  C   C341      1.0  0.33793  0.15754  0.32676  1.0000
  N   N121      1.0  0.34867  0.17116  0.31259  1.0000
  C   C342      1.0  0.63915  0.83680  0.30799  1.0000
  N   N122      1.0  0.63236  0.85309  0.31485  1.0000
  C   C343      1.0  0.64263  0.86742  0.32871  1.0000
  N   N123      1.0  0.66017  0.86490  0.33630  1.0000
  C   C344      1.0  0.66745  0.84882  0.32969  1.0000
  N   N124      1.0  0.65658  0.83530  0.31573  1.0000
  C   C345      1.0  0.17212  0.17212  0.37126  1.0000
  C   C346      1.0  0.14677  0.14591  0.38525  1.0000
  C   C347      1.0  0.14318  0.16254  0.42203  1.0000
  C   C348      1.0  0.15601  0.17558  0.41336  1.0000
  H   H129      1.0  0.15373  0.18770  0.43923  1.0000
  C   C349      1.0  0.13411  0.13270  0.38839  1.0000
  C   C350      1.0  0.10874  0.10631  0.38377  1.0000
  C   C351      1.0  0.10508  0.12250  0.42462  1.0000
  C   C352      1.0  0.11767  0.13588  0.42826  1.0000
  C   C353      1.0  0.11436  0.15224  0.46828  1.0000
  C   C354      1.0  0.12705  0.16550  0.46522  1.0000
  H   H130      1.0  0.09299  0.12465  0.45105  1.0000
  O   O45       1.0  0.09877  0.15574  0.50753  1.0000
  H   H131      1.0  0.09987  0.15207  0.57046  1.0000
  O   O46       1.0  0.12322  0.18126  0.50179  1.0000
  H   H132      1.0  0.12738  0.18082  0.56413  1.0000
  C   C355      1.0  0.83305  0.83198  0.37053  1.0000
  C   C356      1.0  0.85925  0.85749  0.38020  1.0000
  C   C357      1.0  0.84263  0.86128  0.41651  1.0000
  C   C358      1.0  0.82967  0.84832  0.41067  1.0000
  H   H133      1.0  0.81758  0.85084  0.43616  1.0000
  C   C359      1.0  0.87240  0.87021  0.38048  1.0000
  C   C360      1.0  0.89857  0.89569  0.36887  1.0000
  C   C361      1.0  0.88240  0.89961  0.40931  1.0000
  C   C362      1.0  0.86912  0.88698  0.41641  1.0000
  C   C363      1.0  0.85274  0.89056  0.45560  1.0000
  C   C364      1.0  0.83957  0.87776  0.45583  1.0000
  H   H134      1.0  0.88017  0.91192  0.43268  1.0000
  O   O47       1.0  0.84910  0.90651  0.49037  1.0000
  H   H135      1.0  0.85271  0.90609  0.55361  1.0000
  O   O48       1.0  0.82376  0.88187  0.49092  1.0000
  H   H136      1.0  0.82414  0.87831  0.55424  1.0000
  C   C365      1.0  0.83313  0.17147  0.37270  1.0000
  C   C366      1.0  0.85880  0.14545  0.38606  1.0000
  C   C367      1.0  0.86246  0.16225  0.42044  1.0000
  C   C368      1.0  0.84943  0.17511  0.41273  1.0000
  H   H137      1.0  0.85185  0.18731  0.43703  1.0000
  C   C369      1.0  0.87159  0.13235  0.38888  1.0000
  C   C370      1.0  0.89716  0.10614  0.38376  1.0000
  C   C371      1.0  0.90093  0.12259  0.42159  1.0000
  C   C372      1.0  0.88826  0.13588  0.42542  1.0000
  C   C373      1.0  0.89170  0.15249  0.46231  1.0000
  C   C374      1.0  0.87885  0.16559  0.46002  1.0000
  H   H138      1.0  0.91315  0.12498  0.44569  1.0000
  O   O49       1.0  0.90756  0.15637  0.49752  1.0000
  H   H139      1.0  0.90700  0.15313  0.56125  1.0000
  O   O50       1.0  0.88283  0.18160  0.49322  1.0000
  H   H140      1.0  0.87918  0.18150  0.55643  1.0000
  C   C375      1.0  0.17304  0.83215  0.36957  1.0000
  C   C376      1.0  0.14687  0.85756  0.37920  1.0000
  C   C377      1.0  0.16335  0.86121  0.41758  1.0000
  C   C378      1.0  0.17639  0.84833  0.41108  1.0000
  H   H141      1.0  0.18842  0.85066  0.43790  1.0000
  C   C379      1.0  0.13371  0.87027  0.37952  1.0000
  C   C380      1.0  0.10757  0.89576  0.36798  1.0000
  C   C381      1.0  0.12353  0.89950  0.41102  1.0000
  C   C382      1.0  0.13679  0.88685  0.41814  1.0000
  C   C383      1.0  0.15296  0.89021  0.46008  1.0000
  C   C384      1.0  0.16617  0.87746  0.45980  1.0000
  H   H142      1.0  0.12561  0.91169  0.43630  1.0000
  O   O51       1.0  0.15635  0.90592  0.49825  1.0000
  H   H143      1.0  0.15234  0.90508  0.56074  1.0000
  O   O52       1.0  0.18178  0.88135  0.49791  1.0000
  H   H144      1.0  0.18105  0.87737  0.56048  1.0000
  C   C385      1.0  0.10216  0.96529  0.36794  1.0000
  N   N125      1.0  0.10287  0.98290  0.36286  1.0000
  C   C386      1.0  0.10205  0.03700  0.37690  1.0000
  H   H145      1.0  0.10764  0.95926  0.42202  1.0000
  N   N126      1.0  0.10282  0.01947  0.36733  1.0000
  H   H146      1.0  0.10760  0.04253  0.43221  1.0000
  C   C387      1.0  0.90402  0.03685  0.37728  1.0000
  N   N127      1.0  0.90326  0.01932  0.36768  1.0000
  C   C388      1.0  0.90398  0.96515  0.36817  1.0000
  H   H147      1.0  0.89846  0.04238  0.43256  1.0000
  N   N128      1.0  0.90326  0.98276  0.36313  1.0000
  H   H148      1.0  0.89853  0.95911  0.42236  1.0000
  C   C389      1.0  0.03889  0.09951  0.39459  1.0000
  N   N129      1.0  0.02130  0.10029  0.38785  1.0000
  C   C390      1.0  0.96705  0.09944  0.39456  1.0000
  H   H149      1.0  0.04469  0.10414  0.45140  1.0000
  N   N130      1.0  0.98465  0.10026  0.38783  1.0000
  H   H150      1.0  0.96123  0.10410  0.45126  1.0000
  C   C391      1.0  0.96730  0.90144  0.34849  1.0000
  N   N131      1.0  0.98486  0.90080  0.34042  1.0000
  C   C392      1.0  0.03891  0.90148  0.34813  1.0000
  H   H151      1.0  0.96157  0.89495  0.40047  1.0000
  N   N132      1.0  0.02135  0.90084  0.34027  1.0000
  H   H152      1.0  0.04466  0.89505  0.40025  1.0000
  C   C393      1.0  0.17260  0.31234  0.40554  1.0000
  N   N133      1.0  0.17736  0.29548  0.39943  1.0000
  C   C394      1.0  0.19538  0.24509  0.39302  1.0000
  H   H153      1.0  0.17900  0.31995  0.45096  1.0000
  N   N134      1.0  0.18914  0.26155  0.39191  1.0000
  H   H154      1.0  0.20506  0.24208  0.43726  1.0000
  C   C395      1.0  0.83081  0.69186  0.39477  1.0000
  N   N135      1.0  0.82606  0.70869  0.38766  1.0000
  C   C396      1.0  0.80810  0.75898  0.37892  1.0000
  H   H155      1.0  0.82371  0.68415  0.43685  1.0000
  N   N136      1.0  0.81432  0.74253  0.37822  1.0000
  H   H156      1.0  0.79776  0.76174  0.41949  1.0000
  C   C397      1.0  0.69256  0.17465  0.39415  1.0000
  N   N137      1.0  0.70946  0.17916  0.38750  1.0000
  C   C398      1.0  0.76002  0.19637  0.38035  1.0000
  H   H157      1.0  0.68490  0.18185  0.43605  1.0000
  N   N138      1.0  0.74349  0.19037  0.37922  1.0000
  H   H158      1.0  0.76288  0.20669  0.42086  1.0000
  C   C399      1.0  0.31297  0.83292  0.40623  1.0000
  N   N139      1.0  0.29619  0.82795  0.39985  1.0000
  C   C400      1.0  0.24609  0.80917  0.39226  1.0000
  H   H159      1.0  0.32065  0.82658  0.45159  1.0000
  N   N140      1.0  0.26246  0.81565  0.39149  1.0000
  H   H160      1.0  0.24319  0.79944  0.43643  1.0000
  C   C401      1.0  0.84461  0.31939  0.33910  1.0000
  C   C402      1.0  0.83459  0.28426  0.35469  1.0000
  C   C403      1.0  0.84961  0.29007  0.40128  1.0000
  C   C404      1.0  0.85453  0.30776  0.39188  1.0000
  H   H161      1.0  0.86505  0.31240  0.42644  1.0000
  C   C405      1.0  0.82896  0.26688  0.36144  1.0000
  C   C406      1.0  0.81753  0.23209  0.36794  1.0000
  C   C407      1.0  0.83261  0.23736  0.41536  1.0000
  C   C408      1.0  0.83845  0.25480  0.41399  1.0000
  C   C409      1.0  0.85329  0.26059  0.46183  1.0000
  C   C410      1.0  0.85877  0.27811  0.45586  1.0000
  H   H162      1.0  0.83940  0.22835  0.45169  1.0000
  O   O53       1.0  0.86272  0.24936  0.51297  1.0000
  H   H163      1.0  0.85746  0.24960  0.57307  1.0000
  O   O54       1.0  0.87325  0.28311  0.50159  1.0000
  H   H164      1.0  0.86921  0.28705  0.56077  1.0000
  C   C411      1.0  0.16048  0.68503  0.32645  1.0000
  C   C412      1.0  0.17100  0.71996  0.34423  1.0000
  C   C413      1.0  0.15643  0.71401  0.39409  1.0000
  C   C414      1.0  0.15122  0.69644  0.38349  1.0000
  H   H165      1.0  0.14110  0.69166  0.42063  1.0000
  C   C415      1.0  0.17690  0.73723  0.35234  1.0000
  C   C416      1.0  0.18876  0.77183  0.36200  1.0000
  C   C417      1.0  0.17411  0.76640  0.41234  1.0000
  C   C418      1.0  0.16809  0.74904  0.40953  1.0000
  C   C419      1.0  0.15373  0.74310  0.46056  1.0000
  C   C420      1.0  0.14800  0.72569  0.45324  1.0000
  H   H166      1.0  0.16779  0.77523  0.45203  1.0000
  O   O55       1.0  0.14499  0.75406  0.51634  1.0000
  H   H167      1.0  0.15092  0.75338  0.57468  1.0000
  O   O56       1.0  0.13400  0.72052  0.50235  1.0000
  H   H168      1.0  0.13865  0.71618  0.55958  1.0000
  C   C421      1.0  0.31981  0.16094  0.33082  1.0000
  C   C422      1.0  0.28468  0.17092  0.34672  1.0000
  C   C423      1.0  0.29074  0.15637  0.39648  1.0000
  C   C424      1.0  0.30841  0.15145  0.38682  1.0000
  H   H169      1.0  0.31323  0.14133  0.42378  1.0000
  C   C425      1.0  0.26730  0.17652  0.35377  1.0000
  C   C426      1.0  0.23250  0.18786  0.36167  1.0000
  C   C427      1.0  0.23802  0.17322  0.41179  1.0000
  C   C428      1.0  0.25549  0.16746  0.40987  1.0000
  C   C429      1.0  0.26152  0.15314  0.46088  1.0000
  C   C430      1.0  0.27904  0.14769  0.45455  1.0000
  H   H170      1.0  0.22921  0.16675  0.45087  1.0000
  O   O57       1.0  0.25056  0.14417  0.51570  1.0000
  H   H171      1.0  0.25102  0.15004  0.57427  1.0000
  O   O58       1.0  0.28431  0.13372  0.50361  1.0000
  H   H172      1.0  0.28845  0.13837  0.56121  1.0000
  C   C431      1.0  0.68554  0.84515  0.33450  1.0000
  C   C432      1.0  0.72049  0.83464  0.35167  1.0000
  C   C433      1.0  0.71478  0.84969  0.39841  1.0000
  C   C434      1.0  0.69719  0.85486  0.38818  1.0000
  H   H173      1.0  0.69259  0.86535  0.42310  1.0000
  C   C435      1.0  0.73776  0.82873  0.35935  1.0000
  C   C436      1.0  0.77236  0.81678  0.36753  1.0000
  C   C437      1.0  0.76721  0.83188  0.41515  1.0000
  C   C438      1.0  0.74985  0.83799  0.41295  1.0000
  C   C439      1.0  0.74418  0.85285  0.46086  1.0000
  C   C440      1.0  0.72676  0.85860  0.45400  1.0000
  H   H174      1.0  0.77624  0.83852  0.45209  1.0000
  O   O59       1.0  0.75543  0.86207  0.51293  1.0000
  H   H175      1.0  0.75498  0.85674  0.57284  1.0000
  O   O60       1.0  0.72186  0.87310  0.49988  1.0000
  H   H176      1.0  0.71775  0.86906  0.55875  1.0000
  C   C441      1.0  0.36105  0.10749  0.36352  1.0000
  N   N141      1.0  0.36793  0.09123  0.35898  1.0000
  C   C442      1.0  0.38743  0.03994  0.35458  1.0000
  H   H177      1.0  0.34915  0.10894  0.39294  1.0000
  N   N142      1.0  0.38137  0.05660  0.35398  1.0000
  H   H178      1.0  0.38013  0.03057  0.38517  1.0000
  C   C443      1.0  0.64474  0.89921  0.36138  1.0000
  N   N143      1.0  0.63798  0.91552  0.35587  1.0000
  C   C444      1.0  0.61873  0.96688  0.34948  1.0000
  H   H179      1.0  0.65663  0.89776  0.39094  1.0000
  N   N144      1.0  0.62471  0.95020  0.34936  1.0000
  H   H180      1.0  0.62604  0.97623  0.38015  1.0000
  C   C445      1.0  0.89841  0.36051  0.36813  1.0000
  N   N145      1.0  0.91467  0.36739  0.36303  1.0000
  C   C446      1.0  0.96592  0.38699  0.35727  1.0000
  H   H181      1.0  0.89699  0.34865  0.39797  1.0000
  N   N146      1.0  0.94928  0.38089  0.35706  1.0000
  H   H182      1.0  0.97533  0.37974  0.38786  1.0000
  C   C447      1.0  0.10671  0.64416  0.35673  1.0000
  N   N147      1.0  0.09040  0.63742  0.35181  1.0000
  C   C448      1.0  0.03899  0.61828  0.34681  1.0000
  H   H183      1.0  0.10820  0.65609  0.38587  1.0000
  N   N148      1.0  0.05569  0.62422  0.34631  1.0000
  H   H184      1.0  0.02968  0.62564  0.37756  1.0000
  C   C449      1.0  0.63556  0.12144  0.34622  1.0000
  C   C450      1.0  0.62237  0.08690  0.35523  1.0000
  C   C451      1.0  0.61253  0.10081  0.39225  1.0000
  C   C452      1.0  0.61926  0.11790  0.38626  1.0000
  H   H185      1.0  0.61234  0.12793  0.41379  1.0000
  C   C453      1.0  0.61586  0.06964  0.35811  1.0000
  C   C454      1.0  0.60219  0.03526  0.35532  1.0000
  C   C455      1.0  0.59295  0.04911  0.39605  1.0000
  C   C456      1.0  0.59946  0.06629  0.39823  1.0000
  C   C457      1.0  0.58994  0.08010  0.43734  1.0000
  C   C458      1.0  0.59643  0.09724  0.43432  1.0000
  H   H186      1.0  0.58100  0.04670  0.42356  1.0000
  O   O61       1.0  0.57409  0.07734  0.47553  1.0000
  H   H187      1.0  0.57634  0.07456  0.53885  1.0000
  O   O62       1.0  0.58659  0.11024  0.47001  1.0000
  H   H188      1.0  0.59024  0.11136  0.53297  1.0000
  C   C459      1.0  0.37005  0.88512  0.34407  1.0000
  C   C460      1.0  0.38344  0.91965  0.35034  1.0000
  C   C461      1.0  0.39340  0.90571  0.38634  1.0000
  C   C462      1.0  0.38657  0.88864  0.38170  1.0000
  H   H189      1.0  0.39357  0.87861  0.40866  1.0000
  C   C463      1.0  0.39002  0.93689  0.35231  1.0000
  C   C464      1.0  0.40376  0.97130  0.34905  1.0000
  C   C465      1.0  0.41313  0.95734  0.38817  1.0000
  C   C466      1.0  0.40660  0.94018  0.39058  1.0000
  C   C467      1.0  0.41625  0.92634  0.42853  1.0000
  C   C468      1.0  0.40970  0.90922  0.42636  1.0000
  H   H190      1.0  0.42515  0.95969  0.41489  1.0000
  O   O63       1.0  0.43227  0.92905  0.46488  1.0000
  H   H191      1.0  0.43032  0.93181  0.52850  1.0000
  O   O64       1.0  0.41964  0.89620  0.46105  1.0000
  H   H192      1.0  0.41629  0.89514  0.52445  1.0000
  C   C469      1.0  0.12066  0.36964  0.34409  1.0000
  C   C470      1.0  0.08615  0.38307  0.35067  1.0000
  C   C471      1.0  0.10012  0.39305  0.38621  1.0000
  C   C472      1.0  0.11719  0.38619  0.38143  1.0000
  H   H193      1.0  0.12724  0.39320  0.40807  1.0000
  C   C473      1.0  0.06892  0.38966  0.35281  1.0000
  C   C474      1.0  0.03452  0.40341  0.34995  1.0000
  C   C475      1.0  0.04850  0.41281  0.38854  1.0000
  C   C476      1.0  0.06567  0.40628  0.39076  1.0000
  C   C477      1.0  0.07954  0.41596  0.42822  1.0000
  C   C478      1.0  0.09665  0.40939  0.42590  1.0000
  H   H194      1.0  0.04618  0.42486  0.41503  1.0000
  O   O65       1.0  0.07687  0.43201  0.46426  1.0000
  H   H195      1.0  0.07415  0.43011  0.52797  1.0000
  O   O66       1.0  0.10970  0.41935  0.46014  1.0000
  H   H196      1.0  0.11080  0.41604  0.52361  1.0000
  C   C479      1.0  0.88433  0.63514  0.34644  1.0000
  C   C480      1.0  0.91891  0.62200  0.35509  1.0000
  C   C481      1.0  0.90504  0.61218  0.39263  1.0000
  C   C482      1.0  0.88793  0.61888  0.38678  1.0000
  H   H197      1.0  0.87793  0.61197  0.41473  1.0000
  C   C483      1.0  0.93617  0.61552  0.35774  1.0000
  C   C484      1.0  0.97057  0.60186  0.35452  1.0000
  C   C485      1.0  0.95675  0.59265  0.39580  1.0000
  C   C486      1.0  0.93957  0.59916  0.39824  1.0000
  C   C487      1.0  0.92581  0.58966  0.43791  1.0000
  C   C488      1.0  0.90866  0.59612  0.43505  1.0000
  H   H198      1.0  0.95920  0.58074  0.42355  1.0000
  O   O67       1.0  0.92862  0.57385  0.47643  1.0000
  H   H199      1.0  0.93145  0.57616  0.53962  1.0000
  O   O68       1.0  0.89570  0.58631  0.47128  1.0000
  H   H200      1.0  0.89463  0.59002  0.53415  1.0000
  C   C489      1.0  0.53876  0.01719  0.35357  1.0000
  N   N149      1.0  0.52115  0.01656  0.35036  1.0000
  C   C490      1.0  0.46712  0.01732  0.35266  1.0000
  H   H201      1.0  0.54444  0.02788  0.38168  1.0000
  N   N150      1.0  0.48473  0.01665  0.34967  1.0000
  H   H202      1.0  0.46141  0.02806  0.38013  1.0000
  C   C491      1.0  0.98855  0.53838  0.35295  1.0000
  N   N151      1.0  0.98918  0.52078  0.35001  1.0000
  C   C492      1.0  0.98843  0.46674  0.35322  1.0000
  H   H203      1.0  0.97788  0.54408  0.38107  1.0000
  N   N152      1.0  0.98910  0.48434  0.34990  1.0000
  H   H204      1.0  0.97770  0.46104  0.38083  1.0000
  C   C493      1.0  0.26972  0.40892  0.36665  1.0000
  C   C494      1.0  0.23528  0.39613  0.38237  1.0000
  C   C495      1.0  0.24913  0.38713  0.42536  1.0000
  C   C496      1.0  0.26623  0.39359  0.41553  1.0000
  H   H205      1.0  0.27631  0.38720  0.44589  1.0000
  C   C497      1.0  0.21812  0.38948  0.38643  1.0000
  C   C498      1.0  0.18427  0.37479  0.38256  1.0000
  C   C499      1.0  0.19784  0.36696  0.43250  1.0000
  C   C500      1.0  0.21480  0.37393  0.43486  1.0000
  C   C501      1.0  0.22847  0.36547  0.48102  1.0000
  C   C502      1.0  0.24556  0.37198  0.47590  1.0000
  H   H206      1.0  0.19547  0.35551  0.46531  1.0000
  O   O69       1.0  0.22571  0.35041  0.52695  1.0000
  H   H207      1.0  0.22246  0.35385  0.58821  1.0000
  O   O70       1.0  0.25852  0.36300  0.51752  1.0000
  H   H208      1.0  0.25954  0.36799  0.57800  1.0000
  C   C503      1.0  0.73492  0.59656  0.36577  1.0000
  C   C504      1.0  0.76952  0.60882  0.38217  1.0000
  C   C505      1.0  0.75582  0.61787  0.42613  1.0000
  C   C506      1.0  0.73862  0.61169  0.41592  1.0000
  H   H209      1.0  0.72864  0.61809  0.44707  1.0000
  C   C507      1.0  0.78677  0.61522  0.38655  1.0000
  C   C508      1.0  0.82074  0.62953  0.38272  1.0000
  C   C509      1.0  0.80736  0.63733  0.43408  1.0000
  C   C510      1.0  0.79033  0.63055  0.43635  1.0000
  C   C511      1.0  0.77680  0.63904  0.48351  1.0000
  C   C512      1.0  0.75962  0.63279  0.47801  1.0000
  H   H210      1.0  0.80990  0.64866  0.46756  1.0000
  O   O71       1.0  0.77979  0.65391  0.53067  1.0000
  H   H211      1.0  0.78306  0.65023  0.59153  1.0000
  O   O72       1.0  0.74681  0.64181  0.52056  1.0000
  H   H212      1.0  0.74575  0.63664  0.58063  1.0000
  C   C513      1.0  0.59638  0.27059  0.36673  1.0000
  C   C514      1.0  0.60896  0.23609  0.38250  1.0000
  C   C515      1.0  0.61798  0.24986  0.42604  1.0000
  C   C516      1.0  0.61162  0.26700  0.41621  1.0000
  H   H213      1.0  0.61801  0.27703  0.44695  1.0000
  C   C517      1.0  0.61553  0.21889  0.38648  1.0000
  C   C518      1.0  0.63010  0.18503  0.38196  1.0000
  C   C519      1.0  0.63792  0.19849  0.43271  1.0000
  C   C520      1.0  0.63100  0.21547  0.43533  1.0000
  C   C521      1.0  0.63947  0.22906  0.48209  1.0000
  C   C522      1.0  0.63303  0.24619  0.47710  1.0000
  H   H214      1.0  0.64935  0.19605  0.46556  1.0000
  O   O73       1.0  0.65445  0.22620  0.52849  1.0000
  H   H215      1.0  0.65091  0.22290  0.58954  1.0000
  O   O74       1.0  0.64202  0.25907  0.51926  1.0000
  H   H216      1.0  0.63695  0.26008  0.57957  1.0000
  C   C523      1.0  0.40875  0.73581  0.36565  1.0000
  C   C524      1.0  0.39625  0.77034  0.38187  1.0000
  C   C525      1.0  0.38722  0.75657  0.42533  1.0000
  C   C526      1.0  0.39353  0.73941  0.41522  1.0000
  H   H217      1.0  0.38713  0.72938  0.44598  1.0000
  C   C527      1.0  0.38974  0.78756  0.38624  1.0000
  C   C528      1.0  0.37528  0.82149  0.38278  1.0000
  C   C529      1.0  0.36747  0.80801  0.43342  1.0000
  C   C530      1.0  0.37433  0.79100  0.43551  1.0000
  C   C531      1.0  0.36584  0.77740  0.48215  1.0000
  C   C532      1.0  0.37221  0.76026  0.47667  1.0000
  H   H218      1.0  0.35611  0.81046  0.46683  1.0000
  O   O75       1.0  0.35089  0.78028  0.52881  1.0000
  H   H219      1.0  0.35447  0.78351  0.58988  1.0000
  O   O76       1.0  0.36320  0.74737  0.51871  1.0000
  H   H220      1.0  0.36829  0.74631  0.57897  1.0000
  C   C533      1.0  0.74938  0.41749  0.35836  1.0000
  N   N153      1.0  0.76568  0.41094  0.34899  1.0000
  C   C534      1.0  0.81642  0.39082  0.34309  1.0000
  H   H221      1.0  0.74773  0.42821  0.39787  1.0000
  N   N154      1.0  0.79997  0.39735  0.34099  1.0000
  H   H222      1.0  0.82542  0.39668  0.38336  1.0000
  C   C535      1.0  0.25618  0.58814  0.35564  1.0000
  N   N155      1.0  0.23983  0.59446  0.34471  1.0000
  C   C536      1.0  0.18883  0.61387  0.33371  1.0000
  H   H223      1.0  0.25785  0.57749  0.39557  1.0000
  N   N156      1.0  0.20538  0.60757  0.33333  1.0000
  H   H224      1.0  0.17983  0.60803  0.37405  1.0000
  C   C537      1.0  0.41733  0.25667  0.35647  1.0000
  N   N157      1.0  0.41089  0.24034  0.34624  1.0000
  C   C538      1.0  0.39106  0.18950  0.33778  1.0000
  H   H225      1.0  0.42802  0.25832  0.39622  1.0000
  N   N158      1.0  0.39750  0.20599  0.33650  1.0000
  H   H226      1.0  0.39692  0.18050  0.37802  1.0000
  C   C539      1.0  0.58800  0.74989  0.35754  1.0000
  N   N159      1.0  0.59444  0.76623  0.34745  1.0000
  C   C540      1.0  0.61419  0.81711  0.33924  1.0000
  H   H227      1.0  0.57730  0.74822  0.39715  1.0000
  N   N160      1.0  0.60778  0.80061  0.33789  1.0000
  H   H228      1.0  0.60833  0.82611  0.37951  1.0000
  C   C541      1.0  0.30366  0.53914  0.42258  1.0000
  N   N161      1.0  0.30423  0.52152  0.41981  1.0000
  C   C542      1.0  0.30274  0.46749  0.42428  1.0000
  H   H229      1.0  0.29815  0.54503  0.47704  1.0000
  N   N162      1.0  0.30376  0.48508  0.42063  1.0000
  H   H230      1.0  0.29721  0.46187  0.47941  1.0000
  C   C543      1.0  0.70102  0.46680  0.42406  1.0000
  N   N163      1.0  0.70024  0.48441  0.42116  1.0000
  C   C544      1.0  0.70092  0.53847  0.42609  1.0000
  H   H231      1.0  0.70599  0.46096  0.48001  1.0000
  N   N164      1.0  0.70018  0.52087  0.42218  1.0000
  H   H232      1.0  0.70585  0.54416  0.48253  1.0000
  C   C545      1.0  0.46642  0.30500  0.42402  1.0000
  N   N165      1.0  0.48404  0.30566  0.42119  1.0000
  C   C546      1.0  0.53809  0.30452  0.42616  1.0000
  H   H233      1.0  0.46054  0.30003  0.47984  1.0000
  N   N166      1.0  0.52050  0.30541  0.42224  1.0000
  H   H234      1.0  0.54375  0.29952  0.48256  1.0000
  C   C547      1.0  0.53877  0.70229  0.42272  1.0000
  N   N167      1.0  0.52115  0.70158  0.41989  1.0000
  C   C548      1.0  0.46712  0.70262  0.42436  1.0000
  H   H235      1.0  0.54462  0.70772  0.47749  1.0000
  N   N168      1.0  0.48471  0.70174  0.42069  1.0000
  H   H236      1.0  0.46145  0.70803  0.47970  1.0000
  C   C549      1.0  0.33143  0.39773  0.34734  1.0000
  C   C550      1.0  0.35800  0.37211  0.34603  1.0000
  C   C551      1.0  0.36037  0.38750  0.39736  1.0000
  C   C552      1.0  0.34705  0.40029  0.39577  1.0000
  H   H237      1.0  0.34846  0.41139  0.43291  1.0000
  C   C553      1.0  0.37108  0.35914  0.34398  1.0000
  C   C554      1.0  0.39691  0.33276  0.33734  1.0000
  C   C555      1.0  0.39954  0.34808  0.38829  1.0000
  C   C556      1.0  0.38671  0.36131  0.39356  1.0000
  C   C557      1.0  0.38875  0.37638  0.44715  1.0000
  C   C558      1.0  0.37572  0.38936  0.44893  1.0000
  H   H238      1.0  0.41077  0.34935  0.42442  1.0000
  O   O77       1.0  0.40339  0.37882  0.49695  1.0000
  H   H239      1.0  0.40109  0.37343  0.55561  1.0000
  O   O78       1.0  0.37835  0.40374  0.50041  1.0000
  H   H240      1.0  0.37331  0.40111  0.55949  1.0000
  C   C559      1.0  0.67329  0.60832  0.34758  1.0000
  C   C560      1.0  0.64692  0.63414  0.34625  1.0000
  C   C561      1.0  0.64449  0.61882  0.39808  1.0000
  C   C562      1.0  0.65770  0.60593  0.39648  1.0000
  H   H241      1.0  0.65626  0.59488  0.43400  1.0000
  C   C563      1.0  0.63393  0.64719  0.34418  1.0000
  C   C564      1.0  0.60824  0.67373  0.33738  1.0000
  C   C565      1.0  0.60557  0.65848  0.38885  1.0000
  C   C566      1.0  0.61833  0.64518  0.39421  1.0000
  C   C567      1.0  0.61624  0.63019  0.44834  1.0000
  C   C568      1.0  0.62918  0.61713  0.45017  1.0000
  H   H242      1.0  0.59436  0.65731  0.42528  1.0000
  O   O79       1.0  0.60164  0.62791  0.49864  1.0000
  H   H243      1.0  0.60403  0.63335  0.55704  1.0000
  O   O80       1.0  0.62651  0.60282  0.50218  1.0000
  H   H244      1.0  0.63164  0.60549  0.56101  1.0000
  C   C569      1.0  0.60792  0.33222  0.34802  1.0000
  C   C570      1.0  0.63370  0.35863  0.34680  1.0000
  C   C571      1.0  0.61838  0.36103  0.39866  1.0000
  C   C572      1.0  0.60551  0.34779  0.39705  1.0000
  H   H245      1.0  0.59445  0.34922  0.43453  1.0000
  C   C573      1.0  0.64673  0.37163  0.34477  1.0000
  C   C574      1.0  0.67324  0.39733  0.33806  1.0000
  C   C575      1.0  0.65799  0.39998  0.38953  1.0000
  C   C576      1.0  0.64471  0.38721  0.39487  1.0000
  C   C577      1.0  0.62971  0.38928  0.44901  1.0000
  C   C578      1.0  0.61667  0.37633  0.45080  1.0000
  H   H246      1.0  0.65682  0.41118  0.42604  1.0000
  O   O81       1.0  0.62742  0.40387  0.49936  1.0000
  H   H247      1.0  0.63287  0.40148  0.55775  1.0000
  O   O82       1.0  0.60236  0.37897  0.50283  1.0000
  H   H248      1.0  0.60504  0.37384  0.56165  1.0000
  C   C579      1.0  0.39734  0.67410  0.34697  1.0000
  C   C580      1.0  0.37168  0.64755  0.34554  1.0000
  C   C581      1.0  0.38708  0.64516  0.39680  1.0000
  C   C582      1.0  0.39988  0.65846  0.39527  1.0000
  H   H249      1.0  0.41098  0.65703  0.43236  1.0000
  C   C583      1.0  0.35871  0.63449  0.34342  1.0000
  C   C584      1.0  0.33230  0.60866  0.33667  1.0000
  C   C585      1.0  0.34762  0.60602  0.38759  1.0000
  C   C586      1.0  0.36087  0.61884  0.39289  1.0000
  C   C587      1.0  0.37594  0.61677  0.44644  1.0000
  C   C588      1.0  0.38893  0.62979  0.44827  1.0000
  H   H250      1.0  0.34890  0.59477  0.42362  1.0000
  O   O83       1.0  0.37837  0.60212  0.49614  1.0000
  H   H251      1.0  0.37300  0.60441  0.55483  1.0000
  O   O84       1.0  0.40331  0.62714  0.49970  1.0000
  H   H252      1.0  0.40069  0.63217  0.55882  1.0000
