data_image0
_chemical_formula_structural       C7H2N2O4CHC7H2N2O4CHC7H2N2O4CHC7H2N2O4CHC7H2N2O4CHC7H2N2O4CHC2H2C3H2CHC2H2C3H2CHC2H2C3H2CHC2H2C3H2CHC2H2C3H2CHC2H2C3H2CHC7H2N2O4CHC7H2N2O4CHC7H2N2O4CHC7H2N2O4CHC7H2N2O4CHC7H2N2O4CHC6H3N3C6H3N3C6H3N3C6H3N3C6H3N3C6H3N3C6H3N3C6H3N3C6H3N3C6H3N3C6H3N3C6H3N3C2H2C3H2CHC2H2C3H2CHC2H2C3H2CHC2H2C3H2CHC2H2C3H2CHC2H2C3H2CHC7H2N2O4CHC7H2N2O4CHC7H2N2O4CHC7H2N2O4CHC7H2N2O4CHC7H2N2O4CHC2H2C3H2CHC2H2C3H2CHC2H2C3H2CHC2H2C3H2CHC2H2C3H2CHC2H2C3H2CH
_chemical_formula_sum              "C324 H180 N72 O72"
_cell_length_a       79.4463
_cell_length_b       79.4464
_cell_length_c       14.9596
_cell_angle_alpha    90
_cell_angle_beta     90
_cell_angle_gamma    120

_space_group_name_H-M_alt    "P 1"
_space_group_IT_number       1

loop_
  _space_group_symop_operation_xyz
  'x, y, z'

loop_
  _atom_site_type_symbol
  _atom_site_label
  _atom_site_symmetry_multiplicity
  _atom_site_fract_x
  _atom_site_fract_y
  _atom_site_fract_z
  _atom_site_occupancy
  C   C1        1.0  0.17869  0.44751  0.31316  1.0000
  C   C2        1.0  0.18826  0.44630  0.23527  1.0000
  C   C3        1.0  0.20640  0.44705  0.24373  1.0000
  C   C4        1.0  0.21525  0.44894  0.32793  1.0000
  C   C5        1.0  0.23310  0.44879  0.33533  1.0000
  C   C6        1.0  0.25030  0.46246  0.29011  1.0000
  C   C7        1.0  0.26736  0.46107  0.29769  1.0000
  H   H1        1.0  0.27957  0.47096  0.26416  1.0000
  H   H2        1.0  0.21300  0.44580  0.18736  1.0000
  N   N1        1.0  0.25029  0.47757  0.23976  1.0000
  N   N2        1.0  0.17966  0.44449  0.15020  1.0000
  O   O1        1.0  0.25433  0.47691  0.15907  1.0000
  O   O2        1.0  0.17624  0.42902  0.11188  1.0000
  O   O3        1.0  0.26221  0.49401  0.27060  1.0000
  O   O4        1.0  0.19034  0.45859  0.10039  1.0000
  C   C8        1.0  0.16064  0.44619  0.30797  1.0000
  H   H3        1.0  0.15018  0.43542  0.27282  1.0000
  C   C9        1.0  0.56950  0.74548  0.31345  1.0000
  C   C10       1.0  0.57069  0.75625  0.23551  1.0000
  C   C11       1.0  0.56993  0.77363  0.24391  1.0000
  C   C12       1.0  0.56806  0.78061  0.32810  1.0000
  C   C13       1.0  0.56822  0.79860  0.33544  1.0000
  C   C14       1.0  0.55454  0.80213  0.29025  1.0000
  C   C15       1.0  0.55593  0.82059  0.29779  1.0000
  H   H4        1.0  0.54604  0.82291  0.26426  1.0000
  H   H5        1.0  0.57118  0.78147  0.18752  1.0000
  N   N3        1.0  0.53942  0.78701  0.23999  1.0000
  N   N4        1.0  0.57249  0.74944  0.15046  1.0000
  O   O5        1.0  0.54006  0.79170  0.15928  1.0000
  O   O6        1.0  0.58794  0.76149  0.11205  1.0000
  O   O7        1.0  0.52298  0.78249  0.27088  1.0000
  O   O8        1.0  0.55837  0.74600  0.10070  1.0000
  C   C16       1.0  0.57084  0.72875  0.30835  1.0000
  H   H6        1.0  0.58156  0.72904  0.27288  1.0000
  C   C17       1.0  0.27152  0.83827  0.31313  1.0000
  C   C18       1.0  0.26073  0.82870  0.23524  1.0000
  C   C19       1.0  0.24335  0.81057  0.24370  1.0000
  C   C20       1.0  0.23639  0.80172  0.32791  1.0000
  C   C21       1.0  0.21840  0.78388  0.33532  1.0000
  C   C22       1.0  0.21486  0.76667  0.29009  1.0000
  C   C23       1.0  0.19639  0.74962  0.29765  1.0000
  H   H7        1.0  0.19406  0.73741  0.26410  1.0000
  H   H8        1.0  0.23550  0.80397  0.18734  1.0000
  N   N5        1.0  0.22996  0.76667  0.23972  1.0000
  N   N6        1.0  0.26753  0.83731  0.15016  1.0000
  O   O9        1.0  0.22526  0.76263  0.15903  1.0000
  O   O10       1.0  0.25547  0.84072  0.11185  1.0000
  O   O11       1.0  0.23448  0.75474  0.27053  1.0000
  O   O12       1.0  0.27094  0.82662  0.10035  1.0000
  C   C24       1.0  0.28826  0.85633  0.30793  1.0000
  H   H9        1.0  0.28795  0.86679  0.27275  1.0000
  C   C25       1.0  0.83443  0.57335  0.31345  1.0000
  C   C26       1.0  0.82486  0.57454  0.23551  1.0000
  C   C27       1.0  0.80672  0.57378  0.24391  1.0000
  C   C28       1.0  0.79787  0.57191  0.32810  1.0000
  C   C29       1.0  0.78003  0.57207  0.33544  1.0000
  C   C30       1.0  0.76283  0.55839  0.29025  1.0000
  C   C31       1.0  0.74577  0.55979  0.29777  1.0000
  H   H10       1.0  0.73356  0.54990  0.26424  1.0000
  H   H11       1.0  0.80012  0.57503  0.18752  1.0000
  N   N7        1.0  0.76282  0.54328  0.23998  1.0000
  N   N8        1.0  0.83347  0.57634  0.15046  1.0000
  O   O13       1.0  0.75879  0.54392  0.15928  1.0000
  O   O14       1.0  0.83687  0.59179  0.11205  1.0000
  O   O15       1.0  0.75090  0.52684  0.27087  1.0000
  O   O16       1.0  0.82279  0.56222  0.10070  1.0000
  C   C32       1.0  0.85250  0.57469  0.30835  1.0000
  H   H12       1.0  0.86293  0.58540  0.27288  1.0000
  C   C33       1.0  0.44368  0.27539  0.31308  1.0000
  C   C34       1.0  0.44246  0.26461  0.23519  1.0000
  C   C35       1.0  0.44321  0.24722  0.24365  1.0000
  C   C36       1.0  0.44510  0.24026  0.32785  1.0000
  C   C37       1.0  0.44495  0.22227  0.33525  1.0000
  C   C38       1.0  0.45862  0.21873  0.29001  1.0000
  C   C39       1.0  0.45721  0.20027  0.29759  1.0000
  H   H13       1.0  0.46709  0.19794  0.26404  1.0000
  H   H14       1.0  0.44195  0.23937  0.18728  1.0000
  N   N9        1.0  0.47372  0.23384  0.23965  1.0000
  N   N10       1.0  0.44065  0.27140  0.15012  1.0000
  O   O17       1.0  0.47306  0.22914  0.15896  1.0000
  O   O18       1.0  0.42518  0.25935  0.11181  1.0000
  O   O19       1.0  0.49016  0.23835  0.27046  1.0000
  O   O20       1.0  0.45475  0.27482  0.10030  1.0000
  C   C40       1.0  0.44236  0.29213  0.30789  1.0000
  H   H15       1.0  0.43160  0.29183  0.27270  1.0000
  C   C41       1.0  0.74162  0.18254  0.31342  1.0000
  C   C42       1.0  0.75238  0.19211  0.23549  1.0000
  C   C43       1.0  0.76977  0.21026  0.24388  1.0000
  C   C44       1.0  0.77675  0.21910  0.32808  1.0000
  C   C45       1.0  0.79474  0.23695  0.33542  1.0000
  C   C46       1.0  0.79826  0.25415  0.29024  1.0000
  C   C47       1.0  0.81672  0.27121  0.29779  1.0000
  H   H16       1.0  0.81903  0.28342  0.26427  1.0000
  H   H17       1.0  0.77760  0.21685  0.18749  1.0000
  N   N11       1.0  0.78314  0.25415  0.23998  1.0000
  N   N12       1.0  0.74557  0.18351  0.15043  1.0000
  O   O21       1.0  0.78782  0.25819  0.15927  1.0000
  O   O22       1.0  0.75762  0.18010  0.11201  1.0000
  O   O23       1.0  0.77862  0.26606  0.27088  1.0000
  O   O24       1.0  0.74213  0.19418  0.10068  1.0000
  C   C48       1.0  0.72489  0.16447  0.30832  1.0000
  H   H18       1.0  0.72517  0.15404  0.27285  1.0000
  C   C49       1.0  0.14588  0.56113  0.27835  1.0000
  C   C50       1.0  0.14779  0.54459  0.28858  1.0000
  H   H19       1.0  0.14734  0.56695  0.21583  1.0000
  H   H20       1.0  0.15053  0.53878  0.23310  1.0000
  C   C51       1.0  0.13098  0.61682  0.31713  1.0000
  C   C52       1.0  0.12056  0.59919  0.26928  1.0000
  C   C53       1.0  0.12450  0.58397  0.28108  1.0000
  H   H21       1.0  0.10973  0.59711  0.22573  1.0000
  H   H22       1.0  0.11631  0.57134  0.24624  1.0000
  C   C54       1.0  0.12611  0.63128  0.30597  1.0000
  H   H23       1.0  0.11484  0.62844  0.26690  1.0000
  C   C55       1.0  0.45584  0.59908  0.27829  1.0000
  C   C56       1.0  0.47239  0.61753  0.28853  1.0000
  H   H24       1.0  0.45003  0.59473  0.21577  1.0000
  H   H25       1.0  0.47820  0.62609  0.23307  1.0000
  C   C57       1.0  0.40016  0.52848  0.31704  1.0000
  C   C58       1.0  0.41779  0.53569  0.26916  1.0000
  C   C59       1.0  0.43300  0.55486  0.28095  1.0000
  H   H26       1.0  0.41987  0.52696  0.22555  1.0000
  H   H27       1.0  0.44563  0.55931  0.24607  1.0000
  C   C60       1.0  0.38571  0.50915  0.30584  1.0000
  H   H28       1.0  0.38854  0.50073  0.26672  1.0000
  C   C61       1.0  0.41794  0.87108  0.27842  1.0000
  C   C62       1.0  0.39948  0.86917  0.28868  1.0000
  H   H29       1.0  0.42228  0.86962  0.21587  1.0000
  H   H30       1.0  0.39092  0.86643  0.23323  1.0000
  C   C63       1.0  0.48852  0.88597  0.31705  1.0000
  C   C64       1.0  0.48132  0.89639  0.26922  1.0000
  C   C65       1.0  0.46216  0.89245  0.28105  1.0000
  H   H31       1.0  0.49006  0.90722  0.22567  1.0000
  H   H32       1.0  0.45771  0.90064  0.24622  1.0000
  C   C66       1.0  0.50785  0.89084  0.30587  1.0000
  H   H33       1.0  0.51628  0.90211  0.26677  1.0000
  C   C67       1.0  0.86718  0.45969  0.27828  1.0000
  C   C68       1.0  0.86527  0.47624  0.28853  1.0000
  H   H34       1.0  0.86571  0.45388  0.21575  1.0000
  H   H35       1.0  0.86252  0.48205  0.23307  1.0000
  C   C69       1.0  0.88209  0.40401  0.31700  1.0000
  C   C70       1.0  0.89250  0.42163  0.26912  1.0000
  C   C71       1.0  0.88856  0.43685  0.28092  1.0000
  H   H36       1.0  0.90332  0.42372  0.22549  1.0000
  H   H37       1.0  0.89673  0.44948  0.24603  1.0000
  C   C72       1.0  0.88696  0.38955  0.30580  1.0000
  H   H38       1.0  0.89822  0.39239  0.26666  1.0000
  C   C73       1.0  0.55728  0.42180  0.27846  1.0000
  C   C74       1.0  0.54074  0.40334  0.28874  1.0000
  H   H39       1.0  0.56309  0.42614  0.21591  1.0000
  H   H40       1.0  0.53491  0.39478  0.23329  1.0000
  C   C75       1.0  0.61298  0.49238  0.31705  1.0000
  C   C76       1.0  0.59535  0.48518  0.26924  1.0000
  C   C77       1.0  0.58013  0.46602  0.28107  1.0000
  H   H41       1.0  0.59325  0.49392  0.22568  1.0000
  H   H42       1.0  0.56749  0.46157  0.24626  1.0000
  C   C78       1.0  0.62743  0.51172  0.30586  1.0000
  H   H43       1.0  0.62459  0.52014  0.26676  1.0000
  C   C79       1.0  0.59521  0.14979  0.27830  1.0000
  C   C80       1.0  0.61366  0.15170  0.28853  1.0000
  H   H44       1.0  0.59086  0.15125  0.21577  1.0000
  H   H45       1.0  0.62222  0.15445  0.23306  1.0000
  C   C81       1.0  0.52462  0.13487  0.31707  1.0000
  C   C82       1.0  0.53182  0.12446  0.26920  1.0000
  C   C83       1.0  0.55099  0.12841  0.28098  1.0000
  H   H46       1.0  0.52309  0.11364  0.22559  1.0000
  H   H47       1.0  0.55544  0.12023  0.24609  1.0000
  C   C84       1.0  0.50528  0.13000  0.30588  1.0000
  H   H48       1.0  0.49686  0.11873  0.26678  1.0000
  C   C85       1.0  0.95528  0.36420  0.29509  1.0000
  C   C86       1.0  0.96635  0.36495  0.21904  1.0000
  C   C87       1.0  0.98663  0.37251  0.22792  1.0000
  C   C88       1.0  0.99628  0.37980  0.31029  1.0000
  C   C89       1.0  0.01697  0.38965  0.31542  1.0000
  C   C90       1.0  0.02875  0.40647  0.26315  1.0000
  C   C91       1.0  0.04924  0.41595  0.27152  1.0000
  H   H49       1.0  0.05749  0.42806  0.23346  1.0000
  H   H50       1.0  0.99454  0.37332  0.17240  1.0000
  N   N13       1.0  0.01993  0.41400  0.20563  1.0000
  N   N14       1.0  0.95708  0.35857  0.13492  1.0000
  O   O25       1.0  0.02498  0.41438  0.12571  1.0000
  O   O26       1.0  0.96384  0.37211  0.07851  1.0000
  O   O27       1.0  0.02398  0.43085  0.22824  1.0000
  O   O28       1.0  0.95885  0.34476  0.10489  1.0000
  C   C92       1.0  0.93621  0.36008  0.28600  1.0000
  H   H51       1.0  0.93338  0.36683  0.23714  1.0000
  C   C93       1.0  0.65279  0.60538  0.29497  1.0000
  C   C94       1.0  0.65203  0.61569  0.21889  1.0000
  C   C95       1.0  0.64447  0.62841  0.22777  1.0000
  C   C96       1.0  0.63718  0.63077  0.31014  1.0000
  C   C97       1.0  0.62733  0.64162  0.31525  1.0000
  C   C98       1.0  0.61051  0.63657  0.26307  1.0000
  C   C99       1.0  0.60102  0.64757  0.27145  1.0000
  H   H52       1.0  0.58891  0.64371  0.23347  1.0000
  H   H53       1.0  0.64364  0.63549  0.17221  1.0000
  N   N15       1.0  0.60296  0.62020  0.20563  1.0000
  N   N16       1.0  0.65841  0.61280  0.13475  1.0000
  O   O29       1.0  0.60256  0.62486  0.12569  1.0000
  O   O30       1.0  0.64486  0.60601  0.07837  1.0000
  O   O31       1.0  0.58612  0.60740  0.22833  1.0000
  O   O32       1.0  0.67221  0.62838  0.10471  1.0000
  C   C100      1.0  0.65694  0.59045  0.28581  1.0000
  H   H54       1.0  0.65020  0.58087  0.23696  1.0000
  C   C101      1.0  0.41161  0.06170  0.29513  1.0000
  C   C102      1.0  0.40129  0.05063  0.21908  1.0000
  C   C103      1.0  0.38857  0.03034  0.22795  1.0000
  C   C104      1.0  0.38622  0.02070  0.31032  1.0000
  C   C105      1.0  0.37537  0.00000  0.31544  1.0000
  C   C106      1.0  0.38041  0.98822  0.26315  1.0000
  C   C107      1.0  0.36940  0.96773  0.27152  1.0000
  H   H55       1.0  0.37325  0.95948  0.23344  1.0000
  H   H56       1.0  0.38147  0.02244  0.17243  1.0000
  N   N17       1.0  0.39676  0.99705  0.20562  1.0000
  N   N18       1.0  0.40418  0.05990  0.13496  1.0000
  O   O33       1.0  0.39208  0.99199  0.12570  1.0000
  O   O34       1.0  0.41097  0.05315  0.07855  1.0000
  O   O35       1.0  0.40956  0.99299  0.22820  1.0000
  O   O36       1.0  0.38860  0.05813  0.10494  1.0000
  C   C108      1.0  0.42656  0.08077  0.28604  1.0000
  H   H57       1.0  0.43614  0.08360  0.23718  1.0000
  C   C109      1.0  0.05783  0.65666  0.29503  1.0000
  C   C110      1.0  0.04676  0.65589  0.21893  1.0000
  C   C111      1.0  0.02648  0.64833  0.22780  1.0000
  C   C112      1.0  0.01683  0.64104  0.31017  1.0000
  C   C113      1.0  0.99613  0.63119  0.31527  1.0000
  C   C114      1.0  0.98436  0.61436  0.26309  1.0000
  C   C115      1.0  0.96387  0.60488  0.27146  1.0000
  H   H58       1.0  0.95562  0.59276  0.23347  1.0000
  H   H59       1.0  0.01857  0.64750  0.17224  1.0000
  N   N19       1.0  0.99319  0.60682  0.20565  1.0000
  N   N20       1.0  0.05603  0.66227  0.13481  1.0000
  O   O37       1.0  0.98813  0.60642  0.12572  1.0000
  O   O38       1.0  0.04928  0.64872  0.07843  1.0000
  O   O39       1.0  0.98913  0.58997  0.22837  1.0000
  O   O40       1.0  0.05425  0.67607  0.10475  1.0000
  C   C116      1.0  0.07691  0.66081  0.28588  1.0000
  H   H60       1.0  0.07975  0.65407  0.23704  1.0000
  C   C117      1.0  0.36033  0.41547  0.29511  1.0000
  C   C118      1.0  0.36108  0.40515  0.21906  1.0000
  C   C119      1.0  0.36865  0.39244  0.22795  1.0000
  C   C120      1.0  0.37594  0.39009  0.31031  1.0000
  C   C121      1.0  0.38579  0.37924  0.31543  1.0000
  C   C122      1.0  0.40260  0.38427  0.26313  1.0000
  C   C123      1.0  0.41209  0.37326  0.27151  1.0000
  H   H61       1.0  0.42419  0.37711  0.23342  1.0000
  H   H62       1.0  0.36944  0.38533  0.17243  1.0000
  N   N21       1.0  0.41013  0.40062  0.20559  1.0000
  N   N22       1.0  0.35470  0.40804  0.13495  1.0000
  O   O41       1.0  0.41050  0.39594  0.12567  1.0000
  O   O42       1.0  0.36823  0.41482  0.07852  1.0000
  O   O43       1.0  0.42698  0.41342  0.22816  1.0000
  O   O44       1.0  0.34089  0.39246  0.10495  1.0000
  C   C124      1.0  0.35622  0.43043  0.28601  1.0000
  H   H63       1.0  0.36296  0.44000  0.23715  1.0000
  C   C125      1.0  0.60152  0.95914  0.29497  1.0000
  C   C126      1.0  0.61182  0.97021  0.21889  1.0000
  C   C127      1.0  0.62454  0.99050  0.22777  1.0000
  C   C128      1.0  0.62690  0.00014  0.31014  1.0000
  C   C129      1.0  0.63775  0.02084  0.31525  1.0000
  C   C130      1.0  0.63270  0.03262  0.26307  1.0000
  C   C131      1.0  0.64371  0.05311  0.27145  1.0000
  H   H64       1.0  0.63984  0.06136  0.23346  1.0000
  H   H65       1.0  0.63162  0.99840  0.17221  1.0000
  N   N23       1.0  0.61633  0.02379  0.20563  1.0000
  N   N24       1.0  0.60893  0.96095  0.13476  1.0000
  O   O45       1.0  0.62099  0.02885  0.12570  1.0000
  O   O46       1.0  0.60214  0.96770  0.07838  1.0000
  O   O47       1.0  0.60354  0.02784  0.22834  1.0000
  O   O48       1.0  0.62451  0.96272  0.10472  1.0000
  C   C132      1.0  0.58659  0.94007  0.28582  1.0000
  H   H66       1.0  0.57701  0.93722  0.23697  1.0000
  C   C133      1.0  0.10746  0.45066  0.33671  1.0000
  C   C134      1.0  0.12297  0.44671  0.33751  1.0000
  C   C135      1.0  0.14253  0.46202  0.34215  1.0000
  C   C136      1.0  0.14633  0.48135  0.34823  1.0000
  C   C137      1.0  0.13105  0.48560  0.34708  1.0000
  C   C138      1.0  0.11177  0.47016  0.33975  1.0000
  H   H67       1.0  0.16042  0.49250  0.35072  1.0000
  H   H68       1.0  0.10064  0.47318  0.33802  1.0000
  H   H69       1.0  0.12002  0.43266  0.33408  1.0000
  N   N25       1.0  0.08874  0.43734  0.33077  1.0000
  N   N26       1.0  0.15791  0.45953  0.34150  1.0000
  N   N27       1.0  0.13372  0.50348  0.34800  1.0000
  C   C139      1.0  0.56632  0.67109  0.33670  1.0000
  C   C140      1.0  0.57028  0.69055  0.33766  1.0000
  C   C141      1.0  0.55498  0.69481  0.34235  1.0000
  C   C142      1.0  0.53565  0.67930  0.34843  1.0000
  C   C143      1.0  0.53139  0.65977  0.34715  1.0000
  C   C144      1.0  0.54682  0.65591  0.33978  1.0000
  H   H70       1.0  0.52450  0.68224  0.35091  1.0000
  H   H71       1.0  0.54380  0.64176  0.33797  1.0000
  H   H72       1.0  0.58434  0.70166  0.33426  1.0000
  N   N28       1.0  0.57964  0.66569  0.33082  1.0000
  N   N29       1.0  0.55749  0.71269  0.34185  1.0000
  N   N30       1.0  0.51351  0.64455  0.34807  1.0000
  C   C145      1.0  0.34590  0.90952  0.33676  1.0000
  C   C146      1.0  0.32644  0.89401  0.33751  1.0000
  C   C147      1.0  0.32220  0.87445  0.34218  1.0000
  C   C148      1.0  0.33772  0.87065  0.34836  1.0000
  C   C149      1.0  0.35725  0.88593  0.34726  1.0000
  C   C150      1.0  0.36109  0.90521  0.33990  1.0000
  H   H73       1.0  0.33479  0.85656  0.35088  1.0000
  H   H74       1.0  0.37523  0.91634  0.33822  1.0000
  H   H75       1.0  0.31533  0.89695  0.33402  1.0000
  N   N31       1.0  0.35129  0.92823  0.33080  1.0000
  N   N32       1.0  0.30433  0.85907  0.34151  1.0000
  N   N33       1.0  0.37247  0.88327  0.34832  1.0000
  C   C151      1.0  0.90565  0.57018  0.33669  1.0000
  C   C152      1.0  0.89015  0.57413  0.33765  1.0000
  C   C153      1.0  0.87058  0.55883  0.34235  1.0000
  C   C154      1.0  0.86677  0.53951  0.34843  1.0000
  C   C155      1.0  0.88204  0.53524  0.34715  1.0000
  C   C156      1.0  0.90133  0.55068  0.33977  1.0000
  H   H76       1.0  0.85268  0.52835  0.35091  1.0000
  H   H77       1.0  0.91245  0.54765  0.33796  1.0000
  H   H78       1.0  0.89310  0.58819  0.33425  1.0000
  N   N34       1.0  0.92436  0.58350  0.33081  1.0000
  N   N35       1.0  0.85522  0.56134  0.34185  1.0000
  N   N36       1.0  0.87937  0.51736  0.34807  1.0000
  C   C157      1.0  0.44680  0.34977  0.33679  1.0000
  C   C158      1.0  0.44286  0.33031  0.33749  1.0000
  C   C159      1.0  0.45817  0.32606  0.34219  1.0000
  C   C160      1.0  0.47749  0.34159  0.34842  1.0000
  C   C161      1.0  0.48174  0.36111  0.34737  1.0000
  C   C162      1.0  0.46630  0.36496  0.33999  1.0000
  H   H79       1.0  0.48865  0.33866  0.35096  1.0000
  H   H80       1.0  0.46931  0.37910  0.33835  1.0000
  H   H81       1.0  0.42880  0.31920  0.33397  1.0000
  N   N37       1.0  0.43348  0.35516  0.33083  1.0000
  N   N38       1.0  0.45569  0.30820  0.34150  1.0000
  N   N39       1.0  0.49962  0.37634  0.34850  1.0000
  C   C163      1.0  0.66722  0.11132  0.33669  1.0000
  C   C164      1.0  0.68669  0.12683  0.33763  1.0000
  C   C165      1.0  0.69095  0.14639  0.34233  1.0000
  C   C166      1.0  0.67543  0.15020  0.34841  1.0000
  C   C167      1.0  0.65590  0.13493  0.34714  1.0000
  C   C168      1.0  0.65205  0.11565  0.33977  1.0000
  H   H82       1.0  0.67837  0.16429  0.35090  1.0000
  H   H83       1.0  0.63790  0.10452  0.33796  1.0000
  H   H84       1.0  0.69779  0.12388  0.33424  1.0000
  N   N40       1.0  0.66183  0.09261  0.33080  1.0000
  N   N41       1.0  0.70882  0.16176  0.34183  1.0000
  N   N42       1.0  0.64069  0.13761  0.34807  1.0000
  C   C169      1.0  0.44404  0.11261  0.34011  1.0000
  C   C170      1.0  0.44080  0.12853  0.34096  1.0000
  C   C171      1.0  0.45658  0.14791  0.34199  1.0000
  C   C172      1.0  0.47574  0.15106  0.34215  1.0000
  C   C173      1.0  0.47935  0.13539  0.34169  1.0000
  C   C174      1.0  0.46335  0.11625  0.34282  1.0000
  H   H85       1.0  0.48727  0.16498  0.34241  1.0000
  H   H86       1.0  0.46575  0.10475  0.34591  1.0000
  H   H87       1.0  0.42683  0.12590  0.33923  1.0000
  N   N43       1.0  0.42915  0.09442  0.34049  1.0000
  N   N44       1.0  0.45474  0.16369  0.34032  1.0000
  N   N45       1.0  0.49765  0.13909  0.34439  1.0000
  C   C175      1.0  0.67127  0.57296  0.34009  1.0000
  C   C176      1.0  0.69043  0.57621  0.34098  1.0000
  C   C177      1.0  0.69403  0.56042  0.34199  1.0000
  C   C178      1.0  0.67803  0.54127  0.34221  1.0000
  C   C179      1.0  0.65875  0.53766  0.34174  1.0000
  C   C180      1.0  0.65560  0.55366  0.34281  1.0000
  H   H88       1.0  0.68042  0.52974  0.34247  1.0000
  H   H89       1.0  0.64171  0.55125  0.34585  1.0000
  H   H90       1.0  0.70177  0.59018  0.33923  1.0000
  N   N46       1.0  0.66798  0.58785  0.34042  1.0000
  N   N47       1.0  0.71166  0.56227  0.34040  1.0000
  N   N48       1.0  0.64415  0.51935  0.34441  1.0000
  C   C181      1.0  0.90437  0.34572  0.34009  1.0000
  C   C182      1.0  0.88846  0.32656  0.34098  1.0000
  C   C183      1.0  0.86908  0.32296  0.34203  1.0000
  C   C184      1.0  0.86592  0.33896  0.34218  1.0000
  C   C185      1.0  0.88159  0.35824  0.34167  1.0000
  C   C186      1.0  0.90073  0.36138  0.34278  1.0000
  H   H91       1.0  0.85199  0.33656  0.34245  1.0000
  H   H92       1.0  0.91222  0.37528  0.34584  1.0000
  H   H93       1.0  0.89109  0.31522  0.33927  1.0000
  N   N49       1.0  0.92256  0.34902  0.34046  1.0000
  N   N50       1.0  0.85330  0.30533  0.34042  1.0000
  N   N51       1.0  0.87788  0.37283  0.34437  1.0000
  C   C187      1.0  0.56910  0.90825  0.34012  1.0000
  C   C188      1.0  0.57234  0.89233  0.34103  1.0000
  C   C189      1.0  0.55656  0.87295  0.34201  1.0000
  C   C190      1.0  0.53740  0.86980  0.34222  1.0000
  C   C191      1.0  0.53380  0.88547  0.34176  1.0000
  C   C192      1.0  0.54979  0.90461  0.34283  1.0000
  H   H94       1.0  0.52587  0.85587  0.34247  1.0000
  H   H95       1.0  0.54739  0.91610  0.34587  1.0000
  H   H96       1.0  0.58631  0.89496  0.33923  1.0000
  N   N52       1.0  0.58398  0.92643  0.34044  1.0000
  N   N53       1.0  0.55841  0.85717  0.34040  1.0000
  N   N54       1.0  0.51549  0.88176  0.34443  1.0000
  C   C193      1.0  0.34186  0.44791  0.34010  1.0000
  C   C194      1.0  0.32270  0.44467  0.34098  1.0000
  C   C195      1.0  0.31910  0.46045  0.34202  1.0000
  C   C196      1.0  0.33510  0.47960  0.34217  1.0000
  C   C197      1.0  0.35438  0.48321  0.34168  1.0000
  C   C198      1.0  0.35753  0.46722  0.34279  1.0000
  H   H97       1.0  0.33271  0.49114  0.34243  1.0000
  H   H98       1.0  0.37143  0.46962  0.34586  1.0000
  H   H99       1.0  0.31136  0.43070  0.33927  1.0000
  N   N55       1.0  0.34515  0.43302  0.34048  1.0000
  N   N56       1.0  0.30148  0.45860  0.34040  1.0000
  N   N57       1.0  0.36898  0.50152  0.34437  1.0000
  C   C199      1.0  0.10873  0.67513  0.34017  1.0000
  C   C200      1.0  0.12465  0.69429  0.34106  1.0000
  C   C201      1.0  0.14403  0.69788  0.34202  1.0000
  C   C202      1.0  0.14717  0.68188  0.34225  1.0000
  C   C203      1.0  0.13150  0.66260  0.34182  1.0000
  C   C204      1.0  0.11236  0.65946  0.34291  1.0000
  H   H100      1.0  0.16110  0.68427  0.34249  1.0000
  H   H101      1.0  0.10086  0.64557  0.34596  1.0000
  H   H102      1.0  0.12202  0.70564  0.33925  1.0000
  N   N58       1.0  0.09054  0.67184  0.34050  1.0000
  N   N59       1.0  0.15981  0.71551  0.34038  1.0000
  N   N60       1.0  0.13521  0.64800  0.34449  1.0000
  C   C205      1.0  0.20551  0.45007  0.40472  1.0000
  C   C206      1.0  0.18756  0.44946  0.39746  1.0000
  H   H103      1.0  0.21145  0.45137  0.46683  1.0000
  H   H104      1.0  0.18085  0.45013  0.45476  1.0000
  C   C207      1.0  0.26778  0.44631  0.34901  1.0000
  C   C208      1.0  0.25055  0.43290  0.39375  1.0000
  C   C209      1.0  0.23357  0.43417  0.38737  1.0000
  H   H105      1.0  0.25013  0.42193  0.43137  1.0000
  H   H106      1.0  0.22133  0.42395  0.41972  1.0000
  C   C210      1.0  0.28423  0.44433  0.35477  1.0000
  H   H107      1.0  0.28258  0.43154  0.37259  1.0000
  C   C211      1.0  0.56695  0.76976  0.40493  1.0000
  C   C212      1.0  0.56757  0.75242  0.39773  1.0000
  H   H108      1.0  0.56567  0.77441  0.46703  1.0000
  H   H109      1.0  0.56691  0.74506  0.45505  1.0000
  C   C213      1.0  0.57071  0.83579  0.34901  1.0000
  C   C214      1.0  0.58412  0.83196  0.39373  1.0000
  C   C215      1.0  0.58284  0.81371  0.38741  1.0000
  H   H110      1.0  0.59510  0.84252  0.43132  1.0000
  H   H111      1.0  0.59307  0.81169  0.41976  1.0000
  C   C216      1.0  0.57268  0.85420  0.35475  1.0000
  H   H112      1.0  0.58548  0.86535  0.37252  1.0000
  C   C217      1.0  0.24727  0.81146  0.40470  1.0000
  C   C218      1.0  0.26461  0.82941  0.39743  1.0000
  H   H113      1.0  0.24263  0.80552  0.46681  1.0000
  H   H114      1.0  0.27198  0.83611  0.45472  1.0000
  C   C219      1.0  0.18121  0.74920  0.34899  1.0000
  C   C220      1.0  0.18505  0.76643  0.39375  1.0000
  C   C221      1.0  0.20331  0.78341  0.38737  1.0000
  H   H115      1.0  0.17450  0.76685  0.43137  1.0000
  H   H116      1.0  0.20533  0.79565  0.41974  1.0000
  C   C222      1.0  0.16279  0.73276  0.35473  1.0000
  H   H117      1.0  0.15165  0.73441  0.37258  1.0000
  C   C223      1.0  0.80761  0.57080  0.40493  1.0000
  C   C224      1.0  0.82557  0.57142  0.39773  1.0000
  H   H118      1.0  0.80167  0.56952  0.46703  1.0000
  H   H119      1.0  0.83227  0.57076  0.45505  1.0000
  C   C225      1.0  0.74535  0.57457  0.34899  1.0000
  C   C226      1.0  0.76258  0.58798  0.39372  1.0000
  C   C227      1.0  0.77956  0.58670  0.38740  1.0000
  H   H120      1.0  0.76300  0.59896  0.43130  1.0000
  H   H121      1.0  0.79179  0.59692  0.41976  1.0000
  C   C228      1.0  0.72890  0.57655  0.35471  1.0000
  H   H122      1.0  0.73055  0.58934  0.37246  1.0000
  C   C229      1.0  0.44624  0.25114  0.40463  1.0000
  C   C230      1.0  0.44562  0.26848  0.39738  1.0000
  H   H123      1.0  0.44753  0.24650  0.46675  1.0000
  H   H124      1.0  0.44630  0.27585  0.45467  1.0000
  C   C231      1.0  0.44245  0.18509  0.34892  1.0000
  C   C232      1.0  0.42905  0.18893  0.39369  1.0000
  C   C233      1.0  0.43033  0.20718  0.38731  1.0000
  H   H125      1.0  0.41808  0.17837  0.43131  1.0000
  H   H126      1.0  0.42012  0.20920  0.41968  1.0000
  C   C234      1.0  0.44047  0.16666  0.35467  1.0000
  H   H127      1.0  0.42768  0.15553  0.37257  1.0000
  C   C235      1.0  0.76589  0.20936  0.40490  1.0000
  C   C236      1.0  0.74856  0.19140  0.39771  1.0000
  H   H128      1.0  0.77055  0.21530  0.46700  1.0000
  H   H129      1.0  0.74119  0.18470  0.45503  1.0000
  C   C237      1.0  0.83192  0.27164  0.34901  1.0000
  C   C238      1.0  0.82809  0.25440  0.39371  1.0000
  C   C239      1.0  0.80984  0.23742  0.38738  1.0000
  H   H130      1.0  0.83866  0.25399  0.43130  1.0000
  H   H131      1.0  0.80783  0.22518  0.41972  1.0000
  C   C240      1.0  0.85033  0.28809  0.35477  1.0000
  H   H132      1.0  0.86148  0.28644  0.37253  1.0000
  C   C241      1.0  0.14579  0.53604  0.37359  1.0000
  C   C242      1.0  0.14193  0.54435  0.44925  1.0000
  C   C243      1.0  0.14000  0.56100  0.43768  1.0000
  C   C244      1.0  0.14197  0.56961  0.35274  1.0000
  C   C245      1.0  0.13900  0.58575  0.34142  1.0000
  C   C246      1.0  0.14974  0.60338  0.38983  1.0000
  C   C247      1.0  0.14561  0.61864  0.37701  1.0000
  H   H133      1.0  0.15343  0.63121  0.41272  1.0000
  H   H134      1.0  0.13663  0.56659  0.49202  1.0000
  N   N61       1.0  0.16472  0.60566  0.44861  1.0000
  N   N62       1.0  0.13961  0.53563  0.53439  1.0000
  O   O49       1.0  0.16152  0.60881  0.52739  1.0000
  O   O50       1.0  0.15197  0.54725  0.58908  1.0000
  O   O51       1.0  0.18098  0.61936  0.42443  1.0000
  O   O52       1.0  0.12292  0.52991  0.56552  1.0000
  C   C248      1.0  0.14724  0.51950  0.38090  1.0000
  H   H135      1.0  0.15809  0.51997  0.41601  1.0000
  C   C249      1.0  0.48094  0.62407  0.37354  1.0000
  C   C250      1.0  0.47263  0.61190  0.44919  1.0000
  C   C251      1.0  0.45597  0.59332  0.43761  1.0000
  C   C252      1.0  0.44737  0.58669  0.35266  1.0000
  C   C253      1.0  0.43123  0.56757  0.34134  1.0000
  C   C254      1.0  0.41360  0.56067  0.38977  1.0000
  C   C255      1.0  0.39834  0.54129  0.37693  1.0000
  H   H136      1.0  0.38578  0.53654  0.41266  1.0000
  H   H137      1.0  0.45040  0.58436  0.49194  1.0000
  N   N63       1.0  0.41132  0.57337  0.44858  1.0000
  N   N64       1.0  0.48135  0.61830  0.53433  1.0000
  O   O53       1.0  0.40818  0.56702  0.52736  1.0000
  O   O54       1.0  0.46974  0.61903  0.58904  1.0000
  O   O55       1.0  0.39761  0.57593  0.42443  1.0000
  O   O56       1.0  0.48707  0.60732  0.56543  1.0000
  C   C256      1.0  0.49748  0.64206  0.38087  1.0000
  H   H138      1.0  0.49699  0.65244  0.41584  1.0000
  C   C257      1.0  0.39294  0.87118  0.37371  1.0000
  C   C258      1.0  0.40512  0.87504  0.44934  1.0000
  C   C259      1.0  0.42371  0.87697  0.43772  1.0000
  C   C260      1.0  0.43033  0.87499  0.35277  1.0000
  C   C261      1.0  0.44944  0.87796  0.34140  1.0000
  C   C262      1.0  0.45633  0.86721  0.38979  1.0000
  C   C263      1.0  0.47572  0.87134  0.37694  1.0000
  H   H139      1.0  0.48046  0.86352  0.41264  1.0000
  H   H140      1.0  0.43266  0.88033  0.49204  1.0000
  N   N65       1.0  0.44364  0.85223  0.44859  1.0000
  N   N66       1.0  0.39873  0.87736  0.53450  1.0000
  O   O57       1.0  0.44999  0.85544  0.52737  1.0000
  O   O58       1.0  0.39799  0.86500  0.58918  1.0000
  O   O59       1.0  0.44107  0.83597  0.42441  1.0000
  O   O60       1.0  0.40970  0.89405  0.56562  1.0000
  C   C264      1.0  0.37496  0.86974  0.38108  1.0000
  H   H141      1.0  0.36456  0.85883  0.41576  1.0000
  C   C265      1.0  0.86729  0.48479  0.37354  1.0000
  C   C266      1.0  0.87115  0.47648  0.44918  1.0000
  C   C267      1.0  0.87307  0.45982  0.43760  1.0000
  C   C268      1.0  0.87110  0.45122  0.35264  1.0000
  C   C269      1.0  0.87407  0.43508  0.34131  1.0000
  C   C270      1.0  0.86334  0.41745  0.38975  1.0000
  C   C271      1.0  0.86746  0.40219  0.37690  1.0000
  H   H142      1.0  0.85965  0.38963  0.41264  1.0000
  H   H143      1.0  0.87645  0.45425  0.49192  1.0000
  N   N67       1.0  0.84836  0.41517  0.44857  1.0000
  N   N68       1.0  0.87348  0.48520  0.53432  1.0000
  O   O61       1.0  0.85157  0.41203  0.52735  1.0000
  O   O62       1.0  0.86112  0.47359  0.58904  1.0000
  O   O63       1.0  0.83209  0.40147  0.42443  1.0000
  O   O64       1.0  0.89017  0.49092  0.56541  1.0000
  C   C272      1.0  0.86584  0.50133  0.38088  1.0000
  H   H144      1.0  0.85497  0.50084  0.41585  1.0000
  C   C273      1.0  0.53219  0.39681  0.37378  1.0000
  C   C274      1.0  0.54051  0.40899  0.44940  1.0000
  C   C275      1.0  0.55717  0.42757  0.43776  1.0000
  C   C276      1.0  0.56577  0.43419  0.35280  1.0000
  C   C277      1.0  0.58191  0.45330  0.34142  1.0000
  C   C278      1.0  0.59955  0.46020  0.38980  1.0000
  C   C279      1.0  0.61481  0.47958  0.37694  1.0000
  H   H145      1.0  0.62737  0.48433  0.41263  1.0000
  H   H146      1.0  0.56276  0.43653  0.49208  1.0000
  N   N69       1.0  0.60183  0.44750  0.44859  1.0000
  N   N70       1.0  0.53180  0.40260  0.53456  1.0000
  O   O65       1.0  0.60498  0.45385  0.52737  1.0000
  O   O66       1.0  0.54343  0.40186  0.58924  1.0000
  O   O67       1.0  0.61553  0.44494  0.42439  1.0000
  O   O68       1.0  0.52609  0.41358  0.56568  1.0000
  C   C280      1.0  0.51565  0.37883  0.38117  1.0000
  H   H147      1.0  0.51618  0.36841  0.41559  1.0000
  C   C281      1.0  0.62021  0.14969  0.37354  1.0000
  C   C282      1.0  0.60804  0.14583  0.44919  1.0000
  C   C283      1.0  0.58945  0.14390  0.43762  1.0000
  C   C284      1.0  0.58282  0.14587  0.35267  1.0000
  C   C285      1.0  0.56370  0.14289  0.34136  1.0000
  C   C286      1.0  0.55681  0.15363  0.38979  1.0000
  C   C287      1.0  0.53742  0.14950  0.37695  1.0000
  H   H148      1.0  0.53267  0.15731  0.41269  1.0000
  H   H149      1.0  0.58050  0.14052  0.49195  1.0000
  N   N71       1.0  0.56950  0.16861  0.44859  1.0000
  N   N72       1.0  0.61443  0.14350  0.53433  1.0000
  O   O69       1.0  0.56315  0.16540  0.52737  1.0000
  O   O70       1.0  0.61517  0.15586  0.58904  1.0000
  O   O71       1.0  0.57207  0.18487  0.42443  1.0000
  O   O72       1.0  0.60346  0.12681  0.56543  1.0000
  C   C288      1.0  0.63820  0.15114  0.38086  1.0000
  H   H150      1.0  0.64857  0.16201  0.41582  1.0000
  C   C289      1.0  0.98500  0.37838  0.38593  1.0000
  C   C290      1.0  0.96481  0.37072  0.37843  1.0000
  H   H151      1.0  0.99155  0.38391  0.44618  1.0000
  H   H152      1.0  0.95734  0.37106  0.43358  1.0000
  C   C291      1.0  0.05843  0.40924  0.33120  1.0000
  C   C292      1.0  0.04651  0.39250  0.38257  1.0000
  C   C293      1.0  0.02612  0.38295  0.37528  1.0000
  H   H153      1.0  0.05255  0.38722  0.42692  1.0000
  H   H154      1.0  0.01798  0.37090  0.41380  1.0000
  C   C294      1.0  0.07856  0.41881  0.34054  1.0000
  H   H155      1.0  0.08498  0.41137  0.35898  1.0000
  C   C295      1.0  0.63863  0.62093  0.38580  1.0000
  C   C296      1.0  0.64626  0.60838  0.37830  1.0000
  H   H156      1.0  0.63311  0.62197  0.44607  1.0000
  H   H157      1.0  0.64597  0.60061  0.43349  1.0000
  C   C297      1.0  0.60774  0.66348  0.33108  1.0000
  C   C298      1.0  0.62450  0.66831  0.38236  1.0000
  C   C299      1.0  0.63405  0.65748  0.37504  1.0000
  H   H158      1.0  0.62980  0.67966  0.42663  1.0000
  H   H159      1.0  0.64612  0.66140  0.41349  1.0000
  C   C300      1.0  0.59817  0.67403  0.34045  1.0000
  H   H160      1.0  0.60563  0.68792  0.35856  1.0000
  C   C301      1.0  0.39607  0.03198  0.38596  1.0000
  C   C302      1.0  0.40861  0.05217  0.37846  1.0000
  H   H161      1.0  0.39506  0.02542  0.44620  1.0000
  H   H162      1.0  0.41642  0.05964  0.43362  1.0000
  C   C303      1.0  0.35350  0.95854  0.33121  1.0000
  C   C304      1.0  0.34869  0.97047  0.38260  1.0000
  C   C305      1.0  0.35953  0.99085  0.37532  1.0000
  H   H163      1.0  0.33736  0.96442  0.42696  1.0000
  H   H164      1.0  0.35562  0.99900  0.41385  1.0000
  C   C306      1.0  0.34295  0.93842  0.34054  1.0000
  H   H165      1.0  0.32908  0.93199  0.35897  1.0000
  C   C307      1.0  0.02811  0.64249  0.38585  1.0000
  C   C308      1.0  0.04830  0.65013  0.37835  1.0000
  H   H166      1.0  0.02155  0.63697  0.44611  1.0000
  H   H167      1.0  0.05578  0.64985  0.43356  1.0000
  C   C309      1.0  0.95468  0.61160  0.33107  1.0000
  C   C310      1.0  0.96660  0.62836  0.38235  1.0000
  C   C311      1.0  0.98698  0.63791  0.37504  1.0000
  H   H168      1.0  0.96055  0.63365  0.42661  1.0000
  H   H169      1.0  0.99513  0.64998  0.41349  1.0000
  C   C312      1.0  0.93455  0.60202  0.34044  1.0000
  H   H170      1.0  0.92812  0.60948  0.35854  1.0000
  C   C313      1.0  0.37452  0.39994  0.38594  1.0000
  C   C314      1.0  0.36687  0.41248  0.37844  1.0000
  H   H171      1.0  0.38006  0.39893  0.44619  1.0000
  H   H172      1.0  0.36721  0.42029  0.43359  1.0000
  C   C315      1.0  0.40538  0.35737  0.33122  1.0000
  C   C316      1.0  0.38864  0.35256  0.38261  1.0000
  C   C317      1.0  0.37910  0.36340  0.37532  1.0000
  H   H173      1.0  0.38336  0.34123  0.42698  1.0000
  H   H174      1.0  0.36704  0.35949  0.41387  1.0000
  C   C318      1.0  0.41495  0.34682  0.34055  1.0000
  H   H175      1.0  0.40751  0.33295  0.35897  1.0000
  C   C319      1.0  0.61707  0.98886  0.38581  1.0000
  C   C320      1.0  0.60452  0.96868  0.37830  1.0000
  H   H176      1.0  0.61810  0.99542  0.44607  1.0000
  H   H177      1.0  0.59675  0.96119  0.43351  1.0000
  C   C321      1.0  0.65962  0.06230  0.33107  1.0000
  C   C322      1.0  0.66445  0.05037  0.38235  1.0000
  C   C323      1.0  0.65361  0.02999  0.37503  1.0000
  H   H178      1.0  0.67579  0.05642  0.42661  1.0000
  H   H179      1.0  0.65754  0.02184  0.41348  1.0000
  C   C324      1.0  0.67017  0.08242  0.34044  1.0000
  H   H180      1.0  0.68405  0.08885  0.35854  1.0000
