data_image0
_chemical_formula_structural       C2HC3HCHCH3C4H2C2H2C2H2C2H2C2H2C2H2C4HCH3C4HCH3C3H3C4HCH3C4HCH3C2HC4HCH3C4HCH3C4HCH3C4HCH3C4HCH3C4HCH3CNCNCNC17H12CNCNCNC18H12CNCNCNC17H12CNCNCNC18H12CNCNCNC18H12CNCNCNC18H12CNCNCNC18H12CNCNCNC18H12CNCNCNC18H12CNCNCNC18H12CNCNCNC18H12CNCNCNC18H12C4HCH3C4HCH3C4HCH3C4HCH3C4HCH3C4HCH3C2H2C2H2CHC2H2C2H2CHC2H2C2H2C2H2C2H2C2H2C2H2
_chemical_formula_sum              "C378 H252 N36"
_cell_length_a       74.3829
_cell_length_b       74.383
_cell_length_c       14.9838
_cell_angle_alpha    90
_cell_angle_beta     90
_cell_angle_gamma    120

_space_group_name_H-M_alt    "P 1"
_space_group_IT_number       1

loop_
  _space_group_symop_operation_xyz
  'x, y, z'

loop_
  _atom_site_type_symbol
  _atom_site_label
  _atom_site_symmetry_multiplicity
  _atom_site_fract_x
  _atom_site_fract_y
  _atom_site_fract_z
  _atom_site_occupancy
  C   C1        1.0  0.01843  0.80437  0.33323  1.0000
  C   C2        1.0  0.00760  0.79892  0.25133  1.0000
  H   H1        1.0  0.01590  0.80306  0.19300  1.0000
  C   C3        1.0  0.00711  0.19537  0.24850  1.0000
  C   C4        1.0  0.01835  0.20096  0.33033  1.0000
  C   C5        1.0  0.01791  0.20081  0.16067  1.0000
  H   H2        1.0  0.00713  0.19544  0.10445  1.0000
  C   C6        1.0  0.00710  0.79871  0.41368  1.0000
  H   H3        1.0  0.01462  0.80250  0.47386  1.0000
  C   C7        1.0  0.00745  0.19549  0.41219  1.0000
  H   H4        1.0  0.01531  0.19940  0.47160  1.0000
  H   H5        1.0  0.02766  0.19375  0.15483  1.0000
  H   H6        1.0  0.02766  0.21763  0.15509  1.0000
  C   C8        1.0  0.04035  0.21189  0.33299  1.0000
  C   C9        1.0  0.04038  0.81542  0.33457  1.0000
  C   C10       1.0  0.19986  0.39868  0.25652  1.0000
  C   C11       1.0  0.18896  0.37687  0.25519  1.0000
  H   H7        1.0  0.20377  0.40652  0.19705  1.0000
  H   H8        1.0  0.18518  0.36932  0.19508  1.0000
  C   C12       1.0  0.58933  0.78810  0.25650  1.0000
  C   C13       1.0  0.61113  0.79901  0.25518  1.0000
  H   H9        1.0  0.58149  0.78417  0.19703  1.0000
  H   H10       1.0  0.61869  0.80278  0.19507  1.0000
  C   C14       1.0  0.19991  0.78816  0.25652  1.0000
  C   C15       1.0  0.18900  0.79905  0.25519  1.0000
  H   H11       1.0  0.20383  0.78424  0.19704  1.0000
  H   H12       1.0  0.18522  0.80283  0.19508  1.0000
  C   C16       1.0  0.79288  0.58462  0.25650  1.0000
  C   C17       1.0  0.80378  0.60643  0.25518  1.0000
  H   H13       1.0  0.78897  0.57678  0.19703  1.0000
  H   H14       1.0  0.80756  0.61398  0.19508  1.0000
  C   C18       1.0  0.40340  0.19518  0.25651  1.0000
  C   C19       1.0  0.38159  0.18428  0.25519  1.0000
  H   H15       1.0  0.41124  0.19910  0.19704  1.0000
  H   H16       1.0  0.37403  0.18050  0.19508  1.0000
  C   C20       1.0  0.79282  0.19513  0.25651  1.0000
  C   C21       1.0  0.80373  0.18424  0.25519  1.0000
  H   H17       1.0  0.78890  0.19905  0.19704  1.0000
  H   H18       1.0  0.80751  0.18046  0.19508  1.0000
  C   C22       1.0  0.18364  0.20099  0.33323  1.0000
  C   C23       1.0  0.18909  0.19561  0.25133  1.0000
  C   C24       1.0  0.20009  0.18463  0.24850  1.0000
  C   C25       1.0  0.20567  0.17897  0.33033  1.0000
  H   H19       1.0  0.18495  0.19976  0.19301  1.0000
  C   C26       1.0  0.20553  0.17927  0.16067  1.0000
  H   H20       1.0  0.20016  0.18468  0.10444  1.0000
  H   H21       1.0  0.19846  0.16245  0.15483  1.0000
  H   H22       1.0  0.22235  0.18633  0.15509  1.0000
  C   C27       1.0  0.78703  0.96958  0.33323  1.0000
  C   C28       1.0  0.79240  0.98041  0.25133  1.0000
  C   C29       1.0  0.80338  0.00239  0.24849  1.0000
  C   C30       1.0  0.80904  0.01363  0.33032  1.0000
  H   H23       1.0  0.78824  0.97211  0.19301  1.0000
  C   C31       1.0  0.80875  0.01319  0.16067  1.0000
  H   H24       1.0  0.80333  0.00241  0.10444  1.0000
  H   H25       1.0  0.82556  0.02294  0.15483  1.0000
  H   H26       1.0  0.80168  0.02295  0.15509  1.0000
  C   C32       1.0  0.98562  0.78792  0.24849  1.0000
  C   C33       1.0  0.97438  0.78234  0.33032  1.0000
  C   C34       1.0  0.97482  0.78248  0.16067  1.0000
  H   H27       1.0  0.98560  0.78785  0.10444  1.0000
  H   H28       1.0  0.96507  0.78955  0.15483  1.0000
  H   H29       1.0  0.96507  0.76566  0.15509  1.0000
  C   C35       1.0  0.80909  0.78231  0.33323  1.0000
  C   C36       1.0  0.80364  0.78768  0.25133  1.0000
  C   C37       1.0  0.79264  0.79866  0.24849  1.0000
  C   C38       1.0  0.78705  0.80432  0.33032  1.0000
  H   H30       1.0  0.80778  0.78353  0.19300  1.0000
  C   C39       1.0  0.78720  0.80403  0.16067  1.0000
  H   H31       1.0  0.79257  0.79861  0.10444  1.0000
  H   H32       1.0  0.79426  0.82084  0.15483  1.0000
  H   H33       1.0  0.77038  0.79696  0.15509  1.0000
  C   C40       1.0  0.20570  0.01371  0.33323  1.0000
  C   C41       1.0  0.20033  0.00288  0.25133  1.0000
  C   C42       1.0  0.18935  0.98090  0.24850  1.0000
  C   C43       1.0  0.18369  0.96966  0.33032  1.0000
  H   H34       1.0  0.20449  0.01118  0.19301  1.0000
  C   C44       1.0  0.18398  0.97010  0.16067  1.0000
  H   H35       1.0  0.18940  0.98088  0.10444  1.0000
  H   H36       1.0  0.16717  0.96035  0.15483  1.0000
  H   H37       1.0  0.19105  0.96035  0.15509  1.0000
  C   C45       1.0  0.97430  0.17892  0.33323  1.0000
  C   C46       1.0  0.98513  0.18437  0.25134  1.0000
  H   H38       1.0  0.97683  0.18023  0.19301  1.0000
  C   C47       1.0  0.21067  0.61797  0.33385  1.0000
  C   C48       1.0  0.20958  0.60803  0.25207  1.0000
  C   C49       1.0  0.20994  0.58917  0.24940  1.0000
  C   C50       1.0  0.21111  0.58003  0.33115  1.0000
  H   H39       1.0  0.21105  0.61583  0.19371  1.0000
  C   C51       1.0  0.21099  0.58039  0.16150  1.0000
  H   H40       1.0  0.20925  0.58876  0.10535  1.0000
  H   H41       1.0  0.19856  0.56425  0.15716  1.0000
  H   H42       1.0  0.22589  0.58101  0.15422  1.0000
  C   C52       1.0  0.37004  0.57966  0.33380  1.0000
  C   C53       1.0  0.37995  0.58853  0.25201  1.0000
  C   C54       1.0  0.39885  0.60769  0.24924  1.0000
  C   C55       1.0  0.40802  0.61799  0.33095  1.0000
  H   H43       1.0  0.37217  0.58214  0.19365  1.0000
  C   C56       1.0  0.40765  0.61752  0.16136  1.0000
  H   H44       1.0  0.39926  0.60742  0.10521  1.0000
  H   H45       1.0  0.42378  0.62117  0.15699  1.0000
  H   H46       1.0  0.40709  0.63183  0.15410  1.0000
  C   C57       1.0  0.40837  0.77731  0.33355  1.0000
  C   C58       1.0  0.39950  0.77841  0.25187  1.0000
  C   C59       1.0  0.38031  0.77810  0.24924  1.0000
  C   C60       1.0  0.37000  0.77692  0.33098  1.0000
  H   H47       1.0  0.40586  0.77697  0.19352  1.0000
  C   C61       1.0  0.37048  0.77708  0.16139  1.0000
  H   H48       1.0  0.38057  0.77882  0.10521  1.0000
  H   H49       1.0  0.36679  0.78954  0.15714  1.0000
  H   H50       1.0  0.35618  0.76220  0.15409  1.0000
  C   C62       1.0  0.78201  0.36529  0.33382  1.0000
  C   C63       1.0  0.78313  0.37527  0.25210  1.0000
  C   C64       1.0  0.78279  0.39414  0.24940  1.0000
  C   C65       1.0  0.78165  0.40328  0.33119  1.0000
  H   H51       1.0  0.78163  0.36747  0.19373  1.0000
  C   C66       1.0  0.78175  0.40293  0.16152  1.0000
  H   H52       1.0  0.78349  0.39456  0.10535  1.0000
  H   H53       1.0  0.79420  0.41907  0.15718  1.0000
  H   H54       1.0  0.76686  0.40233  0.15423  1.0000
  C   C67       1.0  0.62273  0.40364  0.33365  1.0000
  C   C68       1.0  0.61274  0.39476  0.25198  1.0000
  C   C69       1.0  0.59385  0.37559  0.24926  1.0000
  C   C70       1.0  0.58469  0.36528  0.33096  1.0000
  H   H55       1.0  0.62051  0.40114  0.19358  1.0000
  C   C71       1.0  0.58504  0.36577  0.16138  1.0000
  H   H56       1.0  0.59342  0.37586  0.10522  1.0000
  H   H57       1.0  0.56891  0.36210  0.15706  1.0000
  H   H58       1.0  0.58561  0.35146  0.15409  1.0000
  C   C72       1.0  0.58439  0.20601  0.33390  1.0000
  C   C73       1.0  0.59325  0.20493  0.25209  1.0000
  C   C74       1.0  0.61242  0.20521  0.24930  1.0000
  C   C75       1.0  0.62270  0.20632  0.33103  1.0000
  H   H59       1.0  0.58689  0.20638  0.19378  1.0000
  C   C76       1.0  0.62225  0.20625  0.16140  1.0000
  H   H60       1.0  0.61215  0.20455  0.10527  1.0000
  H   H61       1.0  0.62590  0.19378  0.15698  1.0000
  H   H62       1.0  0.63655  0.22112  0.15416  1.0000
  C   C77       1.0  0.13910  0.24497  0.33530  1.0000
  N   N1        1.0  0.14915  0.26608  0.33499  1.0000
  C   C78       1.0  0.13910  0.27713  0.33484  1.0000
  N   N2        1.0  0.11799  0.26608  0.33501  1.0000
  C   C79       1.0  0.10693  0.24497  0.33534  1.0000
  N   N3        1.0  0.11798  0.23491  0.33543  1.0000
  C   C80       1.0  0.15018  0.29930  0.33454  1.0000
  C   C81       1.0  0.17220  0.31072  0.33448  1.0000
  C   C82       1.0  0.18315  0.33257  0.33457  1.0000
  C   C83       1.0  0.17236  0.34366  0.33461  1.0000
  C   C84       1.0  0.15047  0.33257  0.33460  1.0000
  C   C85       1.0  0.13958  0.31072  0.33450  1.0000
  C   C86       1.0  0.15025  0.23395  0.33526  1.0000
  C   C87       1.0  0.17228  0.24460  0.33506  1.0000
  C   C88       1.0  0.18331  0.23378  0.33466  1.0000
  C   C89       1.0  0.17259  0.21189  0.33457  1.0000
  C   C90       1.0  0.15070  0.20105  0.33479  1.0000
  C   C91       1.0  0.13974  0.21194  0.33518  1.0000
  C   C92       1.0  0.08476  0.23395  0.33515  1.0000
  C   C93       1.0  0.07326  0.21194  0.33486  1.0000
  C   C94       1.0  0.05141  0.20105  0.33385  1.0000
  C   C95       1.0  0.05154  0.23378  0.33379  1.0000
  C   C96       1.0  0.07339  0.24460  0.33482  1.0000
  H   H63       1.0  0.19920  0.24199  0.33428  1.0000
  H   H64       1.0  0.18066  0.26047  0.33502  1.0000
  H   H65       1.0  0.14258  0.18515  0.33448  1.0000
  H   H66       1.0  0.12387  0.20346  0.33522  1.0000
  H   H67       1.0  0.08065  0.20347  0.33502  1.0000
  H   H68       1.0  0.04364  0.18516  0.33311  1.0000
  H   H69       1.0  0.08087  0.26047  0.33493  1.0000
  H   H70       1.0  0.04387  0.24200  0.33303  1.0000
  H   H71       1.0  0.12372  0.30328  0.33463  1.0000
  H   H72       1.0  0.14231  0.34029  0.33487  1.0000
  H   H73       1.0  0.19904  0.34030  0.33482  1.0000
  H   H74       1.0  0.18063  0.30328  0.33458  1.0000
  C   C97       1.0  0.74303  0.88106  0.33531  1.0000
  N   N4        1.0  0.72193  0.87000  0.33500  1.0000
  C   C98       1.0  0.71088  0.84889  0.33484  1.0000
  N   N5        1.0  0.72193  0.83884  0.33501  1.0000
  C   C99       1.0  0.74303  0.84889  0.33534  1.0000
  N   N6        1.0  0.75310  0.87000  0.33544  1.0000
  C   C100      1.0  0.68871  0.83781  0.33454  1.0000
  C   C101      1.0  0.67729  0.84840  0.33448  1.0000
  C   C102      1.0  0.65544  0.83751  0.33457  1.0000
  C   C103      1.0  0.64434  0.81562  0.33460  1.0000
  C   C104      1.0  0.65544  0.80483  0.33460  1.0000
  C   C105      1.0  0.67729  0.81579  0.33450  1.0000
  C   C106      1.0  0.75406  0.90323  0.33526  1.0000
  C   C107      1.0  0.74341  0.91461  0.33506  1.0000
  C   C108      1.0  0.75423  0.93646  0.33466  1.0000
  C   C109      1.0  0.77612  0.94763  0.33457  1.0000
  C   C110      1.0  0.78696  0.93658  0.33479  1.0000
  C   C111      1.0  0.77607  0.91473  0.33518  1.0000
  C   C112      1.0  0.75406  0.83773  0.33515  1.0000
  C   C113      1.0  0.77607  0.84825  0.33486  1.0000
  C   C114      1.0  0.78696  0.83728  0.33383  1.0000
  C   C115      1.0  0.77612  0.81539  0.33299  1.0000
  C   C116      1.0  0.75423  0.80469  0.33381  1.0000
  C   C117      1.0  0.74341  0.81571  0.33482  1.0000
  H   H75       1.0  0.74601  0.94413  0.33428  1.0000
  H   H76       1.0  0.72754  0.90712  0.33503  1.0000
  H   H77       1.0  0.80285  0.94436  0.33448  1.0000
  H   H78       1.0  0.78455  0.90734  0.33522  1.0000
  H   H79       1.0  0.78454  0.86412  0.33502  1.0000
  H   H80       1.0  0.80285  0.84540  0.33311  1.0000
  H   H81       1.0  0.72754  0.80732  0.33494  1.0000
  H   H82       1.0  0.74601  0.78880  0.33303  1.0000
  H   H83       1.0  0.68473  0.80736  0.33463  1.0000
  H   H84       1.0  0.64772  0.78894  0.33486  1.0000
  H   H85       1.0  0.64771  0.84567  0.33482  1.0000
  H   H86       1.0  0.68472  0.86427  0.33458  1.0000
  C   C118      1.0  0.10695  0.84891  0.33530  1.0000
  N   N7        1.0  0.11801  0.83886  0.33499  1.0000
  C   C119      1.0  0.13912  0.84891  0.33484  1.0000
  N   N8        1.0  0.14917  0.87002  0.33501  1.0000
  C   C120      1.0  0.13912  0.88108  0.33534  1.0000
  N   N9        1.0  0.11801  0.87003  0.33543  1.0000
  C   C121      1.0  0.15020  0.83783  0.33454  1.0000
  C   C122      1.0  0.13961  0.81581  0.33448  1.0000
  C   C123      1.0  0.15050  0.80486  0.33457  1.0000
  C   C124      1.0  0.17239  0.81565  0.33461  1.0000
  C   C125      1.0  0.18318  0.83754  0.33460  1.0000
  C   C126      1.0  0.17222  0.84843  0.33450  1.0000
  C   C127      1.0  0.08478  0.83776  0.33526  1.0000
  C   C128      1.0  0.07341  0.81573  0.33506  1.0000
  C   C129      1.0  0.05156  0.80471  0.33466  1.0000
  C   C130      1.0  0.05143  0.83731  0.33479  1.0000
  C   C131      1.0  0.07328  0.84827  0.33518  1.0000
  C   C132      1.0  0.15028  0.90325  0.33515  1.0000
  C   C133      1.0  0.13976  0.91475  0.33486  1.0000
  C   C134      1.0  0.15072  0.93660  0.33385  1.0000
  C   C135      1.0  0.17262  0.94766  0.33299  1.0000
  C   C136      1.0  0.18333  0.93647  0.33379  1.0000
  C   C137      1.0  0.17230  0.91462  0.33482  1.0000
  H   H87       1.0  0.04388  0.78882  0.33428  1.0000
  H   H88       1.0  0.08089  0.80734  0.33502  1.0000
  H   H89       1.0  0.04366  0.84543  0.33448  1.0000
  H   H90       1.0  0.08067  0.86414  0.33522  1.0000
  H   H91       1.0  0.12390  0.90736  0.33502  1.0000
  H   H92       1.0  0.14261  0.94437  0.33311  1.0000
  H   H93       1.0  0.18069  0.90714  0.33494  1.0000
  H   H94       1.0  0.19921  0.94414  0.33303  1.0000
  H   H95       1.0  0.18065  0.86430  0.33463  1.0000
  H   H96       1.0  0.19907  0.84570  0.33487  1.0000
  H   H97       1.0  0.14234  0.78897  0.33482  1.0000
  H   H98       1.0  0.12374  0.80738  0.33458  1.0000
  C   C138      1.0  0.85363  0.73832  0.33531  1.0000
  N   N10       1.0  0.84358  0.71722  0.33500  1.0000
  C   C139      1.0  0.85363  0.70616  0.33485  1.0000
  N   N11       1.0  0.87474  0.71722  0.33502  1.0000
  C   C140      1.0  0.88580  0.73832  0.33534  1.0000
  N   N12       1.0  0.87475  0.74839  0.33544  1.0000
  C   C141      1.0  0.84255  0.68400  0.33454  1.0000
  C   C142      1.0  0.82054  0.67258  0.33448  1.0000
  C   C143      1.0  0.80958  0.65073  0.33458  1.0000
  C   C144      1.0  0.82037  0.63963  0.33461  1.0000
  C   C145      1.0  0.84226  0.65073  0.33460  1.0000
  C   C146      1.0  0.85315  0.67258  0.33451  1.0000
  C   C147      1.0  0.84247  0.74935  0.33526  1.0000
  C   C148      1.0  0.82045  0.73869  0.33506  1.0000
  C   C149      1.0  0.80943  0.74952  0.33466  1.0000
  C   C150      1.0  0.82013  0.77141  0.33456  1.0000
  C   C151      1.0  0.84203  0.78225  0.33479  1.0000
  C   C152      1.0  0.85299  0.77136  0.33518  1.0000
  C   C153      1.0  0.90797  0.74935  0.33516  1.0000
  C   C154      1.0  0.91947  0.77136  0.33487  1.0000
  C   C155      1.0  0.94132  0.78224  0.33383  1.0000
  C   C156      1.0  0.95238  0.77140  0.33299  1.0000
  C   C157      1.0  0.94119  0.74951  0.33381  1.0000
  C   C158      1.0  0.91934  0.73869  0.33482  1.0000
  H   H99       1.0  0.79353  0.74130  0.33428  1.0000
  H   H100      1.0  0.81207  0.72282  0.33503  1.0000
  H   H101      1.0  0.85015  0.79814  0.33448  1.0000
  H   H102      1.0  0.86886  0.77983  0.33522  1.0000
  H   H103      1.0  0.91208  0.77983  0.33501  1.0000
  H   H104      1.0  0.94910  0.79813  0.33311  1.0000
  H   H105      1.0  0.91186  0.72282  0.33495  1.0000
  H   H106      1.0  0.94886  0.74130  0.33304  1.0000
  H   H107      1.0  0.86902  0.68002  0.33464  1.0000
  H   H108      1.0  0.85043  0.64301  0.33487  1.0000
  H   H109      1.0  0.79369  0.64300  0.33482  1.0000
  H   H110      1.0  0.81211  0.68001  0.33459  1.0000
  C   C159      1.0  0.24969  0.10223  0.33530  1.0000
  N   N13       1.0  0.27080  0.11329  0.33500  1.0000
  C   C160      1.0  0.28185  0.13440  0.33484  1.0000
  N   N14       1.0  0.27080  0.14445  0.33501  1.0000
  C   C161      1.0  0.24969  0.13440  0.33534  1.0000
  N   N15       1.0  0.23962  0.11329  0.33543  1.0000
  C   C162      1.0  0.30402  0.14548  0.33454  1.0000
  C   C163      1.0  0.31544  0.13489  0.33448  1.0000
  C   C164      1.0  0.33729  0.14578  0.33457  1.0000
  C   C165      1.0  0.34838  0.16767  0.33461  1.0000
  C   C166      1.0  0.33728  0.17846  0.33460  1.0000
  C   C167      1.0  0.31544  0.16750  0.33451  1.0000
  C   C168      1.0  0.23867  0.08006  0.33526  1.0000
  C   C169      1.0  0.24932  0.06869  0.33506  1.0000
  C   C170      1.0  0.23850  0.04684  0.33466  1.0000
  C   C171      1.0  0.21661  0.03566  0.33457  1.0000
  C   C172      1.0  0.20576  0.04671  0.33479  1.0000
  C   C173      1.0  0.21665  0.06856  0.33518  1.0000
  C   C174      1.0  0.23867  0.14556  0.33515  1.0000
  C   C175      1.0  0.21665  0.13504  0.33486  1.0000
  C   C176      1.0  0.20577  0.14601  0.33385  1.0000
  C   C177      1.0  0.21661  0.16790  0.33299  1.0000
  C   C178      1.0  0.23850  0.17861  0.33380  1.0000
  C   C179      1.0  0.24932  0.16758  0.33481  1.0000
  H   H111      1.0  0.24671  0.03916  0.33428  1.0000
  H   H112      1.0  0.26519  0.07617  0.33502  1.0000
  H   H113      1.0  0.18987  0.03893  0.33448  1.0000
  H   H114      1.0  0.20818  0.07595  0.33522  1.0000
  H   H115      1.0  0.20818  0.11918  0.33502  1.0000
  H   H116      1.0  0.18988  0.13789  0.33311  1.0000
  H   H117      1.0  0.26519  0.17597  0.33494  1.0000
  H   H118      1.0  0.24671  0.19449  0.33303  1.0000
  H   H119      1.0  0.30800  0.17593  0.33464  1.0000
  H   H120      1.0  0.34501  0.19435  0.33487  1.0000
  H   H121      1.0  0.34501  0.13761  0.33482  1.0000
  H   H122      1.0  0.30800  0.11902  0.33458  1.0000
  C   C180      1.0  0.88578  0.13439  0.33531  1.0000
  N   N16       1.0  0.87472  0.14443  0.33500  1.0000
  C   C181      1.0  0.85361  0.13438  0.33484  1.0000
  N   N17       1.0  0.84356  0.11327  0.33501  1.0000
  C   C182      1.0  0.85360  0.10221  0.33534  1.0000
  N   N18       1.0  0.87472  0.11327  0.33543  1.0000
  C   C183      1.0  0.84253  0.14546  0.33454  1.0000
  C   C184      1.0  0.85312  0.16748  0.33448  1.0000
  C   C185      1.0  0.84223  0.17843  0.33458  1.0000
  C   C186      1.0  0.82034  0.16764  0.33460  1.0000
  C   C187      1.0  0.80955  0.14575  0.33460  1.0000
  C   C188      1.0  0.82051  0.13486  0.33451  1.0000
  C   C189      1.0  0.90795  0.14554  0.33526  1.0000
  C   C190      1.0  0.91932  0.16756  0.33506  1.0000
  C   C191      1.0  0.94117  0.17858  0.33466  1.0000
  C   C192      1.0  0.95235  0.16788  0.33457  1.0000
  C   C193      1.0  0.94130  0.14598  0.33479  1.0000
  C   C194      1.0  0.91945  0.13502  0.33518  1.0000
  C   C195      1.0  0.84245  0.08004  0.33515  1.0000
  C   C196      1.0  0.85297  0.06854  0.33486  1.0000
  C   C197      1.0  0.84200  0.04669  0.33383  1.0000
  C   C198      1.0  0.82011  0.03564  0.33299  1.0000
  C   C199      1.0  0.80941  0.04682  0.33381  1.0000
  C   C200      1.0  0.82043  0.06867  0.33482  1.0000
  H   H123      1.0  0.94885  0.19448  0.33428  1.0000
  H   H124      1.0  0.91184  0.17595  0.33502  1.0000
  H   H125      1.0  0.94908  0.13786  0.33448  1.0000
  H   H126      1.0  0.91206  0.11915  0.33522  1.0000
  H   H127      1.0  0.86884  0.07593  0.33501  1.0000
  H   H128      1.0  0.85012  0.03892  0.33311  1.0000
  H   H129      1.0  0.81204  0.07615  0.33494  1.0000
  H   H130      1.0  0.79352  0.03915  0.33304  1.0000
  H   H131      1.0  0.81208  0.11900  0.33464  1.0000
  H   H132      1.0  0.79366  0.13759  0.33486  1.0000
  H   H133      1.0  0.85039  0.19432  0.33482  1.0000
  H   H134      1.0  0.86899  0.17591  0.33459  1.0000
  C   C201      1.0  0.24955  0.53019  0.33461  1.0000
  N   N19       1.0  0.23941  0.50910  0.33411  1.0000
  C   C202      1.0  0.24959  0.49809  0.33378  1.0000
  N   N20       1.0  0.27077  0.50906  0.33396  1.0000
  C   C203      1.0  0.28177  0.53015  0.33440  1.0000
  N   N21       1.0  0.27058  0.53998  0.33471  1.0000
  C   C204      1.0  0.23850  0.47593  0.33367  1.0000
  C   C205      1.0  0.21648  0.46452  0.33389  1.0000
  C   C206      1.0  0.20552  0.44268  0.33477  1.0000
  C   C207      1.0  0.21631  0.43158  0.33552  1.0000
  C   C208      1.0  0.23819  0.44266  0.33472  1.0000
  C   C209      1.0  0.24909  0.46450  0.33384  1.0000
  C   C210      1.0  0.23934  0.54212  0.33472  1.0000
  C   C211      1.0  0.21740  0.53280  0.33268  1.0000
  C   C212      1.0  0.20770  0.54497  0.33187  1.0000
  C   C213      1.0  0.21976  0.56683  0.33325  1.0000
  C   C214      1.0  0.24158  0.57625  0.33574  1.0000
  C   C215      1.0  0.25115  0.56412  0.33641  1.0000
  C   C216      1.0  0.30391  0.54203  0.33446  1.0000
  C   C217      1.0  0.31416  0.56403  0.33506  1.0000
  C   C218      1.0  0.33587  0.57610  0.33496  1.0000
  C   C219      1.0  0.34821  0.56660  0.33429  1.0000
  C   C220      1.0  0.33835  0.54473  0.33356  1.0000
  C   C221      1.0  0.31647  0.53263  0.33375  1.0000
  H   H135      1.0  0.19185  0.53781  0.32985  1.0000
  H   H136      1.0  0.20822  0.51699  0.33127  1.0000
  H   H137      1.0  0.25075  0.59209  0.33648  1.0000
  H   H138      1.0  0.26702  0.57178  0.33790  1.0000
  H   H139      1.0  0.30600  0.57174  0.33550  1.0000
  H   H140      1.0  0.34260  0.59194  0.33526  1.0000
  H   H141      1.0  0.30980  0.51682  0.33324  1.0000
  H   H142      1.0  0.34699  0.53752  0.33294  1.0000
  H   H143      1.0  0.26496  0.47193  0.33378  1.0000
  H   H144      1.0  0.24635  0.43493  0.33545  1.0000
  H   H145      1.0  0.18963  0.43496  0.33553  1.0000
  H   H146      1.0  0.20805  0.47196  0.33386  1.0000
  C   C222      1.0  0.45781  0.70627  0.33475  1.0000
  N   N22       1.0  0.47891  0.71723  0.33422  1.0000
  C   C223      1.0  0.48992  0.73841  0.33388  1.0000
  N   N23       1.0  0.47895  0.74863  0.33407  1.0000
  C   C224      1.0  0.45786  0.73853  0.33454  1.0000
  N   N24       1.0  0.44803  0.71751  0.33486  1.0000
  C   C225      1.0  0.51208  0.74948  0.33373  1.0000
  C   C226      1.0  0.52349  0.73888  0.33393  1.0000
  C   C227      1.0  0.54533  0.74976  0.33478  1.0000
  C   C228      1.0  0.55644  0.77165  0.33550  1.0000
  C   C229      1.0  0.54534  0.78245  0.33471  1.0000
  C   C230      1.0  0.52351  0.77150  0.33387  1.0000
  C   C231      1.0  0.44589  0.68413  0.33484  1.0000
  C   C232      1.0  0.45522  0.67153  0.33277  1.0000
  C   C233      1.0  0.44306  0.64965  0.33189  1.0000
  C   C234      1.0  0.42120  0.63985  0.33327  1.0000
  C   C235      1.0  0.41177  0.65224  0.33574  1.0000
  C   C236      1.0  0.42390  0.67394  0.33649  1.0000
  C   C237      1.0  0.44599  0.74880  0.33457  1.0000
  C   C238      1.0  0.42399  0.73706  0.33512  1.0000
  C   C239      1.0  0.41192  0.74670  0.33494  1.0000
  C   C240      1.0  0.42143  0.76854  0.33427  1.0000
  C   C241      1.0  0.44329  0.78054  0.33357  1.0000
  C   C242      1.0  0.45539  0.77075  0.33383  1.0000
  H   H147      1.0  0.45022  0.64096  0.32984  1.0000
  H   H148      1.0  0.47103  0.67815  0.33138  1.0000
  H   H149      1.0  0.39593  0.64556  0.33643  1.0000
  H   H150      1.0  0.41623  0.68215  0.33797  1.0000
  H   H151      1.0  0.41627  0.72118  0.33557  1.0000
  H   H152      1.0  0.39607  0.73758  0.33518  1.0000
  H   H153      1.0  0.47120  0.77990  0.33333  1.0000
  H   H154      1.0  0.45050  0.79640  0.33289  1.0000
  H   H155      1.0  0.51608  0.77994  0.33383  1.0000
  H   H156      1.0  0.55308  0.79834  0.33545  1.0000
  H   H157      1.0  0.55306  0.74160  0.33554  1.0000
  H   H158      1.0  0.51605  0.72301  0.33392  1.0000
  C   C243      1.0  0.28172  0.73845  0.33468  1.0000
  N   N25       1.0  0.27077  0.74860  0.33417  1.0000
  C   C244      1.0  0.24958  0.73842  0.33380  1.0000
  N   N26       1.0  0.23937  0.71724  0.33395  1.0000
  C   C245      1.0  0.24946  0.70624  0.33440  1.0000
  N   N27       1.0  0.27048  0.71743  0.33474  1.0000
  C   C246      1.0  0.23851  0.74951  0.33368  1.0000
  C   C247      1.0  0.24912  0.77153  0.33391  1.0000
  C   C248      1.0  0.23824  0.78249  0.33478  1.0000
  C   C249      1.0  0.21635  0.77171  0.33552  1.0000
  C   C250      1.0  0.20555  0.74982  0.33472  1.0000
  C   C251      1.0  0.21650  0.73893  0.33384  1.0000
  C   C252      1.0  0.30386  0.74867  0.33480  1.0000
  C   C253      1.0  0.31647  0.77060  0.33273  1.0000
  C   C254      1.0  0.33834  0.78031  0.33187  1.0000
  C   C255      1.0  0.34814  0.76826  0.33329  1.0000
  C   C256      1.0  0.33575  0.74643  0.33580  1.0000
  C   C257      1.0  0.31405  0.73686  0.33652  1.0000
  C   C258      1.0  0.23919  0.68410  0.33442  1.0000
  C   C259      1.0  0.25093  0.67384  0.33500  1.0000
  C   C260      1.0  0.24128  0.65213  0.33490  1.0000
  C   C261      1.0  0.21945  0.63980  0.33426  1.0000
  C   C262      1.0  0.20745  0.64967  0.33353  1.0000
  C   C263      1.0  0.21724  0.67155  0.33372  1.0000
  H   H159      1.0  0.34704  0.79617  0.32978  1.0000
  H   H160      1.0  0.30985  0.77979  0.33128  1.0000
  H   H161      1.0  0.34242  0.73727  0.33652  1.0000
  H   H162      1.0  0.30584  0.72099  0.33802  1.0000
  H   H163      1.0  0.26681  0.68200  0.33544  1.0000
  H   H164      1.0  0.25040  0.64540  0.33521  1.0000
  H   H165      1.0  0.20809  0.67822  0.33323  1.0000
  H   H166      1.0  0.19159  0.64102  0.33295  1.0000
  H   H167      1.0  0.20805  0.72306  0.33378  1.0000
  H   H168      1.0  0.18966  0.74166  0.33544  1.0000
  H   H169      1.0  0.24641  0.79838  0.33554  1.0000
  H   H170      1.0  0.26499  0.77996  0.33388  1.0000
  C   C264      1.0  0.74320  0.45311  0.33463  1.0000
  N   N28       1.0  0.75334  0.47420  0.33412  1.0000
  C   C265      1.0  0.74316  0.48521  0.33381  1.0000
  N   N29       1.0  0.72197  0.47424  0.33400  1.0000
  C   C266      1.0  0.71098  0.45315  0.33446  1.0000
  N   N30       1.0  0.72217  0.44332  0.33475  1.0000
  C   C267      1.0  0.75425  0.50737  0.33368  1.0000
  C   C268      1.0  0.77626  0.51878  0.33389  1.0000
  C   C269      1.0  0.78722  0.54062  0.33476  1.0000
  C   C270      1.0  0.77643  0.55172  0.33550  1.0000
  C   C271      1.0  0.75455  0.54064  0.33470  1.0000
  C   C272      1.0  0.74365  0.51880  0.33385  1.0000
  C   C273      1.0  0.75341  0.44118  0.33472  1.0000
  C   C274      1.0  0.77535  0.45051  0.33268  1.0000
  C   C275      1.0  0.78506  0.43834  0.33187  1.0000
  C   C276      1.0  0.77299  0.41648  0.33323  1.0000
  C   C277      1.0  0.75117  0.40706  0.33572  1.0000
  C   C278      1.0  0.74160  0.41919  0.33640  1.0000
  C   C279      1.0  0.68884  0.44127  0.33452  1.0000
  C   C280      1.0  0.67859  0.41927  0.33513  1.0000
  C   C281      1.0  0.65688  0.40720  0.33500  1.0000
  C   C282      1.0  0.64454  0.41670  0.33430  1.0000
  C   C283      1.0  0.65440  0.43856  0.33354  1.0000
  C   C284      1.0  0.67628  0.45066  0.33377  1.0000
  H   H171      1.0  0.80091  0.44549  0.32989  1.0000
  H   H172      1.0  0.78453  0.46631  0.33131  1.0000
  H   H173      1.0  0.74201  0.39122  0.33648  1.0000
  H   H174      1.0  0.72573  0.41152  0.33789  1.0000
  H   H175      1.0  0.68675  0.41156  0.33560  1.0000
  H   H176      1.0  0.65016  0.39136  0.33528  1.0000
  H   H177      1.0  0.68294  0.46648  0.33322  1.0000
  H   H178      1.0  0.64575  0.44577  0.33286  1.0000
  H   H179      1.0  0.72779  0.51137  0.33379  1.0000
  H   H180      1.0  0.74639  0.54837  0.33544  1.0000
  H   H181      1.0  0.80311  0.54835  0.33553  1.0000
  H   H182      1.0  0.78470  0.51135  0.33387  1.0000
  C   C285      1.0  0.53490  0.27700  0.33468  1.0000
  N   N31       1.0  0.51381  0.26605  0.33416  1.0000
  C   C286      1.0  0.50281  0.24486  0.33381  1.0000
  N   N32       1.0  0.51378  0.23465  0.33396  1.0000
  C   C287      1.0  0.53487  0.24475  0.33441  1.0000
  N   N33       1.0  0.54470  0.26577  0.33475  1.0000
  C   C288      1.0  0.48065  0.23379  0.33368  1.0000
  C   C289      1.0  0.46923  0.24440  0.33391  1.0000
  C   C290      1.0  0.44739  0.23351  0.33477  1.0000
  C   C291      1.0  0.43629  0.21163  0.33551  1.0000
  C   C292      1.0  0.44738  0.20083  0.33472  1.0000
  C   C293      1.0  0.46922  0.21177  0.33384  1.0000
  C   C294      1.0  0.54682  0.29914  0.33480  1.0000
  C   C295      1.0  0.53749  0.31175  0.33274  1.0000
  C   C296      1.0  0.54965  0.33362  0.33189  1.0000
  C   C297      1.0  0.57151  0.34343  0.33325  1.0000
  C   C298      1.0  0.58094  0.33104  0.33575  1.0000
  C   C299      1.0  0.56882  0.30934  0.33647  1.0000
  C   C300      1.0  0.54675  0.23449  0.33444  1.0000
  C   C301      1.0  0.56875  0.24624  0.33503  1.0000
  C   C302      1.0  0.58082  0.23660  0.33495  1.0000
  C   C303      1.0  0.57133  0.21477  0.33428  1.0000
  C   C304      1.0  0.54946  0.20276  0.33356  1.0000
  C   C305      1.0  0.53736  0.21254  0.33374  1.0000
  H   H183      1.0  0.54248  0.34231  0.32982  1.0000
  H   H184      1.0  0.52168  0.30512  0.33133  1.0000
  H   H185      1.0  0.59678  0.33772  0.33645  1.0000
  H   H186      1.0  0.57649  0.30114  0.33796  1.0000
  H   H187      1.0  0.57646  0.26212  0.33548  1.0000
  H   H188      1.0  0.59667  0.24573  0.33527  1.0000
  H   H189      1.0  0.52155  0.20339  0.33324  1.0000
  H   H190      1.0  0.54226  0.18690  0.33297  1.0000
  H   H191      1.0  0.47664  0.20333  0.33379  1.0000
  H   H192      1.0  0.43965  0.18494  0.33544  1.0000
  H   H193      1.0  0.43967  0.24168  0.33554  1.0000
  H   H194      1.0  0.47667  0.26026  0.33388  1.0000
  C   C306      1.0  0.71099  0.24482  0.33464  1.0000
  N   N34       1.0  0.72195  0.23468  0.33413  1.0000
  C   C307      1.0  0.74313  0.24486  0.33379  1.0000
  N   N35       1.0  0.75335  0.26604  0.33395  1.0000
  C   C308      1.0  0.74325  0.27704  0.33440  1.0000
  N   N36       1.0  0.72223  0.26584  0.33472  1.0000
  C   C309      1.0  0.75420  0.23377  0.33367  1.0000
  C   C310      1.0  0.74360  0.21175  0.33389  1.0000
  C   C311      1.0  0.75448  0.20079  0.33478  1.0000
  C   C312      1.0  0.77637  0.21158  0.33550  1.0000
  C   C313      1.0  0.78717  0.23347  0.33470  1.0000
  C   C314      1.0  0.77622  0.24436  0.33384  1.0000
  C   C315      1.0  0.68885  0.23460  0.33475  1.0000
  C   C316      1.0  0.67625  0.21266  0.33271  1.0000
  C   C317      1.0  0.65437  0.20294  0.33188  1.0000
  C   C318      1.0  0.64457  0.21500  0.33326  1.0000
  C   C319      1.0  0.65696  0.23682  0.33572  1.0000
  C   C320      1.0  0.67866  0.24640  0.33642  1.0000
  C   C321      1.0  0.75352  0.29918  0.33443  1.0000
  C   C322      1.0  0.74177  0.30943  0.33500  1.0000
  C   C323      1.0  0.75142  0.33114  0.33490  1.0000
  C   C324      1.0  0.77325  0.34347  0.33425  1.0000
  C   C325      1.0  0.78525  0.33361  0.33355  1.0000
  C   C326      1.0  0.77547  0.31173  0.33373  1.0000
  H   H195      1.0  0.64568  0.18710  0.32986  1.0000
  H   H196      1.0  0.68287  0.20348  0.33132  1.0000
  H   H197      1.0  0.65028  0.24598  0.33643  1.0000
  H   H198      1.0  0.68686  0.26227  0.33789  1.0000
  H   H199      1.0  0.72590  0.30127  0.33544  1.0000
  H   H200      1.0  0.74230  0.33787  0.33520  1.0000
  H   H201      1.0  0.78462  0.30506  0.33325  1.0000
  H   H202      1.0  0.80111  0.34225  0.33296  1.0000
  H   H203      1.0  0.78466  0.26023  0.33378  1.0000
  H   H204      1.0  0.80306  0.24163  0.33544  1.0000
  H   H205      1.0  0.74632  0.18490  0.33554  1.0000
  H   H206      1.0  0.72773  0.20332  0.33388  1.0000
  C   C327      1.0  0.18332  0.36559  0.33576  1.0000
  C   C328      1.0  0.18874  0.37644  0.41761  1.0000
  C   C329      1.0  0.19973  0.39841  0.42029  1.0000
  C   C330      1.0  0.20531  0.40960  0.33833  1.0000
  H   H207      1.0  0.18461  0.36816  0.47599  1.0000
  C   C331      1.0  0.20516  0.40926  0.50802  1.0000
  H   H208      1.0  0.19978  0.39850  0.56434  1.0000
  H   H209      1.0  0.19809  0.41901  0.51367  1.0000
  H   H210      1.0  0.22197  0.41901  0.51363  1.0000
  C   C332      1.0  0.62242  0.80466  0.33576  1.0000
  C   C333      1.0  0.61157  0.79923  0.41761  1.0000
  C   C334      1.0  0.58959  0.78824  0.42028  1.0000
  C   C335      1.0  0.57841  0.78264  0.33831  1.0000
  H   H211      1.0  0.61985  0.80338  0.47599  1.0000
  C   C336      1.0  0.57875  0.78282  0.50801  1.0000
  H   H212      1.0  0.58951  0.78821  0.56433  1.0000
  H   H213      1.0  0.56900  0.76600  0.51366  1.0000
  H   H214      1.0  0.56899  0.78988  0.51362  1.0000
  C   C337      1.0  0.18335  0.80469  0.33576  1.0000
  C   C338      1.0  0.18878  0.79927  0.41761  1.0000
  C   C339      1.0  0.19977  0.78828  0.42029  1.0000
  C   C340      1.0  0.20537  0.78270  0.33833  1.0000
  H   H215      1.0  0.18463  0.80340  0.47599  1.0000
  C   C341      1.0  0.20518  0.78286  0.50802  1.0000
  H   H216      1.0  0.19980  0.78823  0.56434  1.0000
  H   H217      1.0  0.22200  0.78992  0.51367  1.0000
  H   H218      1.0  0.19812  0.76604  0.51363  1.0000
  C   C342      1.0  0.80941  0.61771  0.33576  1.0000
  C   C343      1.0  0.80399  0.60686  0.41761  1.0000
  C   C344      1.0  0.79301  0.58488  0.42028  1.0000
  C   C345      1.0  0.78742  0.57370  0.33832  1.0000
  H   H219      1.0  0.80812  0.61513  0.47599  1.0000
  C   C346      1.0  0.78758  0.57404  0.50801  1.0000
  H   H220      1.0  0.79295  0.58480  0.56434  1.0000
  H   H221      1.0  0.79464  0.56429  0.51366  1.0000
  H   H222      1.0  0.77076  0.56428  0.51362  1.0000
  C   C347      1.0  0.37031  0.17863  0.33576  1.0000
  C   C348      1.0  0.38115  0.18405  0.41761  1.0000
  C   C349      1.0  0.40313  0.19504  0.42029  1.0000
  C   C350      1.0  0.41431  0.20064  0.33832  1.0000
  H   H223      1.0  0.37288  0.17991  0.47599  1.0000
  C   C351      1.0  0.41397  0.20046  0.50802  1.0000
  H   H224      1.0  0.40322  0.19508  0.56434  1.0000
  H   H225      1.0  0.42373  0.21728  0.51366  1.0000
  H   H226      1.0  0.42373  0.19340  0.51363  1.0000
  C   C352      1.0  0.80937  0.17860  0.33576  1.0000
  C   C353      1.0  0.80395  0.18402  0.41761  1.0000
  C   C354      1.0  0.79296  0.19501  0.42028  1.0000
  C   C355      1.0  0.78736  0.20059  0.33832  1.0000
  H   H227      1.0  0.80810  0.17989  0.47599  1.0000
  C   C356      1.0  0.78754  0.20043  0.50801  1.0000
  H   H228      1.0  0.79293  0.19506  0.56434  1.0000
  H   H229      1.0  0.77072  0.19337  0.51366  1.0000
  H   H230      1.0  0.79460  0.21725  0.51362  1.0000
  C   C357      1.0  0.20021  0.18441  0.41219  1.0000
  C   C358      1.0  0.18930  0.19531  0.41368  1.0000
  H   H231      1.0  0.20411  0.18046  0.47160  1.0000
  H   H232      1.0  0.18551  0.19905  0.47386  1.0000
  C   C359      1.0  0.80360  0.00273  0.41219  1.0000
  C   C360      1.0  0.79270  0.98091  0.41368  1.0000
  H   H233      1.0  0.80755  0.01059  0.47160  1.0000
  H   H234      1.0  0.78896  0.97339  0.47386  1.0000
  C   C361      1.0  0.98528  0.78780  0.41219  1.0000
  H   H235      1.0  0.97742  0.78390  0.47160  1.0000
  C   C362      1.0  0.79251  0.79888  0.41218  1.0000
  C   C363      1.0  0.80343  0.78798  0.41368  1.0000
  H   H236      1.0  0.78861  0.80284  0.47160  1.0000
  H   H237      1.0  0.80722  0.78424  0.47385  1.0000
  C   C364      1.0  0.18913  0.98056  0.41219  1.0000
  C   C365      1.0  0.20003  0.00238  0.41368  1.0000
  H   H238      1.0  0.18517  0.97270  0.47160  1.0000
  H   H239      1.0  0.20377  0.00990  0.47386  1.0000
  C   C366      1.0  0.98563  0.18458  0.41368  1.0000
  H   H240      1.0  0.97811  0.18079  0.47386  1.0000
  C   C367      1.0  0.21048  0.58918  0.41293  1.0000
  C   C368      1.0  0.21038  0.60801  0.41433  1.0000
  H   H241      1.0  0.21269  0.58364  0.47206  1.0000
  H   H242      1.0  0.21261  0.61554  0.47405  1.0000
  C   C369      1.0  0.39885  0.60824  0.41283  1.0000
  C   C370      1.0  0.38003  0.58931  0.41427  1.0000
  H   H243      1.0  0.40440  0.61604  0.47188  1.0000
  H   H244      1.0  0.37248  0.58409  0.47401  1.0000
  C   C371      1.0  0.37977  0.77749  0.41273  1.0000
  C   C372      1.0  0.39873  0.77765  0.41411  1.0000
  H   H245      1.0  0.37201  0.77524  0.47188  1.0000
  H   H246      1.0  0.40397  0.77530  0.47376  1.0000
  C   C373      1.0  0.78231  0.39415  0.41297  1.0000
  C   C374      1.0  0.78239  0.37532  0.41429  1.0000
  H   H247      1.0  0.78007  0.39970  0.47205  1.0000
  H   H248      1.0  0.78011  0.36775  0.47397  1.0000
  C   C375      1.0  0.59384  0.37507  0.41279  1.0000
  C   C376      1.0  0.61272  0.39395  0.41409  1.0000
  H   H249      1.0  0.58836  0.36728  0.47188  1.0000
  H   H250      1.0  0.62025  0.39920  0.47384  1.0000
  C   C377      1.0  0.61297  0.20575  0.41291  1.0000
  C   C378      1.0  0.59405  0.20565  0.41435  1.0000
  H   H251      1.0  0.62074  0.20795  0.47201  1.0000
  H   H252      1.0  0.58879  0.20795  0.47404  1.0000
