data_image0
_chemical_formula_structural       C3HNC3HC4H2OC2HC3HNC3HC4H2OC2H2CH2N4HNCH2C2H2C4H3O2HCH2N4HNCH2C2H2C4H3O2C3HC2HN2C3H2C2NCH2C4HC2H3C3HC2HN2C3H2C2NCH2C4HC2H3C3H2C3H2C3H2N6C3NH2C2NCH2C3NH2C4HCHOC4HC2H3OC4HC2H3OC3H2C3H2C3H2N6C3NH2C2NCH2C3NH2C4HCHOC4HC2H3OC4HC2H3OC3HC3H3C3HC3H3C3HC3H3N12C3NC3NH4C3NC3NH4C3NC3NH4C4HC2H3OC4HC2H3OC4HC2H3OC4HC2H3OC4HC2H3OC4HC2H3OC3HC3H3C3HC3H3C3HC3H3N12C3NC3NH4C3NC3NH4C3NC3NH4C4HC2H3OC4HC2H3OC4HC2H3OC4HC2H3OC4HC2H3OC4HC2H3O
_chemical_formula_sum              "C288 H192 N72 O24"
_cell_length_a       46.4743
_cell_length_b       46.4743
_cell_length_c       14.8367
_cell_angle_alpha    90
_cell_angle_beta     90
_cell_angle_gamma    120

_space_group_name_H-M_alt    "P 1"
_space_group_IT_number       1

loop_
  _space_group_symop_operation_xyz
  'x, y, z'

loop_
  _atom_site_type_symbol
  _atom_site_label
  _atom_site_symmetry_multiplicity
  _atom_site_fract_x
  _atom_site_fract_y
  _atom_site_fract_z
  _atom_site_occupancy
  C   C1        1.0  0.02505  0.26339  0.34835  1.0000
  C   C2        1.0  0.08079  0.31443  0.37153  1.0000
  C   C3        1.0  0.04599  0.29876  0.35671  1.0000
  H   H1        1.0  0.03665  0.31416  0.34604  1.0000
  N   N1        1.0  0.11627  0.25810  0.27383  1.0000
  C   C4        1.0  0.04301  0.24566  0.34397  1.0000
  C   C5        1.0  0.07689  0.25957  0.36818  1.0000
  C   C6        1.0  0.09418  0.29361  0.39314  1.0000
  H   H2        1.0  0.03164  0.22163  0.32280  1.0000
  C   C7        1.0  0.10748  0.22954  0.41122  1.0000
  C   C8        1.0  0.09592  0.24410  0.34618  1.0000
  C   C9        1.0  0.08983  0.21588  0.49039  1.0000
  C   C10       1.0  0.10244  0.22962  0.57893  1.0000
  H   H3        1.0  0.10001  0.20990  0.62375  1.0000
  H   H4        1.0  0.08813  0.24034  0.60674  1.0000
  O   O1        1.0  0.06029  0.19513  0.48432  1.0000
  C   C11       1.0  0.10373  0.34882  0.35650  1.0000
  C   C12       1.0  0.10505  0.37630  0.40183  1.0000
  H   H5        1.0  0.08561  0.37218  0.44282  1.0000
  C   C13       1.0  0.02505  0.76340  0.34835  1.0000
  C   C14       1.0  0.08079  0.81442  0.37153  1.0000
  C   C15       1.0  0.04599  0.79876  0.35671  1.0000
  H   H6        1.0  0.03665  0.81416  0.34604  1.0000
  N   N2        1.0  0.11627  0.75809  0.27383  1.0000
  C   C16       1.0  0.04301  0.74566  0.34397  1.0000
  C   C17       1.0  0.07689  0.75957  0.36818  1.0000
  C   C18       1.0  0.09418  0.79361  0.39314  1.0000
  H   H7        1.0  0.03164  0.72163  0.32280  1.0000
  C   C19       1.0  0.10748  0.72954  0.41122  1.0000
  C   C20       1.0  0.09593  0.74410  0.34618  1.0000
  C   C21       1.0  0.08983  0.71588  0.49039  1.0000
  C   C22       1.0  0.10244  0.72962  0.57893  1.0000
  H   H8        1.0  0.10001  0.70990  0.62375  1.0000
  H   H9        1.0  0.08813  0.74034  0.60674  1.0000
  O   O2        1.0  0.06029  0.69513  0.48432  1.0000
  C   C23       1.0  0.10373  0.84882  0.35650  1.0000
  C   C24       1.0  0.10505  0.87630  0.40183  1.0000
  H   H10       1.0  0.08562  0.87218  0.44282  1.0000
  H   H11       1.0  0.13149  0.32774  0.47239  1.0000
  C   C25       1.0  0.19425  0.26551  0.32949  1.0000
  H   H12       1.0  0.19962  0.22367  0.33649  1.0000
  H   H13       1.0  0.17176  0.30594  0.36784  1.0000
  N   N3        1.0  0.14495  0.25969  0.26254  1.0000
  N   N4        1.0  0.15906  0.38359  0.31181  1.0000
  N   N5        1.0  0.13156  0.35530  0.31035  1.0000
  N   N6        1.0  0.12246  0.30612  0.44387  1.0000
  H   H14       1.0  0.12917  0.29150  0.47106  1.0000
  N   N7        1.0  0.19485  0.31751  0.35265  1.0000
  C   C26       1.0  0.19851  0.43316  0.37798  1.0000
  H   H15       1.0  0.18263  0.38103  0.47773  1.0000
  H   H16       1.0  0.20087  0.47824  0.34666  1.0000
  C   C27       1.0  0.15878  0.24791  0.32248  1.0000
  C   C28       1.0  0.13860  0.23097  0.39778  1.0000
  H   H17       1.0  0.14858  0.22393  0.44892  1.0000
  H   H18       1.0  0.12858  0.24897  0.57728  1.0000
  C   C29       1.0  0.13556  0.40741  0.40566  1.0000
  C   C30       1.0  0.16413  0.41059  0.36013  1.0000
  C   C31       1.0  0.13733  0.43097  0.46624  1.0000
  C   C32       1.0  0.15045  0.43214  0.55572  1.0000
  H   H19       1.0  0.14365  0.44636  0.60077  1.0000
  H   H20       1.0  0.17751  0.44399  0.55406  1.0000
  H   H21       1.0  0.14027  0.40719  0.58382  1.0000
  O   O3        1.0  0.14345  0.45755  0.43324  1.0000
  O   O4        1.0  0.19219  0.14250  0.43901  1.0000
  H   H22       1.0  0.13149  0.82774  0.47238  1.0000
  C   C33       1.0  0.19425  0.76551  0.32949  1.0000
  H   H23       1.0  0.19962  0.72367  0.33649  1.0000
  H   H24       1.0  0.17176  0.80594  0.36784  1.0000
  N   N8        1.0  0.14495  0.75969  0.26253  1.0000
  N   N9        1.0  0.15906  0.88359  0.31181  1.0000
  N   N10       1.0  0.13156  0.85530  0.31035  1.0000
  N   N11       1.0  0.12246  0.80612  0.44387  1.0000
  H   H25       1.0  0.12917  0.79150  0.47106  1.0000
  N   N12       1.0  0.19485  0.81751  0.35265  1.0000
  C   C34       1.0  0.19851  0.93315  0.37798  1.0000
  H   H26       1.0  0.18263  0.88103  0.47773  1.0000
  H   H27       1.0  0.20087  0.97824  0.34666  1.0000
  C   C35       1.0  0.15878  0.74791  0.32248  1.0000
  C   C36       1.0  0.13860  0.73097  0.39778  1.0000
  H   H28       1.0  0.14858  0.72393  0.44892  1.0000
  H   H29       1.0  0.12857  0.74897  0.57728  1.0000
  C   C37       1.0  0.13556  0.90741  0.40566  1.0000
  C   C38       1.0  0.16413  0.91059  0.36013  1.0000
  C   C39       1.0  0.13732  0.93097  0.46624  1.0000
  C   C40       1.0  0.15045  0.93214  0.55572  1.0000
  H   H30       1.0  0.14365  0.94636  0.60077  1.0000
  H   H31       1.0  0.17751  0.94400  0.55406  1.0000
  H   H32       1.0  0.14027  0.90719  0.58382  1.0000
  O   O5        1.0  0.14345  0.95756  0.43324  1.0000
  O   O6        1.0  0.19219  0.64250  0.43901  1.0000
  C   C41       1.0  0.24855  0.26563  0.34230  1.0000
  C   C42       1.0  0.21297  0.24896  0.33731  1.0000
  C   C43       1.0  0.25306  0.04396  0.36135  1.0000
  H   H33       1.0  0.22796  0.03341  0.35455  1.0000
  C   C44       1.0  0.25071  0.48798  0.35572  1.0000
  C   C45       1.0  0.25273  0.43574  0.38154  1.0000
  H   H34       1.0  0.21852  0.38263  0.48048  1.0000
  N   N13       1.0  0.25534  0.36942  0.27398  1.0000
  N   N14       1.0  0.25651  0.39787  0.28499  1.0000
  C   C46       1.0  0.25284  0.21335  0.35910  1.0000
  C   C47       1.0  0.24730  0.31915  0.33493  1.0000
  C   C48       1.0  0.21182  0.30104  0.33468  1.0000
  H   H35       1.0  0.20588  0.34048  0.37012  1.0000
  H   H36       1.0  0.22824  0.19835  0.34596  1.0000
  C   C49       1.0  0.21522  0.46797  0.36110  1.0000
  C   C50       1.0  0.21843  0.41901  0.40314  1.0000
  N   N15       1.0  0.20475  0.39029  0.45230  1.0000
  C   C51       1.0  0.26254  0.34494  0.56398  1.0000
  H   H37       1.0  0.26268  0.36454  0.60496  1.0000
  H   H38       1.0  0.23744  0.32892  0.53822  1.0000
  C   C52       1.0  0.25971  0.10167  0.35724  1.0000
  C   C53       1.0  0.23444  0.10372  0.40524  1.0000
  C   C54       1.0  0.23431  0.13447  0.40910  1.0000
  C   C55       1.0  0.25962  0.16278  0.36245  1.0000
  H   H39       1.0  0.21937  0.08451  0.44719  1.0000
  C   C56       1.0  0.21312  0.13675  0.47058  1.0000
  C   C57       1.0  0.22570  0.15075  0.55901  1.0000
  H   H40       1.0  0.20503  0.14396  0.60537  1.0000
  H   H41       1.0  0.24049  0.17782  0.55559  1.0000
  H   H42       1.0  0.24110  0.14122  0.58671  1.0000
  C   C58       1.0  0.24855  0.76563  0.34230  1.0000
  C   C59       1.0  0.21296  0.74896  0.33731  1.0000
  C   C60       1.0  0.25306  0.54396  0.36135  1.0000
  H   H43       1.0  0.22796  0.53341  0.35455  1.0000
  C   C61       1.0  0.25071  0.98798  0.35572  1.0000
  C   C62       1.0  0.25273  0.93574  0.38154  1.0000
  H   H44       1.0  0.21852  0.88263  0.48048  1.0000
  N   N16       1.0  0.25534  0.86942  0.27398  1.0000
  N   N17       1.0  0.25651  0.89787  0.28499  1.0000
  C   C63       1.0  0.25284  0.71335  0.35910  1.0000
  C   C64       1.0  0.24730  0.81915  0.33493  1.0000
  C   C65       1.0  0.21181  0.80104  0.33468  1.0000
  H   H45       1.0  0.20588  0.84048  0.37012  1.0000
  H   H46       1.0  0.22824  0.69835  0.34596  1.0000
  C   C66       1.0  0.21522  0.96797  0.36110  1.0000
  C   C67       1.0  0.21842  0.91901  0.40314  1.0000
  N   N18       1.0  0.20475  0.89029  0.45230  1.0000
  C   C68       1.0  0.26254  0.84494  0.56398  1.0000
  H   H47       1.0  0.26267  0.86453  0.60496  1.0000
  H   H48       1.0  0.23744  0.82892  0.53821  1.0000
  C   C69       1.0  0.25971  0.60167  0.35724  1.0000
  C   C70       1.0  0.23444  0.60372  0.40524  1.0000
  C   C71       1.0  0.23431  0.63447  0.40910  1.0000
  C   C72       1.0  0.25962  0.66278  0.36245  1.0000
  H   H49       1.0  0.21937  0.58451  0.44719  1.0000
  C   C73       1.0  0.21311  0.63675  0.47058  1.0000
  C   C74       1.0  0.22570  0.65075  0.55901  1.0000
  H   H50       1.0  0.20503  0.64396  0.60537  1.0000
  H   H51       1.0  0.24049  0.67781  0.55559  1.0000
  H   H52       1.0  0.24110  0.64122  0.58671  1.0000
  C   C75       1.0  0.48907  0.24697  0.34014  1.0000
  C   C76       1.0  0.46876  0.21153  0.33662  1.0000
  C   C77       1.0  0.43369  0.19427  0.32889  1.0000
  H   H53       1.0  0.47927  0.19690  0.33838  1.0000
  H   H54       1.0  0.37242  0.17425  0.37518  1.0000
  C   C78       1.0  0.26761  0.24872  0.35130  1.0000
  C   C79       1.0  0.30328  0.26607  0.34868  1.0000
  C   C80       1.0  0.32280  0.25199  0.37570  1.0000
  H   H55       1.0  0.31625  0.29003  0.32687  1.0000
  H   H56       1.0  0.34207  0.21942  0.48040  1.0000
  C   C81       1.0  0.26860  0.02399  0.35333  1.0000
  C   C82       1.0  0.27156  0.07905  0.37289  1.0000
  C   C83       1.0  0.26769  0.46937  0.35552  1.0000
  H   H57       1.0  0.29231  0.48027  0.34101  1.0000
  H   H58       1.0  0.30938  0.13109  0.47124  1.0000
  N   N19       1.0  0.39336  0.25638  0.26963  1.0000
  N   N20       1.0  0.36547  0.25655  0.28042  1.0000
  N   N21       1.0  0.28089  0.15723  0.31260  1.0000
  N   N22       1.0  0.28099  0.12937  0.31033  1.0000
  N   N23       1.0  0.36205  0.11741  0.27334  1.0000
  N   N24       1.0  0.38874  0.14627  0.26302  1.0000
  C   C84       1.0  0.41703  0.21302  0.33463  1.0000
  C   C85       1.0  0.43551  0.24852  0.33214  1.0000
  C   C86       1.0  0.47075  0.26430  0.33824  1.0000
  N   N25       1.0  0.38389  0.19699  0.35612  1.0000
  H   H59       1.0  0.37291  0.20885  0.37419  1.0000
  H   H60       1.0  0.48304  0.28958  0.34015  1.0000
  C   C87       1.0  0.30564  0.21790  0.40058  1.0000
  C   C88       1.0  0.27144  0.19732  0.37764  1.0000
  N   N26       1.0  0.32097  0.20496  0.45150  1.0000
  C   C89       1.0  0.26430  0.30110  0.34216  1.0000
  H   H61       1.0  0.30831  0.18308  0.47846  1.0000
  H   H62       1.0  0.28939  0.31525  0.34862  1.0000
  C   C90       1.0  0.30596  0.09328  0.39321  1.0000
  C   C91       1.0  0.32322  0.07664  0.36775  1.0000
  C   C92       1.0  0.30408  0.04270  0.34525  1.0000
  N   N27       1.0  0.32178  0.12187  0.44265  1.0000
  H   H63       1.0  0.34360  0.12927  0.46798  1.0000
  H   H64       1.0  0.31728  0.03195  0.32386  1.0000
  C   C93       1.0  0.26809  0.41675  0.36055  1.0000
  C   C94       1.0  0.28026  0.40425  0.42844  1.0000
  C   C95       1.0  0.27890  0.37314  0.41777  1.0000
  C   C96       1.0  0.26496  0.35462  0.33713  1.0000
  H   H65       1.0  0.28625  0.41583  0.48997  1.0000
  C   C97       1.0  0.28619  0.35909  0.49063  1.0000
  H   H66       1.0  0.26891  0.32985  0.60693  1.0000
  O   O7        1.0  0.31553  0.37364  0.51241  1.0000
  C   C98       1.0  0.35740  0.26767  0.35573  1.0000
  C   C99       1.0  0.38217  0.28030  0.42356  1.0000
  C   C100      1.0  0.41251  0.27990  0.41318  1.0000
  C   C101      1.0  0.41807  0.26670  0.33249  1.0000
  H   H67       1.0  0.37628  0.28595  0.48512  1.0000
  C   C102      1.0  0.43391  0.28773  0.48606  1.0000
  C   C103      1.0  0.42473  0.26448  0.56032  1.0000
  H   H68       1.0  0.40517  0.26455  0.60101  1.0000
  H   H69       1.0  0.44627  0.27130  0.60331  1.0000
  H   H70       1.0  0.41590  0.23930  0.53554  1.0000
  O   O8        1.0  0.44838  0.31717  0.50682  1.0000
  C   C104      1.0  0.41495  0.15898  0.32078  1.0000
  C   C105      1.0  0.41345  0.13756  0.39088  1.0000
  C   C106      1.0  0.38416  0.10615  0.40353  1.0000
  C   C107      1.0  0.35714  0.09612  0.34211  1.0000
  H   H71       1.0  0.43133  0.14674  0.44005  1.0000
  C   C108      1.0  0.38236  0.08729  0.47846  1.0000
  C   C109      1.0  0.37211  0.09406  0.56445  1.0000
  H   H72       1.0  0.37911  0.08292  0.61884  1.0000
  H   H73       1.0  0.34520  0.08357  0.56616  1.0000
  H   H74       1.0  0.38415  0.12074  0.57726  1.0000
  O   O9        1.0  0.37363  0.05815  0.46348  1.0000
  C   C110      1.0  0.48907  0.74697  0.34014  1.0000
  C   C111      1.0  0.46875  0.71153  0.33662  1.0000
  C   C112      1.0  0.43369  0.69427  0.32889  1.0000
  H   H75       1.0  0.47927  0.69691  0.33838  1.0000
  H   H76       1.0  0.37242  0.67425  0.37518  1.0000
  C   C113      1.0  0.26761  0.74872  0.35130  1.0000
  C   C114      1.0  0.30328  0.76607  0.34868  1.0000
  C   C115      1.0  0.32280  0.75199  0.37570  1.0000
  H   H77       1.0  0.31625  0.79003  0.32687  1.0000
  H   H78       1.0  0.34207  0.71942  0.48040  1.0000
  C   C116      1.0  0.26860  0.52399  0.35333  1.0000
  C   C117      1.0  0.27155  0.57905  0.37289  1.0000
  C   C118      1.0  0.26769  0.96937  0.35552  1.0000
  H   H79       1.0  0.29231  0.98027  0.34101  1.0000
  H   H80       1.0  0.30938  0.63109  0.47124  1.0000
  N   N28       1.0  0.39336  0.75638  0.26963  1.0000
  N   N29       1.0  0.36547  0.75655  0.28042  1.0000
  N   N30       1.0  0.28089  0.65723  0.31260  1.0000
  N   N31       1.0  0.28098  0.62937  0.31033  1.0000
  N   N32       1.0  0.36205  0.61741  0.27334  1.0000
  N   N33       1.0  0.38874  0.64627  0.26302  1.0000
  C   C119      1.0  0.41703  0.71302  0.33463  1.0000
  C   C120      1.0  0.43551  0.74852  0.33214  1.0000
  C   C121      1.0  0.47074  0.76430  0.33824  1.0000
  N   N34       1.0  0.38389  0.69699  0.35612  1.0000
  H   H81       1.0  0.37291  0.70885  0.37419  1.0000
  H   H82       1.0  0.48304  0.78958  0.34015  1.0000
  C   C122      1.0  0.30564  0.71790  0.40058  1.0000
  C   C123      1.0  0.27144  0.69732  0.37764  1.0000
  N   N35       1.0  0.32097  0.70496  0.45150  1.0000
  C   C124      1.0  0.26430  0.80110  0.34216  1.0000
  H   H83       1.0  0.30831  0.68308  0.47846  1.0000
  H   H84       1.0  0.28939  0.81524  0.34862  1.0000
  C   C125      1.0  0.30596  0.59328  0.39321  1.0000
  C   C126      1.0  0.32322  0.57664  0.36775  1.0000
  C   C127      1.0  0.30408  0.54270  0.34525  1.0000
  N   N36       1.0  0.32178  0.62187  0.44265  1.0000
  H   H85       1.0  0.34360  0.62927  0.46798  1.0000
  H   H86       1.0  0.31728  0.53195  0.32386  1.0000
  C   C128      1.0  0.26809  0.91675  0.36055  1.0000
  C   C129      1.0  0.28026  0.90425  0.42844  1.0000
  C   C130      1.0  0.27890  0.87314  0.41777  1.0000
  C   C131      1.0  0.26496  0.85462  0.33713  1.0000
  H   H87       1.0  0.28625  0.91583  0.48997  1.0000
  C   C132      1.0  0.28619  0.85909  0.49063  1.0000
  H   H88       1.0  0.26891  0.82985  0.60693  1.0000
  O   O10       1.0  0.31553  0.87364  0.51241  1.0000
  C   C133      1.0  0.35740  0.76767  0.35573  1.0000
  C   C134      1.0  0.38217  0.78030  0.42356  1.0000
  C   C135      1.0  0.41251  0.77990  0.41318  1.0000
  C   C136      1.0  0.41807  0.76669  0.33249  1.0000
  H   H89       1.0  0.37628  0.78595  0.48512  1.0000
  C   C137      1.0  0.43391  0.78773  0.48606  1.0000
  C   C138      1.0  0.42473  0.76448  0.56032  1.0000
  H   H90       1.0  0.40517  0.76455  0.60101  1.0000
  H   H91       1.0  0.44627  0.77130  0.60331  1.0000
  H   H92       1.0  0.41590  0.73930  0.53554  1.0000
  O   O11       1.0  0.44838  0.81717  0.50682  1.0000
  C   C139      1.0  0.41495  0.65898  0.32078  1.0000
  C   C140      1.0  0.41345  0.63756  0.39088  1.0000
  C   C141      1.0  0.38416  0.60615  0.40353  1.0000
  C   C142      1.0  0.35714  0.59612  0.34211  1.0000
  H   H93       1.0  0.43133  0.64674  0.44005  1.0000
  C   C143      1.0  0.38236  0.58729  0.47846  1.0000
  C   C144      1.0  0.37211  0.59406  0.56445  1.0000
  H   H94       1.0  0.37911  0.58293  0.61884  1.0000
  H   H95       1.0  0.34520  0.58357  0.56616  1.0000
  H   H96       1.0  0.38415  0.62074  0.57726  1.0000
  O   O12       1.0  0.37363  0.55816  0.46348  1.0000
  C   C145      1.0  0.98907  0.24697  0.34014  1.0000
  C   C146      1.0  0.96876  0.21153  0.33662  1.0000
  C   C147      1.0  0.93369  0.19427  0.32889  1.0000
  H   H97       1.0  0.97927  0.19690  0.33838  1.0000
  C   C148      1.0  0.52505  0.26339  0.34835  1.0000
  C   C149      1.0  0.58079  0.31443  0.37153  1.0000
  C   C150      1.0  0.54599  0.29876  0.35671  1.0000
  H   H98       1.0  0.53665  0.31416  0.34604  1.0000
  H   H99       1.0  0.63149  0.32774  0.47239  1.0000
  H   H100      1.0  0.87242  0.17425  0.37518  1.0000
  C   C151      1.0  0.76761  0.24872  0.35130  1.0000
  C   C152      1.0  0.80328  0.26607  0.34868  1.0000
  C   C153      1.0  0.82280  0.25199  0.37570  1.0000
  H   H101      1.0  0.81625  0.29003  0.32687  1.0000
  C   C154      1.0  0.74855  0.26563  0.34230  1.0000
  C   C155      1.0  0.69425  0.26551  0.32949  1.0000
  C   C156      1.0  0.71297  0.24896  0.33731  1.0000
  H   H102      1.0  0.69963  0.22367  0.33649  1.0000
  H   H103      1.0  0.67176  0.30594  0.36784  1.0000
  H   H104      1.0  0.84207  0.21942  0.48040  1.0000
  C   C157      1.0  0.76860  0.02399  0.35333  1.0000
  C   C158      1.0  0.75306  0.04396  0.36135  1.0000
  C   C159      1.0  0.77155  0.07905  0.37289  1.0000
  H   H105      1.0  0.72796  0.03341  0.35455  1.0000
  C   C160      1.0  0.75071  0.48798  0.35572  1.0000
  C   C161      1.0  0.75273  0.43574  0.38154  1.0000
  C   C162      1.0  0.76769  0.46937  0.35552  1.0000
  H   H106      1.0  0.79231  0.48027  0.34101  1.0000
  H   H107      1.0  0.71852  0.38263  0.48048  1.0000
  H   H108      1.0  0.80938  0.13109  0.47124  1.0000
  N   N37       1.0  0.61627  0.25810  0.27383  1.0000
  N   N38       1.0  0.64495  0.25969  0.26254  1.0000
  N   N39       1.0  0.75534  0.36942  0.27398  1.0000
  N   N40       1.0  0.75651  0.39787  0.28499  1.0000
  N   N41       1.0  0.65906  0.38359  0.31181  1.0000
  N   N42       1.0  0.63156  0.35530  0.31035  1.0000
  N   N43       1.0  0.89336  0.25638  0.26963  1.0000
  N   N44       1.0  0.86547  0.25655  0.28042  1.0000
  N   N45       1.0  0.78089  0.15723  0.31260  1.0000
  N   N46       1.0  0.78098  0.12937  0.31033  1.0000
  N   N47       1.0  0.86205  0.11741  0.27334  1.0000
  N   N48       1.0  0.88874  0.14627  0.26302  1.0000
  C   C163      1.0  0.91703  0.21302  0.33463  1.0000
  C   C164      1.0  0.93551  0.24852  0.33214  1.0000
  C   C165      1.0  0.97074  0.26430  0.33824  1.0000
  N   N49       1.0  0.88389  0.19699  0.35612  1.0000
  C   C166      1.0  0.54301  0.24566  0.34397  1.0000
  C   C167      1.0  0.57689  0.25957  0.36818  1.0000
  C   C168      1.0  0.59418  0.29361  0.39314  1.0000
  N   N50       1.0  0.62246  0.30612  0.44387  1.0000
  H   H109      1.0  0.62917  0.29150  0.47106  1.0000
  H   H110      1.0  0.87291  0.20885  0.37419  1.0000
  H   H111      1.0  0.98304  0.28958  0.34015  1.0000
  H   H112      1.0  0.53164  0.22163  0.32280  1.0000
  C   C169      1.0  0.80564  0.21790  0.40058  1.0000
  C   C170      1.0  0.77144  0.19732  0.37764  1.0000
  C   C171      1.0  0.75284  0.21335  0.35910  1.0000
  N   N51       1.0  0.82097  0.20496  0.45150  1.0000
  C   C172      1.0  0.76430  0.30110  0.34216  1.0000
  C   C173      1.0  0.74730  0.31915  0.33493  1.0000
  C   C174      1.0  0.71181  0.30104  0.33468  1.0000
  N   N52       1.0  0.69485  0.31751  0.35265  1.0000
  H   H113      1.0  0.70588  0.34048  0.37012  1.0000
  H   H114      1.0  0.80831  0.18308  0.47846  1.0000
  H   H115      1.0  0.72824  0.19835  0.34596  1.0000
  H   H116      1.0  0.78939  0.31525  0.34862  1.0000
  C   C175      1.0  0.80596  0.09328  0.39321  1.0000
  C   C176      1.0  0.82322  0.07664  0.36775  1.0000
  C   C177      1.0  0.80408  0.04270  0.34525  1.0000
  N   N53       1.0  0.82178  0.12187  0.44265  1.0000
  C   C178      1.0  0.71522  0.46797  0.36110  1.0000
  C   C179      1.0  0.69851  0.43316  0.37798  1.0000
  C   C180      1.0  0.71843  0.41901  0.40314  1.0000
  N   N54       1.0  0.70475  0.39029  0.45230  1.0000
  H   H117      1.0  0.68263  0.38103  0.47773  1.0000
  H   H118      1.0  0.84360  0.12927  0.46798  1.0000
  H   H119      1.0  0.81728  0.03195  0.32386  1.0000
  H   H120      1.0  0.70087  0.47824  0.34666  1.0000
  C   C181      1.0  0.65878  0.24791  0.32248  1.0000
  C   C182      1.0  0.63860  0.23097  0.39778  1.0000
  C   C183      1.0  0.60748  0.22954  0.41122  1.0000
  C   C184      1.0  0.59593  0.24410  0.34618  1.0000
  H   H121      1.0  0.64858  0.22393  0.44892  1.0000
  C   C185      1.0  0.58983  0.21588  0.49039  1.0000
  C   C186      1.0  0.60244  0.22962  0.57893  1.0000
  H   H122      1.0  0.60001  0.20990  0.62375  1.0000
  H   H123      1.0  0.58813  0.24034  0.60674  1.0000
  H   H124      1.0  0.62857  0.24897  0.57728  1.0000
  O   O13       1.0  0.56029  0.19513  0.48432  1.0000
  C   C187      1.0  0.76809  0.41675  0.36055  1.0000
  C   C188      1.0  0.78026  0.40425  0.42844  1.0000
  C   C189      1.0  0.77890  0.37314  0.41777  1.0000
  C   C190      1.0  0.76496  0.35462  0.33713  1.0000
  H   H125      1.0  0.78625  0.41583  0.48997  1.0000
  C   C191      1.0  0.78619  0.35909  0.49063  1.0000
  C   C192      1.0  0.76255  0.34494  0.56398  1.0000
  H   H126      1.0  0.76268  0.36454  0.60496  1.0000
  H   H127      1.0  0.76891  0.32985  0.60693  1.0000
  H   H128      1.0  0.73744  0.32892  0.53822  1.0000
  O   O14       1.0  0.81553  0.37364  0.51241  1.0000
  C   C193      1.0  0.60373  0.34882  0.35650  1.0000
  C   C194      1.0  0.60505  0.37630  0.40183  1.0000
  C   C195      1.0  0.63556  0.40741  0.40566  1.0000
  C   C196      1.0  0.66413  0.41059  0.36013  1.0000
  H   H129      1.0  0.58561  0.37218  0.44282  1.0000
  C   C197      1.0  0.63733  0.43097  0.46624  1.0000
  C   C198      1.0  0.65045  0.43214  0.55572  1.0000
  H   H130      1.0  0.64365  0.44636  0.60077  1.0000
  H   H131      1.0  0.67751  0.44399  0.55406  1.0000
  H   H132      1.0  0.64027  0.40719  0.58382  1.0000
  O   O15       1.0  0.64345  0.45755  0.43324  1.0000
  C   C199      1.0  0.85741  0.26767  0.35573  1.0000
  C   C200      1.0  0.88217  0.28030  0.42356  1.0000
  C   C201      1.0  0.91251  0.27990  0.41318  1.0000
  C   C202      1.0  0.91807  0.26670  0.33249  1.0000
  H   H133      1.0  0.87628  0.28595  0.48512  1.0000
  C   C203      1.0  0.93391  0.28773  0.48606  1.0000
  C   C204      1.0  0.92473  0.26448  0.56032  1.0000
  H   H134      1.0  0.90517  0.26455  0.60101  1.0000
  H   H135      1.0  0.94627  0.27130  0.60331  1.0000
  H   H136      1.0  0.91590  0.23930  0.53554  1.0000
  O   O16       1.0  0.94839  0.31717  0.50682  1.0000
  C   C205      1.0  0.75971  0.10167  0.35724  1.0000
  C   C206      1.0  0.73444  0.10372  0.40524  1.0000
  C   C207      1.0  0.73431  0.13447  0.40910  1.0000
  C   C208      1.0  0.75962  0.16278  0.36245  1.0000
  H   H137      1.0  0.71937  0.08451  0.44719  1.0000
  C   C209      1.0  0.71312  0.13675  0.47058  1.0000
  C   C210      1.0  0.72570  0.15075  0.55901  1.0000
  H   H138      1.0  0.70503  0.14396  0.60537  1.0000
  H   H139      1.0  0.74049  0.17782  0.55559  1.0000
  H   H140      1.0  0.74110  0.14122  0.58671  1.0000
  O   O17       1.0  0.69219  0.14250  0.43901  1.0000
  C   C211      1.0  0.91495  0.15898  0.32078  1.0000
  C   C212      1.0  0.91345  0.13756  0.39088  1.0000
  C   C213      1.0  0.88416  0.10615  0.40353  1.0000
  C   C214      1.0  0.85714  0.09612  0.34211  1.0000
  H   H141      1.0  0.93133  0.14674  0.44005  1.0000
  C   C215      1.0  0.88236  0.08729  0.47846  1.0000
  C   C216      1.0  0.87211  0.09406  0.56445  1.0000
  H   H142      1.0  0.87911  0.08292  0.61884  1.0000
  H   H143      1.0  0.84521  0.08357  0.56616  1.0000
  H   H144      1.0  0.88415  0.12074  0.57726  1.0000
  O   O18       1.0  0.87363  0.05815  0.46348  1.0000
  C   C217      1.0  0.98907  0.74697  0.34014  1.0000
  C   C218      1.0  0.96875  0.71153  0.33662  1.0000
  C   C219      1.0  0.93369  0.69427  0.32889  1.0000
  H   H145      1.0  0.97927  0.69691  0.33838  1.0000
  C   C220      1.0  0.52505  0.76340  0.34835  1.0000
  C   C221      1.0  0.58079  0.81442  0.37153  1.0000
  C   C222      1.0  0.54599  0.79876  0.35671  1.0000
  H   H146      1.0  0.53665  0.81416  0.34604  1.0000
  H   H147      1.0  0.63149  0.82774  0.47238  1.0000
  H   H148      1.0  0.87242  0.67425  0.37518  1.0000
  C   C223      1.0  0.76761  0.74872  0.35130  1.0000
  C   C224      1.0  0.80328  0.76607  0.34868  1.0000
  C   C225      1.0  0.82280  0.75199  0.37570  1.0000
  H   H149      1.0  0.81625  0.79003  0.32687  1.0000
  C   C226      1.0  0.74855  0.76563  0.34230  1.0000
  C   C227      1.0  0.69425  0.76551  0.32949  1.0000
  C   C228      1.0  0.71296  0.74896  0.33731  1.0000
  H   H150      1.0  0.69962  0.72367  0.33649  1.0000
  H   H151      1.0  0.67176  0.80594  0.36784  1.0000
  H   H152      1.0  0.84207  0.71942  0.48040  1.0000
  C   C229      1.0  0.76860  0.52399  0.35333  1.0000
  C   C230      1.0  0.75306  0.54396  0.36135  1.0000
  C   C231      1.0  0.77156  0.57905  0.37289  1.0000
  H   H153      1.0  0.72796  0.53341  0.35455  1.0000
  C   C232      1.0  0.75071  0.98798  0.35572  1.0000
  C   C233      1.0  0.75273  0.93574  0.38154  1.0000
  C   C234      1.0  0.76769  0.96937  0.35552  1.0000
  H   H154      1.0  0.79231  0.98027  0.34101  1.0000
  H   H155      1.0  0.71851  0.88263  0.48048  1.0000
  H   H156      1.0  0.80938  0.63109  0.47124  1.0000
  N   N55       1.0  0.61627  0.75809  0.27383  1.0000
  N   N56       1.0  0.64495  0.75969  0.26253  1.0000
  N   N57       1.0  0.75534  0.86942  0.27398  1.0000
  N   N58       1.0  0.75651  0.89787  0.28499  1.0000
  N   N59       1.0  0.65906  0.88359  0.31181  1.0000
  N   N60       1.0  0.63155  0.85530  0.31035  1.0000
  N   N61       1.0  0.89336  0.75638  0.26963  1.0000
  N   N62       1.0  0.86547  0.75655  0.28042  1.0000
  N   N63       1.0  0.78089  0.65723  0.31260  1.0000
  N   N64       1.0  0.78099  0.62937  0.31033  1.0000
  N   N65       1.0  0.86205  0.61741  0.27334  1.0000
  N   N66       1.0  0.88874  0.64627  0.26302  1.0000
  C   C235      1.0  0.91703  0.71302  0.33463  1.0000
  C   C236      1.0  0.93551  0.74852  0.33214  1.0000
  C   C237      1.0  0.97075  0.76430  0.33824  1.0000
  N   N67       1.0  0.88389  0.69699  0.35612  1.0000
  C   C238      1.0  0.54301  0.74566  0.34397  1.0000
  C   C239      1.0  0.57689  0.75957  0.36818  1.0000
  C   C240      1.0  0.59418  0.79361  0.39314  1.0000
  N   N68       1.0  0.62246  0.80612  0.44387  1.0000
  H   H157      1.0  0.62917  0.79150  0.47106  1.0000
  H   H158      1.0  0.87291  0.70885  0.37419  1.0000
  H   H159      1.0  0.98304  0.78958  0.34015  1.0000
  H   H160      1.0  0.53164  0.72163  0.32280  1.0000
  C   C241      1.0  0.80564  0.71790  0.40058  1.0000
  C   C242      1.0  0.77144  0.69732  0.37764  1.0000
  C   C243      1.0  0.75284  0.71335  0.35910  1.0000
  N   N69       1.0  0.82097  0.70496  0.45150  1.0000
  C   C244      1.0  0.76430  0.80110  0.34216  1.0000
  C   C245      1.0  0.74730  0.81915  0.33493  1.0000
  C   C246      1.0  0.71181  0.80104  0.33468  1.0000
  N   N70       1.0  0.69485  0.81751  0.35265  1.0000
  H   H161      1.0  0.70589  0.84048  0.37012  1.0000
  H   H162      1.0  0.80831  0.68308  0.47846  1.0000
  H   H163      1.0  0.72824  0.69835  0.34596  1.0000
  H   H164      1.0  0.78939  0.81524  0.34862  1.0000
  C   C247      1.0  0.80596  0.59328  0.39321  1.0000
  C   C248      1.0  0.82322  0.57664  0.36775  1.0000
  C   C249      1.0  0.80408  0.54270  0.34525  1.0000
  N   N71       1.0  0.82178  0.62187  0.44265  1.0000
  C   C250      1.0  0.71522  0.96797  0.36110  1.0000
  C   C251      1.0  0.69851  0.93315  0.37798  1.0000
  C   C252      1.0  0.71842  0.91901  0.40314  1.0000
  N   N72       1.0  0.70475  0.89029  0.45230  1.0000
  H   H165      1.0  0.68262  0.88103  0.47773  1.0000
  H   H166      1.0  0.84360  0.62927  0.46798  1.0000
  H   H167      1.0  0.81728  0.53195  0.32386  1.0000
  H   H168      1.0  0.70087  0.97824  0.34666  1.0000
  C   C253      1.0  0.65878  0.74791  0.32248  1.0000
  C   C254      1.0  0.63860  0.73097  0.39778  1.0000
  C   C255      1.0  0.60748  0.72954  0.41122  1.0000
  C   C256      1.0  0.59593  0.74410  0.34618  1.0000
  H   H169      1.0  0.64858  0.72393  0.44892  1.0000
  C   C257      1.0  0.58983  0.71588  0.49039  1.0000
  C   C258      1.0  0.60244  0.72962  0.57893  1.0000
  H   H170      1.0  0.60001  0.70990  0.62375  1.0000
  H   H171      1.0  0.58813  0.74034  0.60674  1.0000
  H   H172      1.0  0.62857  0.74897  0.57728  1.0000
  O   O19       1.0  0.56029  0.69513  0.48432  1.0000
  C   C259      1.0  0.76809  0.91675  0.36055  1.0000
  C   C260      1.0  0.78026  0.90425  0.42844  1.0000
  C   C261      1.0  0.77890  0.87314  0.41777  1.0000
  C   C262      1.0  0.76496  0.85462  0.33713  1.0000
  H   H173      1.0  0.78625  0.91583  0.48997  1.0000
  C   C263      1.0  0.78619  0.85909  0.49063  1.0000
  C   C264      1.0  0.76255  0.84494  0.56398  1.0000
  H   H174      1.0  0.76268  0.86453  0.60496  1.0000
  H   H175      1.0  0.76891  0.82985  0.60693  1.0000
  H   H176      1.0  0.73744  0.82892  0.53821  1.0000
  O   O20       1.0  0.81553  0.87364  0.51241  1.0000
  C   C265      1.0  0.60373  0.84882  0.35650  1.0000
  C   C266      1.0  0.60505  0.87630  0.40183  1.0000
  C   C267      1.0  0.63556  0.90741  0.40566  1.0000
  C   C268      1.0  0.66413  0.91059  0.36013  1.0000
  H   H177      1.0  0.58561  0.87218  0.44282  1.0000
  C   C269      1.0  0.63732  0.93097  0.46624  1.0000
  C   C270      1.0  0.65045  0.93214  0.55572  1.0000
  H   H178      1.0  0.64365  0.94636  0.60077  1.0000
  H   H179      1.0  0.67751  0.94400  0.55406  1.0000
  H   H180      1.0  0.64027  0.90719  0.58382  1.0000
  O   O21       1.0  0.64345  0.95756  0.43324  1.0000
  C   C271      1.0  0.85740  0.76767  0.35573  1.0000
  C   C272      1.0  0.88217  0.78030  0.42356  1.0000
  C   C273      1.0  0.91251  0.77990  0.41318  1.0000
  C   C274      1.0  0.91807  0.76669  0.33249  1.0000
  H   H181      1.0  0.87628  0.78595  0.48512  1.0000
  C   C275      1.0  0.93391  0.78773  0.48606  1.0000
  C   C276      1.0  0.92473  0.76448  0.56032  1.0000
  H   H182      1.0  0.90517  0.76455  0.60101  1.0000
  H   H183      1.0  0.94627  0.77130  0.60331  1.0000
  H   H184      1.0  0.91590  0.73930  0.53554  1.0000
  O   O22       1.0  0.94839  0.81717  0.50682  1.0000
  C   C277      1.0  0.75971  0.60167  0.35724  1.0000
  C   C278      1.0  0.73444  0.60372  0.40524  1.0000
  C   C279      1.0  0.73432  0.63447  0.40910  1.0000
  C   C280      1.0  0.75962  0.66278  0.36245  1.0000
  H   H185      1.0  0.71936  0.58451  0.44719  1.0000
  C   C281      1.0  0.71312  0.63675  0.47058  1.0000
  C   C282      1.0  0.72570  0.65075  0.55901  1.0000
  H   H186      1.0  0.70503  0.64396  0.60537  1.0000
  H   H187      1.0  0.74049  0.67781  0.55559  1.0000
  H   H188      1.0  0.74110  0.64122  0.58671  1.0000
  O   O23       1.0  0.69219  0.64250  0.43901  1.0000
  C   C283      1.0  0.91495  0.65898  0.32078  1.0000
  C   C284      1.0  0.91345  0.63756  0.39088  1.0000
  C   C285      1.0  0.88416  0.60615  0.40353  1.0000
  C   C286      1.0  0.85714  0.59612  0.34211  1.0000
  H   H189      1.0  0.93133  0.64674  0.44005  1.0000
  C   C287      1.0  0.88236  0.58729  0.47846  1.0000
  C   C288      1.0  0.87211  0.59406  0.56445  1.0000
  H   H190      1.0  0.87911  0.58293  0.61884  1.0000
  H   H191      1.0  0.84520  0.58357  0.56616  1.0000
  H   H192      1.0  0.88415  0.62074  0.57726  1.0000
  O   O24       1.0  0.87363  0.55816  0.46348  1.0000
