data_image0
_chemical_formula_structural       C2HC2NO2C2HC2H2C2HC2HCHCHC2HC3HC2H4CHC2HC3HC2H4CHC2HC3HC2H4CHC2HC3HC2H4CHC2HC3HC2H4CHC2HC3HC2H4CHC7H3NO2CHC7H3NO2CHC4HNO2CHC7H3NO2CHC7H3NO2CHC3H2CHC7H3NO2CHC7H3NO2CHC7H3NO2CHC7H3NO2CHC7H3NO2CHC7H3NO2CHC6H3N3C6H3N3C6H3N3C6H3N3C6H3N3C6H3N3C6H3N3C6H3N3C6H3N3C6H3N3C6H3N3C6H3N3C7H3NO2CHC7H3NO2CHC7H3NO2CHC7H3NO2CHC7H3NO2CHC7H3NO2CHC2HC3HC2H4CHC2HC3HC2H4CHC2HCH3CHC2HC3HC2H4CHC2HC3HC2H4CHC3HCH2CHC2HC3HC2H4CHC2HC3HC2H4CHC2HC3HC2H4CHC2HC3HC2H4CHC2HC3HC2H4CHC2HC3HC2H4CH
_chemical_formula_sum              "C360 H234 N54 O36"
_cell_length_a       74.9809
_cell_length_b       74.9809
_cell_length_c       14.978
_cell_angle_alpha    90
_cell_angle_beta     90
_cell_angle_gamma    120

_space_group_name_H-M_alt    "P 1"
_space_group_IT_number       1

loop_
  _space_group_symop_operation_xyz
  'x, y, z'

loop_
  _atom_site_type_symbol
  _atom_site_label
  _atom_site_symmetry_multiplicity
  _atom_site_fract_x
  _atom_site_fract_y
  _atom_site_fract_z
  _atom_site_occupancy
  C   C1        1.0  0.00900  0.80922  0.31810  1.0000
  C   C2        1.0  0.02319  0.80868  0.25722  1.0000
  H   H1        1.0  0.01819  0.79928  0.20265  1.0000
  C   C3        1.0  0.02064  0.19847  0.21977  1.0000
  C   C4        1.0  0.01097  0.19512  0.30504  1.0000
  N   N1        1.0  0.00886  0.19003  0.14111  1.0000
  O   O1        1.0  0.01234  0.20365  0.08378  1.0000
  O   O2        1.0  0.01204  0.17660  0.10635  1.0000
  C   C5        1.0  0.01713  0.82058  0.39861  1.0000
  C   C6        1.0  0.00278  0.81933  0.47030  1.0000
  H   H2        1.0  0.01018  0.82280  0.53590  1.0000
  C   C7        1.0  0.02379  0.20123  0.38255  1.0000
  C   C8        1.0  0.01419  0.19542  0.47290  1.0000
  H   H3        1.0  0.02492  0.19575  0.52323  1.0000
  H   H4        1.0  0.00948  0.20649  0.49299  1.0000
  C   C9        1.0  0.03865  0.83260  0.41156  1.0000
  C   C10       1.0  0.04458  0.82053  0.27082  1.0000
  H   H5        1.0  0.05418  0.82002  0.22355  1.0000
  C   C11       1.0  0.05505  0.21564  0.29017  1.0000
  C   C12       1.0  0.04241  0.20881  0.21373  1.0000
  H   H6        1.0  0.04906  0.21079  0.15203  1.0000
  C   C13       1.0  0.05270  0.83307  0.34738  1.0000
  H   H7        1.0  0.04412  0.84108  0.46895  1.0000
  C   C14       1.0  0.04546  0.21154  0.37452  1.0000
  H   H8        1.0  0.05432  0.21547  0.43103  1.0000
  C   C15       1.0  0.18506  0.36690  0.28856  1.0000
  C   C16       1.0  0.17165  0.34540  0.29437  1.0000
  H   H9        1.0  0.16732  0.33673  0.23723  1.0000
  C   C17       1.0  0.23120  0.44487  0.32822  1.0000
  C   C18       1.0  0.23084  0.43029  0.26732  1.0000
  C   C19       1.0  0.21746  0.40891  0.27954  1.0000
  H   H10       1.0  0.24029  0.43527  0.21253  1.0000
  C   C20       1.0  0.21626  0.39405  0.21057  1.0000
  C   C21       1.0  0.19368  0.37640  0.20001  1.0000
  H   H11       1.0  0.22592  0.38770  0.23159  1.0000
  H   H12       1.0  0.22185  0.40149  0.14571  1.0000
  H   H13       1.0  0.19336  0.36514  0.15260  1.0000
  H   H14       1.0  0.18433  0.38253  0.17243  1.0000
  C   C22       1.0  0.24488  0.46576  0.31541  1.0000
  H   H15       1.0  0.25759  0.46995  0.27989  1.0000
  C   C23       1.0  0.62837  0.81203  0.28864  1.0000
  C   C24       1.0  0.64986  0.82011  0.29438  1.0000
  H   H16       1.0  0.65853  0.82444  0.23721  1.0000
  C   C25       1.0  0.55041  0.78019  0.32851  1.0000
  C   C26       1.0  0.56497  0.79441  0.26757  1.0000
  C   C27       1.0  0.58635  0.80241  0.27976  1.0000
  H   H17       1.0  0.55998  0.79888  0.21282  1.0000
  C   C28       1.0  0.60120  0.81609  0.21078  1.0000
  C   C29       1.0  0.61885  0.81116  0.20012  1.0000
  H   H18       1.0  0.60756  0.83210  0.23182  1.0000
  H   H19       1.0  0.59376  0.81425  0.14594  1.0000
  H   H20       1.0  0.63010  0.82210  0.15271  1.0000
  H   H21       1.0  0.61272  0.79568  0.17251  1.0000
  C   C30       1.0  0.52951  0.77297  0.31572  1.0000
  H   H22       1.0  0.52531  0.78146  0.28012  1.0000
  C   C31       1.0  0.18330  0.81025  0.28878  1.0000
  C   C32       1.0  0.17524  0.82368  0.29446  1.0000
  H   H23       1.0  0.17093  0.82803  0.23725  1.0000
  C   C33       1.0  0.21508  0.76408  0.32888  1.0000
  C   C34       1.0  0.20087  0.76444  0.26789  1.0000
  C   C35       1.0  0.19288  0.77782  0.28002  1.0000
  H   H24       1.0  0.19642  0.75499  0.21311  1.0000
  C   C36       1.0  0.17924  0.77903  0.21094  1.0000
  C   C37       1.0  0.18419  0.80161  0.20028  1.0000
  H   H25       1.0  0.16322  0.76938  0.23188  1.0000
  H   H26       1.0  0.18109  0.77342  0.14612  1.0000
  H   H27       1.0  0.17328  0.80194  0.15281  1.0000
  H   H28       1.0  0.19968  0.81095  0.17276  1.0000
  C   C38       1.0  0.22231  0.75042  0.31616  1.0000
  H   H29       1.0  0.21378  0.73767  0.28088  1.0000
  C   C39       1.0  0.81281  0.62592  0.28832  1.0000
  C   C40       1.0  0.82622  0.64742  0.29414  1.0000
  H   H30       1.0  0.83055  0.65609  0.23699  1.0000
  C   C41       1.0  0.76668  0.54795  0.32794  1.0000
  C   C42       1.0  0.76704  0.56253  0.26707  1.0000
  C   C43       1.0  0.78041  0.58390  0.27932  1.0000
  H   H31       1.0  0.75758  0.55755  0.21229  1.0000
  C   C44       1.0  0.78161  0.59877  0.21037  1.0000
  C   C45       1.0  0.80418  0.61642  0.19977  1.0000
  H   H32       1.0  0.77195  0.60512  0.23142  1.0000
  H   H33       1.0  0.77601  0.59133  0.14551  1.0000
  H   H34       1.0  0.80450  0.62767  0.15238  1.0000
  H   H35       1.0  0.81353  0.61029  0.17217  1.0000
  C   C46       1.0  0.75301  0.52705  0.31508  1.0000
  H   H36       1.0  0.74033  0.52286  0.27932  1.0000
  C   C47       1.0  0.36947  0.18080  0.28860  1.0000
  C   C48       1.0  0.34797  0.17271  0.29440  1.0000
  H   H37       1.0  0.33930  0.16837  0.23726  1.0000
  C   C49       1.0  0.44744  0.21263  0.32833  1.0000
  C   C50       1.0  0.43286  0.19841  0.26740  1.0000
  C   C51       1.0  0.41149  0.19042  0.27962  1.0000
  H   H38       1.0  0.43785  0.19395  0.21262  1.0000
  C   C52       1.0  0.39663  0.17676  0.21063  1.0000
  C   C53       1.0  0.37898  0.18168  0.20005  1.0000
  H   H39       1.0  0.39028  0.16074  0.23163  1.0000
  H   H40       1.0  0.40406  0.17861  0.14577  1.0000
  H   H41       1.0  0.36772  0.17075  0.15264  1.0000
  H   H42       1.0  0.38511  0.19717  0.17249  1.0000
  C   C54       1.0  0.46833  0.21985  0.31552  1.0000
  H   H43       1.0  0.47253  0.21134  0.27993  1.0000
  C   C55       1.0  0.81455  0.18253  0.28841  1.0000
  C   C56       1.0  0.82264  0.16912  0.29422  1.0000
  H   H44       1.0  0.82697  0.16478  0.23708  1.0000
  C   C57       1.0  0.78275  0.22870  0.32807  1.0000
  C   C58       1.0  0.79696  0.22833  0.26715  1.0000
  C   C59       1.0  0.80494  0.21494  0.27938  1.0000
  H   H45       1.0  0.80144  0.23778  0.21239  1.0000
  C   C60       1.0  0.81861  0.21374  0.21042  1.0000
  C   C61       1.0  0.81368  0.19116  0.19985  1.0000
  H   H46       1.0  0.83462  0.22340  0.23144  1.0000
  H   H47       1.0  0.81677  0.21933  0.14556  1.0000
  H   H48       1.0  0.82461  0.19083  0.15246  1.0000
  H   H49       1.0  0.79819  0.18181  0.17227  1.0000
  C   C62       1.0  0.77555  0.24238  0.31526  1.0000
  H   H50       1.0  0.78406  0.25509  0.27972  1.0000
  C   C63       1.0  0.21822  0.15955  0.29011  1.0000
  C   C64       1.0  0.21137  0.16535  0.21368  1.0000
  C   C65       1.0  0.20100  0.17675  0.21973  1.0000
  C   C66       1.0  0.19763  0.18305  0.30502  1.0000
  C   C67       1.0  0.18613  0.19364  0.31798  1.0000
  C   C68       1.0  0.18665  0.20836  0.25707  1.0000
  C   C69       1.0  0.17481  0.21790  0.27070  1.0000
  H   H51       1.0  0.19606  0.21278  0.20253  1.0000
  H   H52       1.0  0.17531  0.22800  0.22342  1.0000
  H   H53       1.0  0.21336  0.16069  0.15198  1.0000
  N   N2        1.0  0.19255  0.18007  0.14106  1.0000
  O   O3        1.0  0.20616  0.19022  0.08372  1.0000
  O   O4        1.0  0.17914  0.16345  0.10633  1.0000
  C   C70       1.0  0.22681  0.14699  0.28158  1.0000
  H   H54       1.0  0.22150  0.13632  0.23380  1.0000
  C   C71       1.0  0.83580  0.05251  0.29020  1.0000
  C   C72       1.0  0.82997  0.03987  0.21375  1.0000
  C   C73       1.0  0.81856  0.01810  0.21980  1.0000
  C   C74       1.0  0.81222  0.00843  0.30507  1.0000
  C   C75       1.0  0.80163  0.98633  0.31803  1.0000
  C   C76       1.0  0.78690  0.97214  0.25714  1.0000
  C   C77       1.0  0.77736  0.95075  0.27076  1.0000
  H   H55       1.0  0.78249  0.97714  0.20261  1.0000
  H   H56       1.0  0.76725  0.94116  0.22347  1.0000
  H   H57       1.0  0.83466  0.04652  0.15206  1.0000
  N   N3        1.0  0.81522  0.00632  0.14115  1.0000
  O   O5        1.0  0.80508  0.00980  0.08380  1.0000
  O   O6        1.0  0.83182  0.00949  0.10642  1.0000
  C   C78       1.0  0.84836  0.07365  0.28166  1.0000
  H   H58       1.0  0.85904  0.07902  0.23391  1.0000
  C   C79       1.0  0.94282  0.77721  0.29018  1.0000
  C   C80       1.0  0.95547  0.78404  0.21376  1.0000
  C   C81       1.0  0.97724  0.79439  0.21983  1.0000
  C   C82       1.0  0.98690  0.79772  0.30511  1.0000
  H   H59       1.0  0.94882  0.78206  0.15206  1.0000
  N   N4        1.0  0.98902  0.80283  0.14118  1.0000
  O   O7        1.0  0.98554  0.78921  0.08384  1.0000
  O   O8        1.0  0.98585  0.81626  0.10644  1.0000
  C   C83       1.0  0.92167  0.76861  0.28165  1.0000
  H   H60       1.0  0.91630  0.77393  0.23390  1.0000
  C   C84       1.0  0.77965  0.83328  0.29006  1.0000
  C   C85       1.0  0.78648  0.82745  0.21363  1.0000
  C   C86       1.0  0.79684  0.81605  0.21971  1.0000
  C   C87       1.0  0.80020  0.80975  0.30500  1.0000
  C   C88       1.0  0.81171  0.79915  0.31800  1.0000
  C   C89       1.0  0.81117  0.78442  0.25713  1.0000
  C   C90       1.0  0.82303  0.77489  0.27074  1.0000
  H   H61       1.0  0.80177  0.78001  0.20257  1.0000
  H   H62       1.0  0.82253  0.76479  0.22347  1.0000
  H   H63       1.0  0.78449  0.83212  0.15193  1.0000
  N   N5        1.0  0.80529  0.81271  0.14105  1.0000
  O   O9        1.0  0.79166  0.80256  0.08374  1.0000
  O   O10       1.0  0.81870  0.82931  0.10627  1.0000
  C   C91       1.0  0.77105  0.84582  0.28153  1.0000
  H   H64       1.0  0.77635  0.85649  0.23372  1.0000
  C   C92       1.0  0.16207  0.94029  0.29008  1.0000
  C   C93       1.0  0.16789  0.95294  0.21363  1.0000
  C   C94       1.0  0.17929  0.97471  0.21969  1.0000
  C   C95       1.0  0.18559  0.98438  0.30497  1.0000
  C   C96       1.0  0.19619  0.00647  0.31793  1.0000
  C   C97       1.0  0.21091  0.02066  0.25702  1.0000
  C   C98       1.0  0.22046  0.04205  0.27066  1.0000
  H   H65       1.0  0.21532  0.01567  0.20248  1.0000
  H   H66       1.0  0.23056  0.05165  0.22337  1.0000
  H   H67       1.0  0.16321  0.94629  0.15194  1.0000
  N   N6        1.0  0.18261  0.98648  0.14102  1.0000
  O   O11       1.0  0.19276  0.98301  0.08368  1.0000
  O   O12       1.0  0.16600  0.98328  0.10629  1.0000
  C   C99       1.0  0.14951  0.91915  0.28155  1.0000
  H   H68       1.0  0.13883  0.91378  0.23377  1.0000
  C   C100      1.0  0.98887  0.18361  0.31800  1.0000
  C   C101      1.0  0.97467  0.18414  0.25711  1.0000
  C   C102      1.0  0.95329  0.17229  0.27074  1.0000
  H   H69       1.0  0.97967  0.19355  0.20258  1.0000
  H   H70       1.0  0.94369  0.17279  0.22345  1.0000
  C   C103      1.0  0.07620  0.22423  0.28164  1.0000
  H   H71       1.0  0.08157  0.21893  0.23385  1.0000
  C   C104      1.0  0.23447  0.65804  0.28568  1.0000
  C   C105      1.0  0.23151  0.64558  0.21034  1.0000
  C   C106      1.0  0.22645  0.62474  0.21830  1.0000
  C   C107      1.0  0.22353  0.61558  0.30459  1.0000
  C   C108      1.0  0.22111  0.59540  0.31911  1.0000
  C   C109      1.0  0.21041  0.57864  0.25955  1.0000
  C   C110      1.0  0.21063  0.56013  0.27034  1.0000
  H   H72       1.0  0.20240  0.57970  0.20671  1.0000
  H   H73       1.0  0.20367  0.54885  0.22298  1.0000
  H   H74       1.0  0.23431  0.65207  0.14797  1.0000
  N   N7        1.0  0.22661  0.61413  0.14023  1.0000
  O   O13       1.0  0.21355  0.61273  0.08383  1.0000
  O   O14       1.0  0.24405  0.62239  0.10381  1.0000
  C   C111      1.0  0.24310  0.67918  0.27525  1.0000
  H   H75       1.0  0.25267  0.68588  0.22403  1.0000
  C   C112      1.0  0.33750  0.57015  0.28508  1.0000
  C   C113      1.0  0.35000  0.57968  0.20990  1.0000
  C   C114      1.0  0.37082  0.59549  0.21816  1.0000
  C   C115      1.0  0.37991  0.60172  0.30458  1.0000
  C   C116      1.0  0.40006  0.61951  0.31941  1.0000
  C   C117      1.0  0.41686  0.62562  0.26007  1.0000
  C   C118      1.0  0.43535  0.64438  0.27118  1.0000
  H   H76       1.0  0.41587  0.61659  0.20721  1.0000
  H   H77       1.0  0.44666  0.64875  0.22392  1.0000
  H   H78       1.0  0.34355  0.57603  0.14746  1.0000
  N   N8        1.0  0.38147  0.60632  0.14025  1.0000
  O   O15       1.0  0.38295  0.59471  0.08384  1.0000
  O   O16       1.0  0.37320  0.61548  0.10374  1.0000
  C   C119      1.0  0.31636  0.55763  0.27435  1.0000
  H   H79       1.0  0.30969  0.56055  0.22318  1.0000
  C   C120      1.0  0.42521  0.76123  0.28472  1.0000
  C   C121      1.0  0.41584  0.76436  0.20936  1.0000
  C   C122      1.0  0.40006  0.76944  0.21729  1.0000
  C   C123      1.0  0.39367  0.77215  0.30360  1.0000
  C   C124      1.0  0.37591  0.77458  0.31799  1.0000
  C   C125      1.0  0.36993  0.78538  0.25871  1.0000
  C   C126      1.0  0.35119  0.78517  0.26941  1.0000
  H   H80       1.0  0.37906  0.79348  0.20615  1.0000
  H   H81       1.0  0.34691  0.79218  0.22214  1.0000
  H   H82       1.0  0.41959  0.76166  0.14695  1.0000
  N   N9        1.0  0.38942  0.76946  0.13906  1.0000
  O   O17       1.0  0.40119  0.78265  0.08330  1.0000
  O   O18       1.0  0.38030  0.75210  0.10188  1.0000
  C   C127      1.0  0.43768  0.75256  0.27416  1.0000
  H   H83       1.0  0.43477  0.74298  0.22295  1.0000
  C   C128      1.0  0.76369  0.33499  0.28512  1.0000
  C   C129      1.0  0.76657  0.34748  0.20997  1.0000
  C   C130      1.0  0.77155  0.36829  0.21833  1.0000
  C   C131      1.0  0.77453  0.37740  0.30476  1.0000
  C   C132      1.0  0.77689  0.39754  0.31972  1.0000
  C   C133      1.0  0.78751  0.41434  0.26030  1.0000
  C   C134      1.0  0.78728  0.43284  0.27162  1.0000
  H   H84       1.0  0.79550  0.41333  0.20722  1.0000
  H   H85       1.0  0.79415  0.44414  0.22429  1.0000
  H   H86       1.0  0.76368  0.34102  0.14755  1.0000
  N   N10       1.0  0.77126  0.37892  0.14056  1.0000
  O   O19       1.0  0.78428  0.38041  0.08375  1.0000
  O   O20       1.0  0.75378  0.37062  0.10452  1.0000
  C   C135      1.0  0.75508  0.31386  0.27434  1.0000
  H   H87       1.0  0.74546  0.30719  0.22324  1.0000
  C   C136      1.0  0.66037  0.42265  0.28444  1.0000
  C   C137      1.0  0.64785  0.41312  0.20931  1.0000
  C   C138      1.0  0.62703  0.39733  0.21762  1.0000
  C   C139      1.0  0.61795  0.39108  0.30407  1.0000
  C   C140      1.0  0.59781  0.37329  0.31895  1.0000
  C   C141      1.0  0.58099  0.36718  0.25975  1.0000
  C   C142      1.0  0.56250  0.34843  0.27087  1.0000
  H   H88       1.0  0.58196  0.37623  0.20696  1.0000
  H   H89       1.0  0.55116  0.34407  0.22377  1.0000
  H   H90       1.0  0.65428  0.41680  0.14683  1.0000
  N   N11       1.0  0.61634  0.38653  0.13971  1.0000
  O   O21       1.0  0.61486  0.39816  0.08346  1.0000
  O   O22       1.0  0.62459  0.37737  0.10300  1.0000
  C   C143      1.0  0.68151  0.43516  0.27372  1.0000
  H   H91       1.0  0.68818  0.43224  0.22251  1.0000
  C   C144      1.0  0.57273  0.23165  0.28484  1.0000
  C   C145      1.0  0.58227  0.22871  0.20962  1.0000
  C   C146      1.0  0.59809  0.22370  0.21781  1.0000
  C   C147      1.0  0.60432  0.22083  0.30418  1.0000
  C   C148      1.0  0.62211  0.21845  0.31895  1.0000
  C   C149      1.0  0.62822  0.20778  0.25954  1.0000
  C   C150      1.0  0.64696  0.20802  0.27063  1.0000
  H   H92       1.0  0.61918  0.19975  0.20666  1.0000
  H   H93       1.0  0.65134  0.20110  0.22334  1.0000
  H   H94       1.0  0.57862  0.23152  0.14721  1.0000
  N   N12       1.0  0.60892  0.22390  0.13986  1.0000
  O   O23       1.0  0.59730  0.21081  0.08342  1.0000
  O   O24       1.0  0.61807  0.24133  0.10342  1.0000
  C   C151      1.0  0.56020  0.24026  0.27421  1.0000
  H   H95       1.0  0.56312  0.24986  0.22308  1.0000
  C   C152      1.0  0.10939  0.24862  0.33218  1.0000
  C   C153      1.0  0.12052  0.27028  0.33894  1.0000
  C   C154      1.0  0.14231  0.28122  0.33874  1.0000
  C   C155      1.0  0.15289  0.27012  0.33184  1.0000
  C   C156      1.0  0.14212  0.24840  0.32956  1.0000
  C   C157      1.0  0.12034  0.23782  0.32881  1.0000
  H   H96       1.0  0.16867  0.27795  0.33090  1.0000
  H   H97       1.0  0.11235  0.22209  0.32503  1.0000
  H   H98       1.0  0.11267  0.27819  0.34123  1.0000
  N   N13       1.0  0.08892  0.23906  0.33200  1.0000
  N   N14       1.0  0.15340  0.30167  0.34059  1.0000
  N   N15       1.0  0.15296  0.23878  0.32447  1.0000
  C   C158      1.0  0.74665  0.85462  0.33205  1.0000
  C   C159      1.0  0.72500  0.84409  0.33889  1.0000
  C   C160      1.0  0.71405  0.85493  0.33858  1.0000
  C   C161      1.0  0.72514  0.87661  0.33169  1.0000
  C   C162      1.0  0.74686  0.88756  0.32944  1.0000
  C   C163      1.0  0.75746  0.87637  0.32869  1.0000
  H   H99       1.0  0.71732  0.88456  0.33080  1.0000
  H   H100      1.0  0.77318  0.88411  0.32494  1.0000
  H   H101      1.0  0.71709  0.82833  0.34109  1.0000
  N   N16       1.0  0.75622  0.84371  0.33190  1.0000
  N   N17       1.0  0.69360  0.84557  0.34048  1.0000
  N   N18       1.0  0.75648  0.90802  0.32442  1.0000
  C   C164      1.0  0.14071  0.88596  0.33211  1.0000
  C   C165      1.0  0.15125  0.87484  0.33885  1.0000
  C   C166      1.0  0.14040  0.85304  0.33870  1.0000
  C   C167      1.0  0.11872  0.84246  0.33184  1.0000
  C   C168      1.0  0.10777  0.85322  0.32956  1.0000
  C   C169      1.0  0.11896  0.87500  0.32877  1.0000
  H   H102      1.0  0.11077  0.82667  0.33093  1.0000
  H   H103      1.0  0.11122  0.88299  0.32500  1.0000
  H   H104      1.0  0.16700  0.88268  0.34111  1.0000
  N   N19       1.0  0.15162  0.90642  0.33191  1.0000
  N   N20       1.0  0.14977  0.84196  0.34054  1.0000
  N   N21       1.0  0.08731  0.84238  0.32452  1.0000
  C   C170      1.0  0.88848  0.74421  0.33215  1.0000
  C   C171      1.0  0.87736  0.72256  0.33893  1.0000
  C   C172      1.0  0.85557  0.71161  0.33858  1.0000
  C   C173      1.0  0.84498  0.72269  0.33173  1.0000
  C   C174      1.0  0.85574  0.74441  0.32954  1.0000
  C   C175      1.0  0.87752  0.75501  0.32881  1.0000
  H   H105      1.0  0.82920  0.71486  0.33080  1.0000
  H   H106      1.0  0.88551  0.77074  0.32509  1.0000
  H   H107      1.0  0.88521  0.71465  0.34109  1.0000
  N   N22       1.0  0.90895  0.75377  0.33199  1.0000
  N   N23       1.0  0.84448  0.69115  0.34039  1.0000
  N   N24       1.0  0.84490  0.75403  0.32451  1.0000
  C   C176      1.0  0.25120  0.13819  0.33214  1.0000
  C   C177      1.0  0.27285  0.14872  0.33891  1.0000
  C   C178      1.0  0.28379  0.13786  0.33874  1.0000
  C   C179      1.0  0.27269  0.11619  0.33183  1.0000
  C   C180      1.0  0.25097  0.10524  0.32952  1.0000
  C   C181      1.0  0.24039  0.11644  0.32876  1.0000
  H   H108      1.0  0.28051  0.10823  0.33090  1.0000
  H   H109      1.0  0.22466  0.10870  0.32497  1.0000
  H   H110      1.0  0.28076  0.16447  0.34120  1.0000
  N   N25       1.0  0.24164  0.14910  0.33194  1.0000
  N   N26       1.0  0.30424  0.14722  0.34059  1.0000
  N   N27       1.0  0.24135  0.08478  0.32443  1.0000
  C   C182      1.0  0.85715  0.10685  0.33211  1.0000
  C   C183      1.0  0.84662  0.11798  0.33888  1.0000
  C   C184      1.0  0.85747  0.13977  0.33860  1.0000
  C   C185      1.0  0.87914  0.15035  0.33173  1.0000
  C   C186      1.0  0.89010  0.13958  0.32950  1.0000
  C   C187      1.0  0.87891  0.11781  0.32877  1.0000
  H   H111      1.0  0.88710  0.16614  0.33082  1.0000
  H   H112      1.0  0.88665  0.10982  0.32504  1.0000
  H   H113      1.0  0.83086  0.11013  0.34113  1.0000
  N   N28       1.0  0.84625  0.08638  0.33197  1.0000
  N   N29       1.0  0.84810  0.15086  0.34046  1.0000
  N   N30       1.0  0.91056  0.15043  0.32447  1.0000
  C   C188      1.0  0.25146  0.53264  0.34320  1.0000
  C   C189      1.0  0.24109  0.51089  0.34524  1.0000
  C   C190      1.0  0.25213  0.50018  0.34121  1.0000
  C   C191      1.0  0.27392  0.51158  0.33697  1.0000
  C   C192      1.0  0.28448  0.53327  0.33311  1.0000
  C   C193      1.0  0.27310  0.54359  0.33745  1.0000
  H   H114      1.0  0.28220  0.50412  0.33690  1.0000
  H   H115      1.0  0.28079  0.55938  0.33720  1.0000
  H   H116      1.0  0.22537  0.50277  0.34972  1.0000
  N   N31       1.0  0.24248  0.54400  0.34605  1.0000
  N   N32       1.0  0.24132  0.47973  0.34572  1.0000
  N   N33       1.0  0.30493  0.54403  0.33246  1.0000
  C   C194      1.0  0.46265  0.71265  0.34376  1.0000
  C   C195      1.0  0.48440  0.72404  0.34583  1.0000
  C   C196      1.0  0.49510  0.74578  0.34157  1.0000
  C   C197      1.0  0.48368  0.75616  0.33712  1.0000
  C   C198      1.0  0.46200  0.74502  0.33324  1.0000
  C   C199      1.0  0.45169  0.72333  0.33776  1.0000
  H   H117      1.0  0.49114  0.77191  0.33691  1.0000
  H   H118      1.0  0.43589  0.71522  0.33745  1.0000
  H   H119      1.0  0.49254  0.71646  0.35049  1.0000
  N   N34       1.0  0.45131  0.69231  0.34678  1.0000
  N   N35       1.0  0.51555  0.75543  0.34610  1.0000
  N   N36       1.0  0.45125  0.75472  0.33239  1.0000
  C   C200      1.0  0.28278  0.74412  0.34336  1.0000
  C   C201      1.0  0.27134  0.75443  0.34534  1.0000
  C   C202      1.0  0.24960  0.74332  0.34153  1.0000
  C   C203      1.0  0.23928  0.72152  0.33751  1.0000
  C   C204      1.0  0.25047  0.71103  0.33377  1.0000
  C   C205      1.0  0.27217  0.72248  0.33798  1.0000
  H   H120      1.0  0.22353  0.71319  0.33756  1.0000
  H   H121      1.0  0.28032  0.71484  0.33783  1.0000
  H   H122      1.0  0.27890  0.77015  0.34975  1.0000
  N   N37       1.0  0.30313  0.75317  0.34629  1.0000
  N   N38       1.0  0.23990  0.75407  0.34607  1.0000
  N   N39       1.0  0.24084  0.69058  0.33320  1.0000
  C   C206      1.0  0.74640  0.46016  0.34330  1.0000
  C   C207      1.0  0.75677  0.48192  0.34538  1.0000
  C   C208      1.0  0.74573  0.49262  0.34098  1.0000
  C   C209      1.0  0.72394  0.48122  0.33641  1.0000
  C   C210      1.0  0.71339  0.45954  0.33249  1.0000
  C   C211      1.0  0.72476  0.44921  0.33709  1.0000
  H   H123      1.0  0.71566  0.48869  0.33618  1.0000
  H   H124      1.0  0.71708  0.43342  0.33680  1.0000
  H   H125      1.0  0.77249  0.49004  0.35009  1.0000
  N   N40       1.0  0.75538  0.44880  0.34638  1.0000
  N   N41       1.0  0.75654  0.51307  0.34557  1.0000
  N   N42       1.0  0.69294  0.44877  0.33176  1.0000
  C   C212      1.0  0.53520  0.28014  0.34352  1.0000
  C   C213      1.0  0.51345  0.26875  0.34559  1.0000
  C   C214      1.0  0.50275  0.24701  0.34144  1.0000
  C   C215      1.0  0.51416  0.23663  0.33705  1.0000
  C   C216      1.0  0.53585  0.24776  0.33315  1.0000
  C   C217      1.0  0.54616  0.26946  0.33760  1.0000
  H   H126      1.0  0.50670  0.22088  0.33689  1.0000
  H   H127      1.0  0.56195  0.27757  0.33729  1.0000
  H   H128      1.0  0.50532  0.27635  0.35014  1.0000
  N   N43       1.0  0.54655  0.30049  0.34636  1.0000
  N   N44       1.0  0.48230  0.23737  0.34593  1.0000
  N   N45       1.0  0.54661  0.23808  0.33238  1.0000
  C   C218      1.0  0.71524  0.24895  0.34325  1.0000
  C   C219      1.0  0.72663  0.23858  0.34525  1.0000
  C   C220      1.0  0.74837  0.24963  0.34103  1.0000
  C   C221      1.0  0.75875  0.27142  0.33671  1.0000
  C   C222      1.0  0.74761  0.28197  0.33291  1.0000
  C   C223      1.0  0.72591  0.27059  0.33739  1.0000
  H   H129      1.0  0.77449  0.27971  0.33656  1.0000
  H   H130      1.0  0.71780  0.27826  0.33719  1.0000
  H   H131      1.0  0.71904  0.22286  0.34981  1.0000
  N   N46       1.0  0.69489  0.23995  0.34627  1.0000
  N   N47       1.0  0.75801  0.23883  0.34556  1.0000
  N   N48       1.0  0.75729  0.30242  0.33227  1.0000
  C   C224      1.0  0.16399  0.33572  0.37739  1.0000
  C   C225      1.0  0.17052  0.34793  0.45510  1.0000
  C   C226      1.0  0.18411  0.36949  0.45126  1.0000
  C   C227      1.0  0.19080  0.37947  0.36676  1.0000
  C   C228      1.0  0.20444  0.40142  0.35605  1.0000
  C   C229      1.0  0.20406  0.41623  0.41360  1.0000
  C   C230      1.0  0.21732  0.43746  0.40085  1.0000
  H   H132      1.0  0.19363  0.41188  0.46431  1.0000
  H   H133      1.0  0.21666  0.44747  0.44537  1.0000
  H   H134      1.0  0.16577  0.34102  0.51628  1.0000
  N   N49       1.0  0.19200  0.38054  0.53205  1.0000
  O   O25       1.0  0.17794  0.37917  0.58237  1.0000
  O   O26       1.0  0.20253  0.37454  0.57422  1.0000
  C   C231      1.0  0.15040  0.31475  0.38389  1.0000
  H   H135      1.0  0.13854  0.30985  0.42568  1.0000
  C   C232      1.0  0.65956  0.82212  0.37736  1.0000
  C   C233      1.0  0.64736  0.81644  0.45511  1.0000
  C   C234      1.0  0.62580  0.80848  0.45135  1.0000
  C   C235      1.0  0.61581  0.80521  0.36688  1.0000
  C   C236      1.0  0.59386  0.79690  0.35622  1.0000
  C   C237      1.0  0.57906  0.78171  0.41382  1.0000
  C   C238      1.0  0.55783  0.77373  0.40112  1.0000
  H   H136      1.0  0.58342  0.77563  0.46449  1.0000
  H   H137      1.0  0.54782  0.76305  0.44565  1.0000
  H   H138      1.0  0.65428  0.81860  0.51626  1.0000
  N   N50       1.0  0.61477  0.80534  0.53217  1.0000
  O   O27       1.0  0.61614  0.79264  0.58247  1.0000
  O   O28       1.0  0.62079  0.82187  0.57436  1.0000
  C   C239      1.0  0.68052  0.82948  0.38376  1.0000
  H   H139      1.0  0.68543  0.82253  0.42554  1.0000
  C   C240      1.0  0.17321  0.83136  0.37742  1.0000
  C   C241      1.0  0.17888  0.82484  0.45521  1.0000
  C   C242      1.0  0.18681  0.81122  0.45152  1.0000
  C   C243      1.0  0.19008  0.80449  0.36708  1.0000
  C   C244      1.0  0.19838  0.79084  0.35650  1.0000
  C   C245      1.0  0.21354  0.79120  0.41422  1.0000
  C   C246      1.0  0.22152  0.77795  0.40153  1.0000
  H   H140      1.0  0.21962  0.80165  0.46485  1.0000
  H   H141      1.0  0.23220  0.77862  0.44609  1.0000
  H   H142      1.0  0.17669  0.82959  0.51634  1.0000
  N   N51       1.0  0.18991  0.80332  0.53238  1.0000
  O   O29       1.0  0.20261  0.81737  0.58274  1.0000
  O   O30       1.0  0.17336  0.79282  0.57448  1.0000
  C   C247      1.0  0.16587  0.84498  0.38374  1.0000
  H   H143      1.0  0.17281  0.85683  0.42559  1.0000
  C   C248      1.0  0.83389  0.65710  0.37715  1.0000
  C   C249      1.0  0.82737  0.64488  0.45485  1.0000
  C   C250      1.0  0.81378  0.62332  0.45102  1.0000
  C   C251      1.0  0.80708  0.61334  0.36652  1.0000
  C   C252      1.0  0.79344  0.59139  0.35581  1.0000
  C   C253      1.0  0.79380  0.57658  0.41337  1.0000
  C   C254      1.0  0.78056  0.55535  0.40056  1.0000
  H   H144      1.0  0.80426  0.58093  0.46399  1.0000
  H   H145      1.0  0.78124  0.54534  0.44503  1.0000
  H   H146      1.0  0.83213  0.65179  0.51603  1.0000
  N   N52       1.0  0.80591  0.61228  0.53181  1.0000
  O   O31       1.0  0.81998  0.61365  0.58207  1.0000
  O   O32       1.0  0.79538  0.61828  0.57405  1.0000
  C   C255      1.0  0.84749  0.67806  0.38361  1.0000
  H   H147      1.0  0.85934  0.68297  0.42548  1.0000
  C   C256      1.0  0.33829  0.17068  0.37743  1.0000
  C   C257      1.0  0.35050  0.17637  0.45513  1.0000
  C   C258      1.0  0.37206  0.18435  0.45131  1.0000
  C   C259      1.0  0.38204  0.18764  0.36681  1.0000
  C   C260      1.0  0.40399  0.19594  0.35611  1.0000
  C   C261      1.0  0.41880  0.21113  0.41367  1.0000
  C   C262      1.0  0.44003  0.21910  0.40094  1.0000
  H   H148      1.0  0.41444  0.21721  0.46437  1.0000
  H   H149      1.0  0.45004  0.22978  0.44547  1.0000
  H   H150      1.0  0.34359  0.17421  0.51632  1.0000
  N   N53       1.0  0.38310  0.18751  0.53210  1.0000
  O   O33       1.0  0.38173  0.20020  0.58242  1.0000
  O   O34       1.0  0.37711  0.17097  0.57428  1.0000
  C   C263      1.0  0.31732  0.16330  0.38391  1.0000
  H   H151      1.0  0.31241  0.17026  0.42570  1.0000
  C   C264      1.0  0.82465  0.16145  0.37724  1.0000
  C   C265      1.0  0.81895  0.16797  0.45495  1.0000
  C   C266      1.0  0.81099  0.18157  0.45111  1.0000
  C   C267      1.0  0.80772  0.18827  0.36661  1.0000
  C   C268      1.0  0.79942  0.20192  0.35587  1.0000
  C   C269      1.0  0.78424  0.20156  0.41344  1.0000
  C   C270      1.0  0.77628  0.21482  0.40070  1.0000
  H   H152      1.0  0.77815  0.19112  0.46413  1.0000
  H   H153      1.0  0.76560  0.21416  0.44521  1.0000
  H   H154      1.0  0.82111  0.16322  0.51612  1.0000
  N   N54       1.0  0.80784  0.18945  0.53189  1.0000
  O   O35       1.0  0.79513  0.17539  0.58219  1.0000
  O   O36       1.0  0.82437  0.19997  0.57411  1.0000
  C   C271      1.0  0.83201  0.14785  0.38372  1.0000
  H   H155      1.0  0.82506  0.13599  0.42551  1.0000
  C   C272      1.0  0.20377  0.17637  0.38252  1.0000
  C   C273      1.0  0.21409  0.16502  0.37447  1.0000
  H   H156      1.0  0.21804  0.16010  0.43098  1.0000
  C   C274      1.0  0.16226  0.21347  0.34725  1.0000
  C   C275      1.0  0.16274  0.19990  0.41144  1.0000
  C   C276      1.0  0.17476  0.19040  0.39848  1.0000
  H   H157      1.0  0.15426  0.19688  0.46882  1.0000
  C   C277      1.0  0.17602  0.17731  0.47016  1.0000
  C   C278      1.0  0.19795  0.18015  0.47287  1.0000
  H   H158      1.0  0.16474  0.16120  0.45635  1.0000
  H   H159      1.0  0.17253  0.18122  0.53576  1.0000
  H   H160      1.0  0.19828  0.16974  0.52318  1.0000
  H   H161      1.0  0.20901  0.19592  0.49300  1.0000
  C   C279      1.0  0.14946  0.22171  0.36017  1.0000
  H   H162      1.0  0.13722  0.21416  0.39963  1.0000
  C   C280      1.0  0.81894  0.02125  0.38259  1.0000
  C   C281      1.0  0.83030  0.04292  0.37455  1.0000
  H   H163      1.0  0.83524  0.05178  0.43106  1.0000
  C   C282      1.0  0.78179  0.94264  0.34728  1.0000
  C   C283      1.0  0.79537  0.95668  0.41147  1.0000
  C   C284      1.0  0.80487  0.97820  0.39853  1.0000
  H   H164      1.0  0.79839  0.95121  0.46884  1.0000
  C   C285      1.0  0.81796  0.99255  0.47022  1.0000
  C   C286      1.0  0.81514  0.01165  0.47293  1.0000
  H   H165      1.0  0.83408  0.99737  0.45640  1.0000
  H   H166      1.0  0.81405  0.98514  0.53581  1.0000
  H   H167      1.0  0.82554  0.02238  0.52326  1.0000
  H   H168      1.0  0.79937  0.00695  0.49302  1.0000
  C   C287      1.0  0.77355  0.92159  0.36019  1.0000
  H   H169      1.0  0.78110  0.91690  0.39961  1.0000
  C   C288      1.0  0.97408  0.79162  0.38261  1.0000
  C   C289      1.0  0.95241  0.78133  0.37454  1.0000
  H   H170      1.0  0.94354  0.77737  0.43105  1.0000
  C   C290      1.0  0.98367  0.79740  0.47297  1.0000
  H   H171      1.0  0.99796  0.83062  0.45652  1.0000
  H   H172      1.0  0.97294  0.79708  0.52329  1.0000
  H   H173      1.0  0.98837  0.78633  0.49304  1.0000
  C   C291      1.0  0.07374  0.84587  0.36029  1.0000
  H   H174      1.0  0.07843  0.85811  0.39974  1.0000
  C   C292      1.0  0.79409  0.81646  0.38251  1.0000
  C   C293      1.0  0.78377  0.82781  0.37443  1.0000
  H   H175      1.0  0.77983  0.83273  0.43093  1.0000
  C   C294      1.0  0.83558  0.77933  0.34728  1.0000
  C   C295      1.0  0.83511  0.79291  0.41145  1.0000
  C   C296      1.0  0.82308  0.80240  0.39849  1.0000
  H   H176      1.0  0.84360  0.79594  0.46881  1.0000
  C   C297      1.0  0.82182  0.81550  0.47016  1.0000
  C   C298      1.0  0.79989  0.81267  0.47286  1.0000
  H   H177      1.0  0.83311  0.83161  0.45632  1.0000
  H   H178      1.0  0.82531  0.81159  0.53576  1.0000
  H   H179      1.0  0.79957  0.82308  0.52316  1.0000
  H   H180      1.0  0.78883  0.79690  0.49298  1.0000
  C   C299      1.0  0.84839  0.77110  0.36019  1.0000
  H   H181      1.0  0.86064  0.77867  0.39957  1.0000
  C   C300      1.0  0.17891  0.97156  0.38248  1.0000
  C   C301      1.0  0.16755  0.94989  0.37443  1.0000
  H   H182      1.0  0.16262  0.94102  0.43094  1.0000
  C   C302      1.0  0.21603  0.05017  0.34720  1.0000
  C   C303      1.0  0.20246  0.03612  0.41140  1.0000
  C   C304      1.0  0.19295  0.01460  0.39844  1.0000
  H   H183      1.0  0.19944  0.04159  0.46878  1.0000
  C   C305      1.0  0.17986  0.00025  0.47012  1.0000
  C   C306      1.0  0.18269  0.98115  0.47283  1.0000
  H   H184      1.0  0.16375  0.99542  0.45631  1.0000
  H   H185      1.0  0.18378  0.00765  0.53572  1.0000
  H   H186      1.0  0.17228  0.97042  0.52314  1.0000
  H   H187      1.0  0.19846  0.98586  0.49295  1.0000
  C   C307      1.0  0.22428  0.07121  0.36013  1.0000
  H   H188      1.0  0.21673  0.07590  0.39959  1.0000
  C   C308      1.0  0.94517  0.15974  0.34726  1.0000
  C   C309      1.0  0.95922  0.16021  0.41144  1.0000
  C   C310      1.0  0.98074  0.17223  0.39850  1.0000
  H   H189      1.0  0.95376  0.15172  0.46881  1.0000
  C   C311      1.0  0.99509  0.17349  0.47018  1.0000
  H   H190      1.0  0.99993  0.16221  0.45636  1.0000
  H   H191      1.0  0.98769  0.17000  0.53577  1.0000
  C   C312      1.0  0.92413  0.14693  0.36017  1.0000
  H   H192      1.0  0.91945  0.13468  0.39955  1.0000
  C   C313      1.0  0.22682  0.62829  0.38086  1.0000
  C   C314      1.0  0.23202  0.64907  0.37086  1.0000
  H   H193      1.0  0.23521  0.65808  0.42661  1.0000
  C   C315      1.0  0.22126  0.55762  0.34243  1.0000
  C   C316      1.0  0.23016  0.57333  0.40739  1.0000
  C   C317      1.0  0.22962  0.59181  0.39764  1.0000
  H   H194      1.0  0.23743  0.57149  0.46156  1.0000
  C   C318      1.0  0.23830  0.60774  0.46910  1.0000
  C   C319      1.0  0.22683  0.62013  0.47162  1.0000
  H   H195      1.0  0.25468  0.61808  0.45605  1.0000
  H   H196      1.0  0.23678  0.60067  0.53464  1.0000
  H   H197      1.0  0.23413  0.63234  0.52154  1.0000
  H   H198      1.0  0.21087  0.60999  0.49227  1.0000
  C   C320      1.0  0.22397  0.54072  0.34568  1.0000
  H   H199      1.0  0.21199  0.52660  0.33892  1.0000
  C   C321      1.0  0.36717  0.59223  0.38069  1.0000
  C   C322      1.0  0.34640  0.57662  0.37040  1.0000
  H   H200      1.0  0.33735  0.57077  0.42601  1.0000
  C   C323      1.0  0.43776  0.65748  0.34327  1.0000
  C   C324      1.0  0.42199  0.65061  0.40799  1.0000
  C   C325      1.0  0.40356  0.63157  0.39800  1.0000
  H   H201      1.0  0.42377  0.65969  0.46222  1.0000
  C   C326      1.0  0.38758  0.62424  0.46927  1.0000
  C   C327      1.0  0.37525  0.60038  0.47157  1.0000
  H   H202      1.0  0.37721  0.63024  0.45613  1.0000
  H   H203      1.0  0.39460  0.62977  0.53490  1.0000
  H   H204      1.0  0.36300  0.59540  0.52134  1.0000
  H   H205      1.0  0.38541  0.59459  0.49230  1.0000
  C   C328      1.0  0.45463  0.67710  0.34678  1.0000
  H   H206      1.0  0.46877  0.67929  0.34008  1.0000
  C   C329      1.0  0.40301  0.76875  0.37988  1.0000
  C   C330      1.0  0.41858  0.76354  0.36990  1.0000
  H   H207      1.0  0.42430  0.76021  0.42560  1.0000
  C   C331      1.0  0.33795  0.77440  0.34104  1.0000
  C   C332      1.0  0.34470  0.76540  0.40580  1.0000
  C   C333      1.0  0.36371  0.76593  0.39617  1.0000
  H   H208      1.0  0.33554  0.75804  0.45974  1.0000
  C   C334      1.0  0.37085  0.75709  0.46739  1.0000
  C   C335      1.0  0.39470  0.76855  0.47055  1.0000
  H   H209      1.0  0.36484  0.74074  0.45367  1.0000
  H   H210      1.0  0.36521  0.75846  0.53293  1.0000
  H   H211      1.0  0.39954  0.76115  0.52028  1.0000
  H   H212      1.0  0.40050  0.78447  0.49179  1.0000
  C   C336      1.0  0.31833  0.77169  0.34423  1.0000
  H   H213      1.0  0.31613  0.78356  0.33470  1.0000
  C   C337      1.0  0.77136  0.36467  0.38082  1.0000
  C   C338      1.0  0.76623  0.34391  0.37046  1.0000
  H   H214      1.0  0.76307  0.33487  0.42607  1.0000
  C   C339      1.0  0.77665  0.43525  0.34399  1.0000
  C   C340      1.0  0.76781  0.41949  0.40875  1.0000
  C   C341      1.0  0.76840  0.40105  0.39854  1.0000
  H   H215      1.0  0.76054  0.42127  0.46310  1.0000
  C   C342      1.0  0.75982  0.38507  0.46981  1.0000
  C   C343      1.0  0.77137  0.37276  0.47176  1.0000
  H   H216      1.0  0.74344  0.37468  0.45689  1.0000
  H   H217      1.0  0.76134  0.39208  0.53548  1.0000
  H   H218      1.0  0.76415  0.36051  0.52158  1.0000
  H   H219      1.0  0.78734  0.38294  0.49225  1.0000
  C   C344      1.0  0.77390  0.45211  0.34766  1.0000
  H   H220      1.0  0.78590  0.46626  0.34267  1.0000
  C   C345      1.0  0.63073  0.40055  0.38013  1.0000
  C   C346      1.0  0.65149  0.41614  0.36977  1.0000
  H   H221      1.0  0.66055  0.42199  0.42538  1.0000
  C   C347      1.0  0.56011  0.33532  0.34293  1.0000
  C   C348      1.0  0.57590  0.34218  0.40754  1.0000
  C   C349      1.0  0.59434  0.36121  0.39746  1.0000
  H   H222      1.0  0.57414  0.33308  0.46168  1.0000
  C   C350      1.0  0.61034  0.36852  0.46859  1.0000
  C   C351      1.0  0.62267  0.39238  0.47101  1.0000
  H   H223      1.0  0.62072  0.36253  0.45523  1.0000
  H   H224      1.0  0.60336  0.36297  0.53426  1.0000
  H   H225      1.0  0.63494  0.39734  0.52070  1.0000
  H   H226      1.0  0.61251  0.39816  0.49191  1.0000
  C   C352      1.0  0.54324  0.31570  0.34647  1.0000
  H   H227      1.0  0.52911  0.31354  0.34026  1.0000
  C   C353      1.0  0.59483  0.22406  0.38034  1.0000
  C   C354      1.0  0.57922  0.22921  0.37013  1.0000
  H   H228      1.0  0.57337  0.23239  0.42578  1.0000
  C   C355      1.0  0.66006  0.21869  0.34277  1.0000
  C   C356      1.0  0.65320  0.22759  0.40754  1.0000
  C   C357      1.0  0.63416  0.22700  0.39756  1.0000
  H   H229      1.0  0.66228  0.23487  0.46179  1.0000
  C   C358      1.0  0.62684  0.23564  0.46887  1.0000
  C   C359      1.0  0.60298  0.22411  0.47120  1.0000
  H   H230      1.0  0.63284  0.25201  0.45577  1.0000
  H   H231      1.0  0.63238  0.23415  0.53448  1.0000
  H   H232      1.0  0.59801  0.23138  0.52102  1.0000
  H   H233      1.0  0.59719  0.20815  0.49187  1.0000
  C   C360      1.0  0.67968  0.22143  0.34629  1.0000
  H   H234      1.0  0.68185  0.20947  0.33962  1.0000
