data_image0
_chemical_formula_structural       C5H3CH3C5H3CH3C5H3CH3C5H3CH3C5H3CH3C5H3CH3C3H3CH3C3H3CH3C3H3CH3C3H3CH3C3H3CH3C3H3CH3C3H3CH3C3H3CH3C3H3CH3C3H3CH3C3H3CH3C3H3CH3C5H3CH3C5H3CH3C5H3CH3C5H3CH3C5H3CH3C5H3CH3C3H3CH3C3H3CH3C3H3CH3C3H3CH3C3H3CH3C3H3CH3C3H3CH3C3H3CH3C3H3CH3C3H3CH3C3H3CH3C3H3CH3C5H3CH3C5H3CH3C5H3CH3C5H3CH3C5H3CH3C5H3CH3C3H3CH3C3H3CH3C3H3CH3C3H3CH3C3H3CH3C3H3CH3C5H3CH3C5H3CH3C5H3CH3C5H3CH3C5H3CH3C5H3CH3CNCNCNCNCNCNCNCNCNCNCNCNCNCNCNCNCNCNCNCNCNCNCNCNCNCNCNCNCNCNCNCNCNCNCNCNCNCNCNCNCNCNCNCNCNCNCNCNCNCNCNCNCNCNCNCNCNCNCNCNCNCNCNCNCNCNCNCNCNCNCNCNCNCNCNCNCNCNCNCNCNCNCNCNCNCNCNCNCNCNCNCNCNCNCNCNCNCNCNCNCNCNCNCNCNCNCNCNC3H3CH3C3H3CH3C3H3CH3C3H3CH3C3H3CH3C3H3CH3C5H3CH3C5H3CH3C5H3CH3C5H3CH3C5H3CH3C5H3CH3C5H3CH3C5H3CH3C5H3CH3C5H3CH3C5H3CH3C5H3CH3C3H3CH3C3H3CH3C3H3CH3C3H3CH3C3H3CH3C3H3CH3C5H3CH3C5H3CH3C5H3CH3C5H3CH3C5H3CH3C5H3CH3C5H3CH3C5H3CH3C5H3CH3C5H3CH3C5H3CH3C5H3CH3C3H3CH3C3H3CH3C3H3CH3C3H3CH3C3H3CH3C3H3CH3C5H3CH3C5H3CH3C5H3CH3C5H3CH3C5H3CH3C5H3CH3C3H3CH3C3H3CH3C3H3CH3C3H3CH3C3H3CH3C3H3CH3
_chemical_formula_sum              "C648 H648 N108"
_cell_length_a       67.452
_cell_length_b       67.452
_cell_length_c       14.8899
_cell_angle_alpha    90
_cell_angle_beta     90
_cell_angle_gamma    120

_space_group_name_H-M_alt    "P 1"
_space_group_IT_number       1

loop_
  _space_group_symop_operation_xyz
  'x, y, z'

loop_
  _atom_site_type_symbol
  _atom_site_label
  _atom_site_symmetry_multiplicity
  _atom_site_fract_x
  _atom_site_fract_y
  _atom_site_fract_z
  _atom_site_occupancy
  C   C1        1.0  0.12789  0.31878  0.34049  1.0000
  C   C2        1.0  0.12631  0.32840  0.25721  1.0000
  C   C3        1.0  0.12670  0.34981  0.25624  1.0000
  C   C4        1.0  0.12810  0.36123  0.33874  1.0000
  C   C5        1.0  0.12645  0.36145  0.17033  1.0000
  H   H1        1.0  0.12326  0.35132  0.10974  1.0000
  H   H2        1.0  0.14288  0.37709  0.16103  1.0000
  H   H3        1.0  0.11300  0.36595  0.17380  1.0000
  C   C6        1.0  0.12519  0.31655  0.17047  1.0000
  H   H4        1.0  0.12434  0.30008  0.17834  1.0000
  H   H5        1.0  0.14026  0.32737  0.12971  1.0000
  H   H6        1.0  0.10978  0.31302  0.13365  1.0000
  C   C7        1.0  0.69050  0.81089  0.34032  1.0000
  C   C8        1.0  0.68085  0.79979  0.25695  1.0000
  C   C9        1.0  0.65940  0.77881  0.25601  1.0000
  C   C10       1.0  0.64800  0.76879  0.33855  1.0000
  C   C11       1.0  0.64773  0.76697  0.17009  1.0000
  H   H7        1.0  0.65784  0.77394  0.10947  1.0000
  H   H8        1.0  0.63209  0.76778  0.16100  1.0000
  H   H9        1.0  0.64321  0.74902  0.17337  1.0000
  C   C12       1.0  0.69272  0.81054  0.17025  1.0000
  H   H10       1.0  0.70922  0.82609  0.17820  1.0000
  H   H11       1.0  0.68194  0.81487  0.12961  1.0000
  H   H12       1.0  0.69617  0.79862  0.13327  1.0000
  C   C13       1.0  0.19832  0.88143  0.34062  1.0000
  C   C14       1.0  0.20938  0.88277  0.25720  1.0000
  C   C15       1.0  0.23037  0.88231  0.25622  1.0000
  C   C16       1.0  0.24047  0.88106  0.33877  1.0000
  C   C17       1.0  0.24215  0.88241  0.17023  1.0000
  H   H13       1.0  0.23515  0.88549  0.10958  1.0000
  H   H14       1.0  0.24135  0.86596  0.16134  1.0000
  H   H15       1.0  0.26010  0.89585  0.17328  1.0000
  C   C18       1.0  0.19860  0.88383  0.17045  1.0000
  H   H16       1.0  0.18305  0.88479  0.17834  1.0000
  H   H17       1.0  0.19425  0.86869  0.13002  1.0000
  H   H18       1.0  0.21051  0.89916  0.13327  1.0000
  C   C19       1.0  0.88322  0.68860  0.34055  1.0000
  C   C20       1.0  0.88458  0.67889  0.25712  1.0000
  C   C21       1.0  0.88419  0.65748  0.25616  1.0000
  C   C22       1.0  0.88302  0.64620  0.33880  1.0000
  C   C23       1.0  0.88431  0.64578  0.17022  1.0000
  H   H19       1.0  0.88736  0.65585  0.10954  1.0000
  H   H20       1.0  0.86788  0.63011  0.16137  1.0000
  H   H21       1.0  0.89779  0.64133  0.17329  1.0000
  C   C24       1.0  0.88556  0.69068  0.17034  1.0000
  H   H22       1.0  0.88646  0.70716  0.17816  1.0000
  H   H23       1.0  0.87042  0.67984  0.12998  1.0000
  H   H24       1.0  0.90091  0.69415  0.13311  1.0000
  C   C25       1.0  0.32063  0.19644  0.34049  1.0000
  C   C26       1.0  0.33025  0.20764  0.25721  1.0000
  C   C27       1.0  0.35166  0.22866  0.25624  1.0000
  C   C28       1.0  0.36308  0.23867  0.33874  1.0000
  C   C29       1.0  0.36329  0.24055  0.17033  1.0000
  H   H25       1.0  0.35317  0.23360  0.10974  1.0000
  H   H26       1.0  0.37894  0.23976  0.16104  1.0000
  H   H27       1.0  0.36779  0.25849  0.17380  1.0000
  C   C30       1.0  0.31839  0.19690  0.17047  1.0000
  H   H28       1.0  0.30193  0.18129  0.17834  1.0000
  H   H29       1.0  0.32922  0.19266  0.12971  1.0000
  H   H30       1.0  0.31487  0.20879  0.13365  1.0000
  C   C31       1.0  0.81275  0.12597  0.34025  1.0000
  C   C32       1.0  0.80166  0.12456  0.25688  1.0000
  C   C33       1.0  0.78067  0.12499  0.25594  1.0000
  C   C34       1.0  0.77063  0.12630  0.33855  1.0000
  C   C35       1.0  0.76882  0.12482  0.17003  1.0000
  H   H31       1.0  0.77580  0.12171  0.10939  1.0000
  H   H32       1.0  0.76960  0.14126  0.16098  1.0000
  H   H33       1.0  0.75087  0.11137  0.17329  1.0000
  C   C36       1.0  0.81243  0.12348  0.17015  1.0000
  H   H34       1.0  0.82800  0.12257  0.17806  1.0000
  H   H35       1.0  0.81673  0.13859  0.12960  1.0000
  H   H36       1.0  0.80053  0.10812  0.13311  1.0000
  C   C37       1.0  0.35353  0.12854  0.25536  1.0000
  C   C38       1.0  0.33219  0.12820  0.25556  1.0000
  C   C39       1.0  0.36540  0.13031  0.16770  1.0000
  H   H37       1.0  0.38102  0.12942  0.17407  1.0000
  H   H38       1.0  0.36994  0.14650  0.13483  1.0000
  H   H39       1.0  0.35418  0.11621  0.12358  1.0000
  C   C40       1.0  0.32187  0.12974  0.16812  1.0000
  H   H40       1.0  0.30510  0.12824  0.17478  1.0000
  H   H41       1.0  0.31945  0.11588  0.12349  1.0000
  H   H42       1.0  0.33314  0.14611  0.13568  1.0000
  C   C41       1.0  0.78238  0.65573  0.25528  1.0000
  C   C42       1.0  0.80340  0.67705  0.25547  1.0000
  C   C43       1.0  0.77226  0.64387  0.16764  1.0000
  H   H43       1.0  0.75572  0.62826  0.17406  1.0000
  H   H44       1.0  0.78387  0.63930  0.13472  1.0000
  H   H45       1.0  0.76939  0.65510  0.12355  1.0000
  C   C44       1.0  0.81523  0.68737  0.16799  1.0000
  H   H46       1.0  0.83053  0.70414  0.17464  1.0000
  H   H47       1.0  0.80380  0.68982  0.12345  1.0000
  H   H48       1.0  0.82032  0.67610  0.13548  1.0000
  C   C45       1.0  0.88051  0.22674  0.25516  1.0000
  C   C46       1.0  0.88082  0.20571  0.25544  1.0000
  C   C47       1.0  0.87861  0.23675  0.16750  1.0000
  H   H49       1.0  0.87955  0.25329  0.17378  1.0000
  H   H50       1.0  0.86236  0.22510  0.13507  1.0000
  H   H51       1.0  0.89263  0.23957  0.12304  1.0000
  C   C48       1.0  0.87914  0.19379  0.16801  1.0000
  H   H52       1.0  0.88064  0.17851  0.17460  1.0000
  H   H53       1.0  0.89293  0.20519  0.12305  1.0000
  H   H54       1.0  0.86271  0.18866  0.13597  1.0000
  C   C49       1.0  0.65746  0.87865  0.25534  1.0000
  C   C50       1.0  0.67880  0.87897  0.25559  1.0000
  C   C51       1.0  0.64556  0.87677  0.16768  1.0000
  H   H55       1.0  0.62995  0.87769  0.17397  1.0000
  H   H56       1.0  0.64099  0.86054  0.13513  1.0000
  H   H57       1.0  0.65676  0.89081  0.12329  1.0000
  C   C52       1.0  0.68907  0.87734  0.16813  1.0000
  H   H58       1.0  0.70586  0.87886  0.17471  1.0000
  H   H59       1.0  0.69146  0.89115  0.12328  1.0000
  H   H60       1.0  0.67779  0.86093  0.13598  1.0000
  C   C53       1.0  0.22869  0.35169  0.25536  1.0000
  C   C54       1.0  0.20769  0.33034  0.25556  1.0000
  C   C55       1.0  0.23878  0.36355  0.16770  1.0000
  H   H61       1.0  0.25530  0.37917  0.17407  1.0000
  H   H62       1.0  0.22714  0.36809  0.13483  1.0000
  H   H63       1.0  0.24166  0.35233  0.12358  1.0000
  C   C56       1.0  0.19583  0.32003  0.16812  1.0000
  H   H64       1.0  0.18055  0.30325  0.17478  1.0000
  H   H65       1.0  0.20726  0.31760  0.12349  1.0000
  H   H66       1.0  0.19073  0.33129  0.13568  1.0000
  C   C57       1.0  0.13034  0.78052  0.25535  1.0000
  C   C58       1.0  0.13006  0.80155  0.25558  1.0000
  C   C59       1.0  0.13205  0.77039  0.16771  1.0000
  H   H67       1.0  0.13110  0.75384  0.17412  1.0000
  H   H68       1.0  0.14824  0.78198  0.13477  1.0000
  H   H69       1.0  0.11796  0.76754  0.12363  1.0000
  C   C60       1.0  0.13160  0.81340  0.16812  1.0000
  H   H70       1.0  0.13016  0.82871  0.17477  1.0000
  H   H71       1.0  0.11771  0.80198  0.12358  1.0000
  H   H72       1.0  0.14795  0.81846  0.13559  1.0000
  C   C61       1.0  0.20804  0.42959  0.25188  1.0000
  C   C62       1.0  0.22950  0.43025  0.25305  1.0000
  C   C63       1.0  0.19619  0.42737  0.16378  1.0000
  H   H73       1.0  0.18039  0.42796  0.16934  1.0000
  H   H74       1.0  0.19196  0.41118  0.13172  1.0000
  H   H75       1.0  0.20729  0.44144  0.11930  1.0000
  C   C64       1.0  0.24012  0.42880  0.16626  1.0000
  H   H76       1.0  0.25703  0.43064  0.17393  1.0000
  H   H77       1.0  0.24239  0.44250  0.12106  1.0000
  H   H78       1.0  0.22915  0.41233  0.13403  1.0000
  C   C65       1.0  0.57961  0.78028  0.25173  1.0000
  C   C66       1.0  0.57898  0.80109  0.25293  1.0000
  C   C67       1.0  0.58180  0.77062  0.16364  1.0000
  H   H79       1.0  0.58118  0.75422  0.16922  1.0000
  H   H80       1.0  0.59799  0.78256  0.13155  1.0000
  H   H81       1.0  0.56773  0.76767  0.11919  1.0000
  C   C68       1.0  0.58043  0.81317  0.16615  1.0000
  H   H82       1.0  0.57862  0.82825  0.17386  1.0000
  H   H83       1.0  0.56672  0.80175  0.12097  1.0000
  H   H84       1.0  0.59690  0.81864  0.13389  1.0000
  C   C69       1.0  0.22907  0.80110  0.25188  1.0000
  C   C70       1.0  0.20823  0.77968  0.25305  1.0000
  C   C71       1.0  0.23883  0.81288  0.16378  1.0000
  H   H85       1.0  0.25523  0.82865  0.16945  1.0000
  H   H86       1.0  0.22693  0.81713  0.13125  1.0000
  H   H87       1.0  0.24180  0.80172  0.11969  1.0000
  C   C72       1.0  0.19620  0.76903  0.16625  1.0000
  H   H88       1.0  0.18108  0.75216  0.17399  1.0000
  H   H89       1.0  0.20763  0.76667  0.12135  1.0000
  H   H90       1.0  0.19079  0.78004  0.13366  1.0000
  C   C73       1.0  0.80303  0.57771  0.25189  1.0000
  C   C74       1.0  0.78159  0.57709  0.25297  1.0000
  C   C75       1.0  0.81483  0.57978  0.16380  1.0000
  H   H91       1.0  0.83062  0.57917  0.16946  1.0000
  H   H92       1.0  0.81908  0.59594  0.13139  1.0000
  H   H93       1.0  0.80369  0.56566  0.11961  1.0000
  C   C76       1.0  0.77096  0.57851  0.16616  1.0000
  H   H94       1.0  0.75409  0.57674  0.17385  1.0000
  H   H95       1.0  0.76864  0.56476  0.12113  1.0000
  H   H96       1.0  0.78197  0.59495  0.13374  1.0000
  C   C77       1.0  0.43144  0.22710  0.25188  1.0000
  C   C78       1.0  0.43210  0.20629  0.25306  1.0000
  C   C79       1.0  0.42922  0.23673  0.16378  1.0000
  H   H97       1.0  0.42981  0.25312  0.16934  1.0000
  H   H98       1.0  0.41303  0.22477  0.13172  1.0000
  H   H99       1.0  0.44329  0.23971  0.11931  1.0000
  C   C80       1.0  0.43065  0.19423  0.16626  1.0000
  H   H100      1.0  0.43250  0.17916  0.17393  1.0000
  H   H101      1.0  0.44436  0.20566  0.12107  1.0000
  H   H102      1.0  0.41418  0.18873  0.13403  1.0000
  C   C81       1.0  0.78214  0.20618  0.25168  1.0000
  C   C82       1.0  0.80297  0.22762  0.25292  1.0000
  C   C83       1.0  0.77249  0.19433  0.16359  1.0000
  H   H103      1.0  0.75609  0.17856  0.16916  1.0000
  H   H104      1.0  0.78443  0.19006  0.13157  1.0000
  H   H105      1.0  0.76956  0.20545  0.11909  1.0000
  C   C84       1.0  0.81506  0.23823  0.16613  1.0000
  H   H106      1.0  0.83015  0.25511  0.17381  1.0000
  H   H107      1.0  0.80365  0.24053  0.12093  1.0000
  H   H108      1.0  0.82052  0.22722  0.13391  1.0000
  C   C85       1.0  0.10543  0.46036  0.34118  1.0000
  C   C86       1.0  0.11089  0.45375  0.25775  1.0000
  C   C87       1.0  0.12189  0.44026  0.25765  1.0000
  C   C88       1.0  0.12746  0.43367  0.34091  1.0000
  C   C89       1.0  0.12772  0.43242  0.17198  1.0000
  H   H109      1.0  0.12273  0.43732  0.11024  1.0000
  H   H110      1.0  0.11929  0.41376  0.17125  1.0000
  H   H111      1.0  0.14620  0.43941  0.16816  1.0000
  C   C90       1.0  0.10529  0.46084  0.16999  1.0000
  H   H112      1.0  0.09770  0.47173  0.17550  1.0000
  H   H113      1.0  0.09318  0.44567  0.13242  1.0000
  H   H114      1.0  0.12091  0.47055  0.13069  1.0000
  C   C91       1.0  0.54890  0.64694  0.34115  1.0000
  C   C92       1.0  0.55552  0.65902  0.25771  1.0000
  C   C93       1.0  0.56900  0.68351  0.25759  1.0000
  C   C94       1.0  0.57559  0.69568  0.34083  1.0000
  C   C95       1.0  0.57684  0.69717  0.17191  1.0000
  H   H115      1.0  0.57195  0.68727  0.11017  1.0000
  H   H116      1.0  0.59550  0.70740  0.17119  1.0000
  H   H117      1.0  0.56985  0.70866  0.16806  1.0000
  C   C96       1.0  0.54841  0.64632  0.16996  1.0000
  H   H118      1.0  0.53752  0.62784  0.17549  1.0000
  H   H119      1.0  0.56359  0.64938  0.13239  1.0000
  H   H120      1.0  0.53872  0.65224  0.13065  1.0000
  C   C97       1.0  0.36233  0.90382  0.34115  1.0000
  C   C98       1.0  0.35024  0.89834  0.25773  1.0000
  C   C99       1.0  0.32576  0.88734  0.25763  1.0000
  C   C100      1.0  0.31360  0.88177  0.34088  1.0000
  C   C101      1.0  0.31209  0.88151  0.17196  1.0000
  H   H121      1.0  0.32199  0.88652  0.11021  1.0000
  H   H122      1.0  0.30186  0.88994  0.17124  1.0000
  H   H123      1.0  0.30061  0.86303  0.16812  1.0000
  C   C102      1.0  0.36295  0.90395  0.16998  1.0000
  H   H124      1.0  0.38142  0.91153  0.17550  1.0000
  H   H125      1.0  0.35989  0.91606  0.13240  1.0000
  H   H126      1.0  0.35703  0.88832  0.13067  1.0000
  C   C103      1.0  0.90567  0.54704  0.34117  1.0000
  C   C104      1.0  0.90020  0.55366  0.25776  1.0000
  C   C105      1.0  0.88920  0.56714  0.25767  1.0000
  C   C106      1.0  0.88364  0.57374  0.34092  1.0000
  C   C107      1.0  0.88337  0.57499  0.17200  1.0000
  H   H127      1.0  0.88837  0.57009  0.11025  1.0000
  H   H128      1.0  0.89181  0.59365  0.17127  1.0000
  H   H129      1.0  0.86489  0.56800  0.16817  1.0000
  C   C108      1.0  0.90579  0.54655  0.17001  1.0000
  H   H130      1.0  0.91337  0.53566  0.17553  1.0000
  H   H131      1.0  0.91790  0.56172  0.13243  1.0000
  H   H132      1.0  0.89017  0.53685  0.13071  1.0000
  C   C109      1.0  0.46222  0.36048  0.34119  1.0000
  C   C110      1.0  0.45560  0.34840  0.25776  1.0000
  C   C111      1.0  0.44211  0.32392  0.25766  1.0000
  C   C112      1.0  0.43552  0.31176  0.34092  1.0000
  C   C113      1.0  0.43427  0.31025  0.17199  1.0000
  H   H133      1.0  0.43917  0.32014  0.11024  1.0000
  H   H134      1.0  0.41561  0.30002  0.17127  1.0000
  H   H135      1.0  0.44126  0.29876  0.16817  1.0000
  C   C114      1.0  0.46270  0.36110  0.17000  1.0000
  H   H136      1.0  0.47359  0.37958  0.17552  1.0000
  H   H137      1.0  0.44753  0.35804  0.13243  1.0000
  H   H138      1.0  0.47240  0.35518  0.13070  1.0000
  C   C115      1.0  0.64879  0.10358  0.34119  1.0000
  C   C116      1.0  0.66087  0.10904  0.25775  1.0000
  C   C117      1.0  0.68536  0.12004  0.25764  1.0000
  C   C118      1.0  0.69752  0.12562  0.34089  1.0000
  C   C119      1.0  0.69903  0.12587  0.17196  1.0000
  H   H139      1.0  0.68913  0.12086  0.11022  1.0000
  H   H140      1.0  0.70925  0.11744  0.17125  1.0000
  H   H141      1.0  0.71051  0.14435  0.16812  1.0000
  C   C120      1.0  0.64817  0.10344  0.17000  1.0000
  H   H142      1.0  0.62969  0.09586  0.17552  1.0000
  H   H143      1.0  0.65123  0.09133  0.13243  1.0000
  H   H144      1.0  0.65409  0.11906  0.13069  1.0000
  C   C121      1.0  0.44241  0.12082  0.26320  1.0000
  C   C122      1.0  0.45576  0.10968  0.26262  1.0000
  C   C123      1.0  0.43560  0.12673  0.17522  1.0000
  H   H145      1.0  0.42503  0.13466  0.18077  1.0000
  H   H146      1.0  0.42578  0.11126  0.13525  1.0000
  H   H147      1.0  0.45086  0.13870  0.13789  1.0000
  C   C124      1.0  0.46271  0.10421  0.17401  1.0000
  H   H148      1.0  0.47346  0.09647  0.17877  1.0000
  H   H149      1.0  0.47246  0.11984  0.13489  1.0000
  H   H150      1.0  0.44751  0.09229  0.13622  1.0000
  C   C125      1.0  0.68582  0.56687  0.26304  1.0000
  C   C126      1.0  0.66133  0.55352  0.26248  1.0000
  C   C127      1.0  0.69853  0.57367  0.17505  1.0000
  H   H151      1.0  0.71703  0.58424  0.18057  1.0000
  H   H152      1.0  0.69289  0.58349  0.13507  1.0000
  H   H153      1.0  0.69524  0.55841  0.13772  1.0000
  C   C128      1.0  0.64891  0.54656  0.17388  1.0000
  H   H154      1.0  0.63041  0.53581  0.17865  1.0000
  H   H155      1.0  0.65478  0.53681  0.13476  1.0000
  H   H156      1.0  0.65218  0.56176  0.13607  1.0000
  C   C129      1.0  0.88842  0.32342  0.26333  1.0000
  C   C130      1.0  0.89956  0.34791  0.26273  1.0000
  C   C131      1.0  0.88251  0.31071  0.17535  1.0000
  H   H157      1.0  0.87458  0.29221  0.18089  1.0000
  H   H158      1.0  0.89797  0.31635  0.13536  1.0000
  H   H159      1.0  0.87053  0.31399  0.13801  1.0000
  C   C132      1.0  0.90502  0.36033  0.17413  1.0000
  H   H160      1.0  0.91277  0.37883  0.17890  1.0000
  H   H161      1.0  0.88940  0.35445  0.13501  1.0000
  H   H162      1.0  0.91695  0.35706  0.13632  1.0000
  C   C133      1.0  0.56870  0.88656  0.26327  1.0000
  C   C134      1.0  0.55536  0.89771  0.26268  1.0000
  C   C135      1.0  0.57551  0.88065  0.17530  1.0000
  H   H163      1.0  0.58608  0.87272  0.18085  1.0000
  H   H164      1.0  0.58533  0.89611  0.13531  1.0000
  H   H165      1.0  0.56024  0.86867  0.13797  1.0000
  C   C136      1.0  0.54841  0.90317  0.17407  1.0000
  H   H166      1.0  0.53765  0.91092  0.17883  1.0000
  H   H167      1.0  0.53866  0.88755  0.13495  1.0000
  H   H168      1.0  0.56361  0.91510  0.13626  1.0000
  C   C137      1.0  0.32529  0.44056  0.26321  1.0000
  C   C138      1.0  0.34978  0.45391  0.26263  1.0000
  C   C139      1.0  0.31257  0.43375  0.17523  1.0000
  H   H169      1.0  0.29407  0.42318  0.18077  1.0000
  H   H170      1.0  0.31821  0.42393  0.13525  1.0000
  H   H171      1.0  0.31586  0.44901  0.13789  1.0000
  C   C140      1.0  0.36220  0.46086  0.17402  1.0000
  H   H172      1.0  0.38070  0.47162  0.17878  1.0000
  H   H173      1.0  0.35632  0.47061  0.13490  1.0000
  H   H174      1.0  0.35892  0.44566  0.13622  1.0000
  C   C141      1.0  0.12265  0.68397  0.26296  1.0000
  C   C142      1.0  0.11152  0.65948  0.26241  1.0000
  C   C143      1.0  0.12856  0.69668  0.17497  1.0000
  H   H175      1.0  0.13650  0.71518  0.18050  1.0000
  H   H176      1.0  0.11310  0.69104  0.13500  1.0000
  H   H177      1.0  0.14053  0.69339  0.13764  1.0000
  C   C144      1.0  0.10604  0.64705  0.17381  1.0000
  H   H178      1.0  0.09829  0.62855  0.17859  1.0000
  H   H179      1.0  0.12167  0.65293  0.13469  1.0000
  H   H180      1.0  0.09412  0.65033  0.13601  1.0000
  C   C145      1.0  0.12036  0.23342  0.25809  1.0000
  C   C146      1.0  0.10808  0.20887  0.25787  1.0000
  C   C147      1.0  0.12670  0.24608  0.16998  1.0000
  H   H181      1.0  0.13601  0.26465  0.17534  1.0000
  H   H182      1.0  0.11127  0.24157  0.13135  1.0000
  H   H183      1.0  0.13761  0.24154  0.13139  1.0000
  C   C148      1.0  0.10185  0.19637  0.16938  1.0000
  H   H184      1.0  0.09254  0.17779  0.17412  1.0000
  H   H185      1.0  0.11732  0.20096  0.13096  1.0000
  H   H186      1.0  0.09099  0.20097  0.13084  1.0000
  C   C149      1.0  0.77581  0.88877  0.25825  1.0000
  C   C150      1.0  0.80036  0.90105  0.25803  1.0000
  C   C151      1.0  0.76315  0.88245  0.17014  1.0000
  H   H187      1.0  0.74458  0.87318  0.17552  1.0000
  H   H188      1.0  0.76766  0.87153  0.13152  1.0000
  H   H189      1.0  0.76768  0.89788  0.13154  1.0000
  C   C152      1.0  0.81286  0.90731  0.16952  1.0000
  H   H190      1.0  0.83144  0.91659  0.17425  1.0000
  H   H191      1.0  0.80827  0.91820  0.13109  1.0000
  H   H192      1.0  0.80825  0.89184  0.13099  1.0000
  C   C153      1.0  0.12046  0.88887  0.25826  1.0000
  C   C154      1.0  0.10818  0.90114  0.25802  1.0000
  C   C155      1.0  0.12678  0.88253  0.17016  1.0000
  H   H193      1.0  0.13605  0.87323  0.17554  1.0000
  H   H194      1.0  0.13770  0.89796  0.13153  1.0000
  H   H195      1.0  0.11134  0.87163  0.13155  1.0000
  C   C156      1.0  0.10192  0.90738  0.16951  1.0000
  H   H196      1.0  0.09263  0.91668  0.17423  1.0000
  H   H197      1.0  0.09103  0.89190  0.13108  1.0000
  H   H198      1.0  0.11738  0.91824  0.13098  1.0000
  C   C157      1.0  0.89072  0.77394  0.25825  1.0000
  C   C158      1.0  0.90299  0.79850  0.25802  1.0000
  C   C159      1.0  0.88437  0.76128  0.17014  1.0000
  H   H199      1.0  0.87508  0.74271  0.17551  1.0000
  H   H200      1.0  0.89980  0.76580  0.13151  1.0000
  H   H201      1.0  0.87347  0.76581  0.13155  1.0000
  C   C160      1.0  0.90922  0.81099  0.16952  1.0000
  H   H202      1.0  0.91852  0.82958  0.17425  1.0000
  H   H203      1.0  0.89374  0.80640  0.13110  1.0000
  H   H204      1.0  0.92008  0.80639  0.13098  1.0000
  C   C161      1.0  0.23527  0.11861  0.25808  1.0000
  C   C162      1.0  0.21072  0.10633  0.25787  1.0000
  C   C163      1.0  0.24793  0.12492  0.16998  1.0000
  H   H205      1.0  0.26650  0.13419  0.17534  1.0000
  H   H206      1.0  0.24342  0.13584  0.13134  1.0000
  H   H207      1.0  0.24340  0.10948  0.13139  1.0000
  C   C164      1.0  0.19822  0.10006  0.16937  1.0000
  H   H208      1.0  0.17963  0.09078  0.17411  1.0000
  H   H209      1.0  0.20281  0.08917  0.13095  1.0000
  H   H210      1.0  0.20282  0.11553  0.13083  1.0000
  C   C165      1.0  0.89061  0.11850  0.25828  1.0000
  C   C166      1.0  0.90289  0.10623  0.25806  1.0000
  C   C167      1.0  0.88429  0.12485  0.17018  1.0000
  H   H211      1.0  0.87503  0.13415  0.17555  1.0000
  H   H212      1.0  0.87337  0.10942  0.13155  1.0000
  H   H213      1.0  0.89973  0.13575  0.13157  1.0000
  C   C168      1.0  0.90915  0.10000  0.16955  1.0000
  H   H214      1.0  0.91843  0.09070  0.17428  1.0000
  H   H215      1.0  0.92004  0.11548  0.13112  1.0000
  H   H216      1.0  0.89368  0.08914  0.13102  1.0000
  C   C169      1.0  0.09268  0.56847  0.34301  1.0000
  C   C170      1.0  0.09391  0.55858  0.25983  1.0000
  C   C171      1.0  0.09344  0.53712  0.25976  1.0000
  C   C172      1.0  0.09207  0.52593  0.34289  1.0000
  C   C173      1.0  0.09343  0.52519  0.17428  1.0000
  H   H217      1.0  0.09574  0.53480  0.11287  1.0000
  H   H218      1.0  0.07722  0.50918  0.16752  1.0000
  H   H219      1.0  0.10733  0.52132  0.17638  1.0000
  C   C174      1.0  0.09480  0.57009  0.17236  1.0000
  H   H220      1.0  0.09563  0.58656  0.17872  1.0000
  H   H221      1.0  0.07962  0.55908  0.13248  1.0000
  H   H222      1.0  0.11010  0.57342  0.13517  1.0000
  C   C175      1.0  0.44080  0.52607  0.34309  1.0000
  C   C176      1.0  0.45070  0.53720  0.25994  1.0000
  C   C177      1.0  0.47216  0.55820  0.25985  1.0000
  C   C178      1.0  0.48332  0.56803  0.34301  1.0000
  C   C179      1.0  0.48407  0.57013  0.17437  1.0000
  H   H223      1.0  0.47446  0.56282  0.11296  1.0000
  H   H224      1.0  0.50009  0.56994  0.16758  1.0000
  H   H225      1.0  0.48793  0.58789  0.17648  1.0000
  C   C180      1.0  0.43920  0.52658  0.17247  1.0000
  H   H226      1.0  0.42273  0.51093  0.17883  1.0000
  H   H227      1.0  0.45021  0.52242  0.13259  1.0000
  H   H228      1.0  0.43585  0.53854  0.13527  1.0000
  C   C181      1.0  0.48321  0.91658  0.34325  1.0000
  C   C182      1.0  0.47210  0.91537  0.26004  1.0000
  C   C183      1.0  0.45111  0.91584  0.25992  1.0000
  C   C184      1.0  0.44126  0.91718  0.34303  1.0000
  C   C185      1.0  0.43920  0.91586  0.17440  1.0000
  H   H229      1.0  0.44653  0.91357  0.11300  1.0000
  H   H230      1.0  0.43939  0.93207  0.16766  1.0000
  H   H231      1.0  0.42144  0.90196  0.17642  1.0000
  C   C186      1.0  0.48273  0.91449  0.17258  1.0000
  H   H232      1.0  0.49837  0.91366  0.17894  1.0000
  H   H233      1.0  0.48691  0.92968  0.13272  1.0000
  H   H234      1.0  0.47076  0.89920  0.13534  1.0000
  C   C187      1.0  0.91841  0.43893  0.34327  1.0000
  C   C188      1.0  0.91721  0.44882  0.26004  1.0000
  C   C189      1.0  0.91767  0.47029  0.25992  1.0000
  C   C190      1.0  0.91900  0.48145  0.34307  1.0000
  C   C191      1.0  0.91769  0.48221  0.17441  1.0000
  H   H235      1.0  0.91540  0.47260  0.11300  1.0000
  H   H236      1.0  0.93390  0.49823  0.16767  1.0000
  H   H237      1.0  0.90379  0.48607  0.17644  1.0000
  C   C192      1.0  0.91633  0.43732  0.17259  1.0000
  H   H238      1.0  0.91550  0.42084  0.17896  1.0000
  H   H239      1.0  0.93152  0.44833  0.13275  1.0000
  H   H240      1.0  0.90104  0.43399  0.13534  1.0000
  C   C193      1.0  0.57033  0.48135  0.34305  1.0000
  C   C194      1.0  0.56044  0.47023  0.25986  1.0000
  C   C195      1.0  0.53897  0.44923  0.25978  1.0000
  C   C196      1.0  0.52779  0.43941  0.34291  1.0000
  C   C197      1.0  0.52705  0.43731  0.17431  1.0000
  H   H241      1.0  0.53666  0.44462  0.11290  1.0000
  H   H242      1.0  0.51103  0.43750  0.16754  1.0000
  H   H243      1.0  0.52318  0.41954  0.17641  1.0000
  C   C198      1.0  0.57195  0.48085  0.17240  1.0000
  H   H244      1.0  0.58841  0.49649  0.17875  1.0000
  H   H245      1.0  0.56093  0.48501  0.13251  1.0000
  H   H246      1.0  0.57528  0.46887  0.13521  1.0000
  C   C199      1.0  0.52792  0.09082  0.34307  1.0000
  C   C200      1.0  0.53905  0.09206  0.25991  1.0000
  C   C201      1.0  0.56005  0.09159  0.25982  1.0000
  C   C202      1.0  0.56987  0.09022  0.34294  1.0000
  C   C203      1.0  0.57197  0.09161  0.17433  1.0000
  H   H247      1.0  0.56467  0.09391  0.11293  1.0000
  H   H248      1.0  0.57178  0.07539  0.16754  1.0000
  H   H249      1.0  0.58974  0.10550  0.17646  1.0000
  C   C204      1.0  0.52843  0.09295  0.17245  1.0000
  H   H250      1.0  0.51279  0.09377  0.17882  1.0000
  H   H251      1.0  0.52427  0.07778  0.13255  1.0000
  H   H252      1.0  0.54040  0.10826  0.13528  1.0000
  C   C205      1.0  0.01751  0.44349  0.25871  1.0000
  C   C206      1.0  0.99304  0.43124  0.25908  1.0000
  C   C207      1.0  0.03009  0.44989  0.17043  1.0000
  H   H253      1.0  0.04867  0.45888  0.17566  1.0000
  H   H254      1.0  0.02572  0.46103  0.13262  1.0000
  H   H255      1.0  0.02537  0.43451  0.13111  1.0000
  C   C208      1.0  0.98035  0.42500  0.17098  1.0000
  H   H256      1.0  0.96178  0.41538  0.17648  1.0000
  H   H257      1.0  0.98507  0.41435  0.13155  1.0000
  H   H258      1.0  0.98465  0.44049  0.13314  1.0000
  C   C209      1.0  0.56576  0.57589  0.25863  1.0000
  C   C210      1.0  0.57800  0.56367  0.25896  1.0000
  C   C211      1.0  0.55935  0.58208  0.17035  1.0000
  H   H259      1.0  0.55037  0.59167  0.17561  1.0000
  H   H260      1.0  0.54820  0.56656  0.13255  1.0000
  H   H261      1.0  0.57473  0.59273  0.13102  1.0000
  C   C212      1.0  0.58424  0.55722  0.17085  1.0000
  H   H262      1.0  0.59385  0.54826  0.17633  1.0000
  H   H263      1.0  0.59488  0.57258  0.13141  1.0000
  H   H264      1.0  0.56874  0.54604  0.13302  1.0000
  C   C213      1.0  0.43338  0.99173  0.25870  1.0000
  C   C214      1.0  0.44560  0.01619  0.25904  1.0000
  C   C215      1.0  0.42720  0.97914  0.17042  1.0000
  H   H265      1.0  0.41761  0.96057  0.17566  1.0000
  H   H266      1.0  0.44271  0.98351  0.13263  1.0000
  H   H267      1.0  0.41655  0.98387  0.13109  1.0000
  C   C216      1.0  0.45204  0.02888  0.17094  1.0000
  H   H268      1.0  0.46099  0.04745  0.17642  1.0000
  H   H269      1.0  0.43668  0.02416  0.13149  1.0000
  H   H270      1.0  0.46323  0.02457  0.13311  1.0000
  C   C217      1.0  0.99357  0.56389  0.25867  1.0000
  C   C218      1.0  0.01803  0.57614  0.25898  1.0000
  C   C219      1.0  0.98097  0.55748  0.17039  1.0000
  H   H271      1.0  0.96240  0.54849  0.17566  1.0000
  H   H272      1.0  0.98535  0.54634  0.13259  1.0000
  H   H273      1.0  0.98569  0.57285  0.13107  1.0000
  C   C220      1.0  0.03071  0.58239  0.17086  1.0000
  H   H274      1.0  0.04928  0.59201  0.17632  1.0000
  H   H275      1.0  0.02599  0.59302  0.13143  1.0000
  H   H276      1.0  0.02641  0.56689  0.13302  1.0000
  C   C221      1.0  0.44535  0.43153  0.25870  1.0000
  C   C222      1.0  0.43310  0.44375  0.25904  1.0000
  C   C223      1.0  0.45176  0.42534  0.17041  1.0000
  H   H277      1.0  0.46074  0.41576  0.17566  1.0000
  H   H278      1.0  0.46290  0.44086  0.13261  1.0000
  H   H279      1.0  0.43638  0.41469  0.13110  1.0000
  C   C224      1.0  0.42686  0.45019  0.17093  1.0000
  H   H280      1.0  0.41724  0.45914  0.17642  1.0000
  H   H281      1.0  0.41622  0.43483  0.13151  1.0000
  H   H282      1.0  0.44235  0.46137  0.13309  1.0000
  C   C225      1.0  0.57774  0.01566  0.25869  1.0000
  C   C226      1.0  0.56553  0.99120  0.25904  1.0000
  C   C227      1.0  0.58392  0.02825  0.17040  1.0000
  H   H283      1.0  0.59351  0.04683  0.17565  1.0000
  H   H284      1.0  0.56841  0.02388  0.13261  1.0000
  H   H285      1.0  0.59457  0.02353  0.13107  1.0000
  C   C228      1.0  0.55908  0.97851  0.17094  1.0000
  H   H286      1.0  0.55013  0.95994  0.17644  1.0000
  H   H287      1.0  0.57443  0.98323  0.13148  1.0000
  H   H288      1.0  0.54788  0.98281  0.13312  1.0000
  C   C229      1.0  0.12649  0.10018  0.34023  1.0000
  C   C230      1.0  0.12037  0.10630  0.25704  1.0000
  C   C231      1.0  0.10808  0.11856  0.25729  1.0000
  C   C232      1.0  0.10199  0.12463  0.34060  1.0000
  C   C233      1.0  0.10116  0.12546  0.17187  1.0000
  H   H289      1.0  0.10607  0.12057  0.10989  1.0000
  H   H290      1.0  0.10887  0.14406  0.16983  1.0000
  H   H291      1.0  0.08257  0.11773  0.16982  1.0000
  C   C234      1.0  0.12668  0.10001  0.16899  1.0000
  H   H292      1.0  0.13599  0.09074  0.17388  1.0000
  H   H293      1.0  0.13758  0.11552  0.13067  1.0000
  H   H294      1.0  0.11117  0.08909  0.13066  1.0000
  C   C235      1.0  0.90904  0.02815  0.34033  1.0000
  C   C236      1.0  0.90293  0.01592  0.25714  1.0000
  C   C237      1.0  0.89067  0.99136  0.25738  1.0000
  C   C238      1.0  0.88460  0.97920  0.34069  1.0000
  C   C239      1.0  0.88377  0.97754  0.17196  1.0000
  H   H295      1.0  0.88866  0.98734  0.10998  1.0000
  H   H296      1.0  0.86518  0.96666  0.16992  1.0000
  H   H297      1.0  0.89150  0.96668  0.16991  1.0000
  C   C240      1.0  0.90921  0.02851  0.16909  1.0000
  H   H298      1.0  0.91848  0.04709  0.17399  1.0000
  H   H299      1.0  0.89370  0.02390  0.13077  1.0000
  H   H300      1.0  0.92014  0.02394  0.13076  1.0000
  C   C241      1.0  0.98107  0.88273  0.34030  1.0000
  C   C242      1.0  0.99331  0.88885  0.25711  1.0000
  C   C243      1.0  0.01786  0.90114  0.25736  1.0000
  C   C244      1.0  0.03003  0.90723  0.34066  1.0000
  C   C245      1.0  0.03168  0.90806  0.17193  1.0000
  H   H301      1.0  0.02188  0.90315  0.10996  1.0000
  H   H302      1.0  0.04257  0.90035  0.16989  1.0000
  H   H303      1.0  0.04254  0.92665  0.16988  1.0000
  C   C246      1.0  0.98072  0.88254  0.16906  1.0000
  H   H304      1.0  0.96213  0.87322  0.17396  1.0000
  H   H305      1.0  0.98533  0.87164  0.13074  1.0000
  H   H306      1.0  0.98529  0.89804  0.13073  1.0000
  C   C247      1.0  0.88459  0.90720  0.34031  1.0000
  C   C248      1.0  0.89071  0.90108  0.25712  1.0000
  C   C249      1.0  0.90300  0.88881  0.25737  1.0000
  C   C250      1.0  0.90908  0.88273  0.34068  1.0000
  C   C251      1.0  0.90991  0.88190  0.17195  1.0000
  H   H307      1.0  0.90500  0.88680  0.10997  1.0000
  H   H308      1.0  0.90220  0.86331  0.16992  1.0000
  H   H309      1.0  0.92850  0.88963  0.16989  1.0000
  C   C252      1.0  0.88440  0.90737  0.16908  1.0000
  H   H310      1.0  0.87510  0.91664  0.17397  1.0000
  H   H311      1.0  0.87350  0.89186  0.13076  1.0000
  H   H312      1.0  0.89990  0.91829  0.13075  1.0000
  C   C253      1.0  0.10203  0.97923  0.34027  1.0000
  C   C254      1.0  0.10815  0.99146  0.25707  1.0000
  C   C255      1.0  0.12041  0.01602  0.25731  1.0000
  C   C256      1.0  0.12648  0.02818  0.34061  1.0000
  C   C257      1.0  0.12731  0.02983  0.17188  1.0000
  H   H313      1.0  0.12242  0.02003  0.10991  1.0000
  H   H314      1.0  0.14590  0.04072  0.16984  1.0000
  H   H315      1.0  0.11958  0.04070  0.16982  1.0000
  C   C258      1.0  0.10186  0.97887  0.16903  1.0000
  H   H316      1.0  0.09259  0.96028  0.17393  1.0000
  H   H317      1.0  0.11737  0.98347  0.13071  1.0000
  H   H318      1.0  0.09093  0.98344  0.13070  1.0000
  C   C259      1.0  0.02999  0.12464  0.34027  1.0000
  C   C260      1.0  0.01775  0.11852  0.25708  1.0000
  C   C261      1.0  0.99320  0.10623  0.25735  1.0000
  C   C262      1.0  0.98104  0.10015  0.34067  1.0000
  C   C263      1.0  0.97938  0.09932  0.17194  1.0000
  H   H319      1.0  0.98917  0.10423  0.10996  1.0000
  H   H320      1.0  0.96849  0.10703  0.16992  1.0000
  H   H321      1.0  0.96851  0.08073  0.16989  1.0000
  C   C264      1.0  0.03034  0.12483  0.16902  1.0000
  H   H322      1.0  0.04893  0.13414  0.17391  1.0000
  H   H323      1.0  0.02573  0.13573  0.13071  1.0000
  H   H324      1.0  0.02576  0.10933  0.13070  1.0000
  C   C265      1.0  0.17376  0.42023  0.33680  1.0000
  N   N1        1.0  0.16233  0.43206  0.33933  1.0000
  C   C266      1.0  0.13900  0.42076  0.34003  1.0000
  N   N2        1.0  0.12716  0.39736  0.33923  1.0000
  C   C267      1.0  0.13850  0.38536  0.33712  1.0000
  N   N3        1.0  0.16166  0.39708  0.33569  1.0000
  C   C268      1.0  0.58898  0.75540  0.33667  1.0000
  N   N4        1.0  0.57717  0.73214  0.33922  1.0000
  C   C269      1.0  0.58849  0.72012  0.33993  1.0000
  N   N5        1.0  0.61189  0.73170  0.33911  1.0000
  C   C270      1.0  0.62387  0.75504  0.33699  1.0000
  N   N6        1.0  0.61213  0.76647  0.33555  1.0000
  C   C271      1.0  0.25387  0.83544  0.33678  1.0000
  N   N7        1.0  0.27713  0.84689  0.33924  1.0000
  C   C272      1.0  0.28915  0.87022  0.34000  1.0000
  N   N8        1.0  0.27757  0.88205  0.33927  1.0000
  C   C273      1.0  0.25423  0.87070  0.33710  1.0000
  N   N9        1.0  0.24281  0.84753  0.33571  1.0000
  C   C274      1.0  0.83734  0.58719  0.33677  1.0000
  N   N10       1.0  0.84877  0.57536  0.33929  1.0000
  C   C275      1.0  0.87210  0.58665  0.34004  1.0000
  N   N11       1.0  0.88395  0.61006  0.33932  1.0000
  C   C276      1.0  0.87261  0.62206  0.33721  1.0000
  N   N12       1.0  0.84945  0.61034  0.33574  1.0000
  C   C277      1.0  0.42208  0.25202  0.33681  1.0000
  N   N13       1.0  0.43391  0.27527  0.33934  1.0000
  C   C278      1.0  0.42261  0.28731  0.34003  1.0000
  N   N14       1.0  0.39921  0.27575  0.33923  1.0000
  C   C279      1.0  0.38721  0.25241  0.33712  1.0000
  N   N15       1.0  0.39893  0.24097  0.33569  1.0000
  C   C280      1.0  0.75725  0.17195  0.33664  1.0000
  N   N16       1.0  0.73399  0.16050  0.33925  1.0000
  C   C281      1.0  0.72197  0.13717  0.33999  1.0000
  N   N17       1.0  0.73355  0.12534  0.33916  1.0000
  C   C282      1.0  0.75689  0.13670  0.33696  1.0000
  N   N18       1.0  0.76831  0.15986  0.33549  1.0000
  C   C283      1.0  0.42298  0.17277  0.34124  1.0000
  N   N19       1.0  0.43447  0.16102  0.34506  1.0000
  C   C284      1.0  0.42288  0.13769  0.34779  1.0000
  N   N20       1.0  0.39948  0.12615  0.34600  1.0000
  C   C285      1.0  0.38779  0.13777  0.34131  1.0000
  N   N21       1.0  0.39982  0.16093  0.33813  1.0000
  C   C286      1.0  0.75722  0.58633  0.34123  1.0000
  N   N22       1.0  0.73397  0.57482  0.34489  1.0000
  C   C287      1.0  0.72223  0.58641  0.34759  1.0000
  N   N23       1.0  0.73407  0.60981  0.34587  1.0000
  C   C288      1.0  0.75739  0.62151  0.34126  1.0000
  N   N24       1.0  0.76853  0.60948  0.33814  1.0000
  C   C289      1.0  0.83648  0.25203  0.34116  1.0000
  N   N25       1.0  0.84823  0.27528  0.34512  1.0000
  C   C290      1.0  0.87155  0.28702  0.34791  1.0000
  N   N26       1.0  0.88311  0.27518  0.34606  1.0000
  C   C291      1.0  0.87150  0.25186  0.34113  1.0000
  N   N27       1.0  0.84834  0.24073  0.33791  1.0000
  C   C292      1.0  0.58811  0.83459  0.34123  1.0000
  N   N28       1.0  0.57662  0.84636  0.34507  1.0000
  C   C293      1.0  0.58822  0.86968  0.34787  1.0000
  N   N29       1.0  0.61162  0.88122  0.34610  1.0000
  C   C294      1.0  0.62331  0.86959  0.34127  1.0000
  N   N30       1.0  0.61127  0.84643  0.33806  1.0000
  C   C295      1.0  0.25390  0.42113  0.34123  1.0000
  N   N31       1.0  0.27715  0.43262  0.34506  1.0000
  C   C296      1.0  0.28889  0.42103  0.34779  1.0000
  N   N32       1.0  0.27703  0.39763  0.34600  1.0000
  C   C297      1.0  0.25371  0.38594  0.34130  1.0000
  N   N33       1.0  0.24259  0.39797  0.33812  1.0000
  C   C298      1.0  0.17460  0.75537  0.34129  1.0000
  N   N34       1.0  0.16285  0.73212  0.34485  1.0000
  C   C299      1.0  0.13953  0.72037  0.34751  1.0000
  N   N35       1.0  0.12797  0.73222  0.34582  1.0000
  C   C300      1.0  0.13959  0.75554  0.34129  1.0000
  N   N36       1.0  0.16275  0.76668  0.33824  1.0000
  C   C301      1.0  0.13847  0.30523  0.34031  1.0000
  N   N37       1.0  0.12700  0.28189  0.34113  1.0000
  C   C302      1.0  0.13860  0.27011  0.34217  1.0000
  N   N38       1.0  0.16199  0.28208  0.34215  1.0000
  C   C303      1.0  0.17369  0.30542  0.34207  1.0000
  N   N39       1.0  0.16165  0.31656  0.34052  1.0000
  C   C304      1.0  0.70403  0.83504  0.34021  1.0000
  N   N40       1.0  0.72736  0.84693  0.34117  1.0000
  C   C305      1.0  0.73913  0.87031  0.34235  1.0000
  N   N41       1.0  0.72714  0.88171  0.34231  1.0000
  C   C306      1.0  0.70380  0.87005  0.34198  1.0000
  N   N42       1.0  0.69268  0.84687  0.34035  1.0000
  C   C307      1.0  0.17418  0.87082  0.34043  1.0000
  N   N43       1.0  0.16229  0.88226  0.34137  1.0000
  C   C308      1.0  0.13891  0.87064  0.34238  1.0000
  N   N44       1.0  0.12751  0.84725  0.34223  1.0000
  C   C309      1.0  0.13917  0.83557  0.34202  1.0000
  N   N45       1.0  0.16235  0.84763  0.34051  1.0000
  C   C310      1.0  0.87262  0.70214  0.34035  1.0000
  N   N46       1.0  0.88408  0.72548  0.34133  1.0000
  C   C311      1.0  0.87248  0.73726  0.34234  1.0000
  N   N47       1.0  0.84909  0.72529  0.34215  1.0000
  C   C312      1.0  0.83739  0.70194  0.34182  1.0000
  N   N48       1.0  0.84944  0.69081  0.34038  1.0000
  C   C313      1.0  0.30707  0.17231  0.34031  1.0000
  N   N49       1.0  0.28374  0.16044  0.34113  1.0000
  C   C314      1.0  0.27196  0.13705  0.34217  1.0000
  N   N50       1.0  0.28393  0.12563  0.34215  1.0000
  C   C315      1.0  0.30727  0.13728  0.34207  1.0000
  N   N51       1.0  0.31840  0.16046  0.34052  1.0000
  C   C316      1.0  0.83689  0.13658  0.34018  1.0000
  N   N52       1.0  0.84878  0.12513  0.34120  1.0000
  C   C317      1.0  0.87216  0.13674  0.34238  1.0000
  N   N53       1.0  0.88357  0.16013  0.34230  1.0000
  C   C318      1.0  0.87192  0.17182  0.34193  1.0000
  N   N54       1.0  0.84874  0.15977  0.34027  1.0000
  C   C319      1.0  0.08504  0.50214  0.34209  1.0000
  N   N55       1.0  0.09959  0.49355  0.34161  1.0000
  C   C320      1.0  0.09119  0.47042  0.34153  1.0000
  N   N56       1.0  0.06815  0.45604  0.34184  1.0000
  C   C321      1.0  0.05357  0.46439  0.34240  1.0000
  N   N57       1.0  0.06215  0.48733  0.34250  1.0000
  C   C322      1.0  0.50712  0.58479  0.34212  1.0000
  N   N58       1.0  0.51571  0.60793  0.34164  1.0000
  C   C323      1.0  0.53885  0.62265  0.34152  1.0000
  N   N59       1.0  0.55322  0.61399  0.34180  1.0000
  C   C324      1.0  0.54487  0.59106  0.34236  1.0000
  N   N60       1.0  0.52193  0.57670  0.34251  1.0000
  C   C325      1.0  0.42449  0.92420  0.34213  1.0000
  N   N61       1.0  0.40135  0.90965  0.34165  1.0000
  C   C326      1.0  0.38662  0.91805  0.34154  1.0000
  N   N62       1.0  0.39528  0.94109  0.34183  1.0000
  C   C327      1.0  0.41821  0.95567  0.34240  1.0000
  N   N63       1.0  0.43257  0.94709  0.34254  1.0000
  C   C328      1.0  0.92604  0.50525  0.34215  1.0000
  N   N64       1.0  0.91149  0.51385  0.34168  1.0000
  C   C329      1.0  0.91990  0.53698  0.34156  1.0000
  N   N65       1.0  0.94293  0.55135  0.34184  1.0000
  C   C330      1.0  0.95752  0.54300  0.34240  1.0000
  N   N66       1.0  0.94893  0.52006  0.34255  1.0000
  C   C331      1.0  0.50400  0.42264  0.34211  1.0000
  N   N67       1.0  0.49541  0.39950  0.34163  1.0000
  C   C332      1.0  0.47227  0.38478  0.34154  1.0000
  N   N68       1.0  0.45790  0.39344  0.34185  1.0000
  C   C333      1.0  0.46625  0.41637  0.34241  1.0000
  N   N69       1.0  0.48919  0.43073  0.34252  1.0000
  C   C334      1.0  0.58663  0.08320  0.34212  1.0000
  N   N70       1.0  0.60977  0.09775  0.34164  1.0000
  C   C335      1.0  0.62450  0.08934  0.34155  1.0000
  N   N71       1.0  0.61584  0.06631  0.34184  1.0000
  C   C336      1.0  0.59291  0.05172  0.34239  1.0000
  N   N72       1.0  0.57855  0.06030  0.34252  1.0000
  C   C337      1.0  0.50411  0.08362  0.34285  1.0000
  N   N73       1.0  0.49545  0.09811  0.34405  1.0000
  C   C338      1.0  0.47231  0.08965  0.34461  1.0000
  N   N74       1.0  0.45799  0.06661  0.34408  1.0000
  C   C339      1.0  0.46640  0.05208  0.34304  1.0000
  N   N75       1.0  0.48935  0.06071  0.34250  1.0000
  C   C340      1.0  0.58693  0.50516  0.34278  1.0000
  N   N76       1.0  0.61009  0.51383  0.34396  1.0000
  C   C341      1.0  0.62476  0.53697  0.34450  1.0000
  N   N77       1.0  0.61603  0.55128  0.34397  1.0000
  C   C342      1.0  0.59309  0.54287  0.34295  1.0000
  N   N78       1.0  0.57877  0.51991  0.34243  1.0000
  C   C343      1.0  0.92561  0.42231  0.34299  1.0000
  N   N79       1.0  0.91112  0.39916  0.34421  1.0000
  C   C344      1.0  0.91959  0.38449  0.34475  1.0000
  N   N80       1.0  0.94263  0.39321  0.34416  1.0000
  C   C345      1.0  0.95716  0.41615  0.34311  1.0000
  N   N81       1.0  0.94853  0.43048  0.34260  1.0000
  C   C346      1.0  0.50702  0.92378  0.34294  1.0000
  N   N82       1.0  0.51568  0.90928  0.34415  1.0000
  C   C347      1.0  0.53882  0.91774  0.34469  1.0000
  N   N83       1.0  0.55314  0.94078  0.34411  1.0000
  C   C348      1.0  0.54473  0.95532  0.34306  1.0000
  N   N84       1.0  0.52178  0.94669  0.34255  1.0000
  C   C349      1.0  0.42418  0.50226  0.34287  1.0000
  N   N85       1.0  0.40103  0.49360  0.34407  1.0000
  C   C350      1.0  0.38635  0.47046  0.34462  1.0000
  N   N86       1.0  0.39507  0.45614  0.34409  1.0000
  C   C351      1.0  0.41802  0.46455  0.34304  1.0000
  N   N87       1.0  0.43234  0.48750  0.34251  1.0000
  C   C352      1.0  0.08547  0.58508  0.34274  1.0000
  N   N88       1.0  0.09996  0.60824  0.34390  1.0000
  C   C353      1.0  0.09149  0.62291  0.34444  1.0000
  N   N89       1.0  0.06845  0.61418  0.34393  1.0000
  C   C354      1.0  0.05393  0.59124  0.34293  1.0000
  N   N90       1.0  0.06256  0.57692  0.34241  1.0000
  C   C355      1.0  0.08971  0.13690  0.34017  1.0000
  N   N91       1.0  0.10114  0.16023  0.34052  1.0000
  C   C356      1.0  0.08970  0.17212  0.34056  1.0000
  N   N92       1.0  0.06637  0.16022  0.34045  1.0000
  C   C357      1.0  0.05448  0.13689  0.34027  1.0000
  N   N93       1.0  0.06638  0.12547  0.34023  1.0000
  C   C358      1.0  0.87234  0.95466  0.34025  1.0000
  N   N94       1.0  0.84901  0.94276  0.34064  1.0000
  C   C359      1.0  0.83712  0.91943  0.34069  1.0000
  N   N95       1.0  0.84901  0.90799  0.34056  1.0000
  C   C360      1.0  0.87234  0.91943  0.34035  1.0000
  N   N96       1.0  0.88377  0.94276  0.34029  1.0000
  C   C361      1.0  0.05457  0.91951  0.34022  1.0000
  N   N97       1.0  0.06647  0.90809  0.34062  1.0000
  C   C362      1.0  0.08980  0.91952  0.34067  1.0000
  N   N98       1.0  0.10123  0.94285  0.34052  1.0000
  C   C363      1.0  0.08979  0.95474  0.34031  1.0000
  N   N99       1.0  0.06646  0.94284  0.34025  1.0000
  C   C364      1.0  0.92136  0.87047  0.34025  1.0000
  N   N100      1.0  0.90993  0.84714  0.34064  1.0000
  C   C365      1.0  0.92137  0.83525  0.34069  1.0000
  N   N101      1.0  0.94470  0.84715  0.34055  1.0000
  C   C366      1.0  0.95659  0.87047  0.34033  1.0000
  N   N102      1.0  0.94469  0.88190  0.34028  1.0000
  C   C367      1.0  0.13875  0.05272  0.34017  1.0000
  N   N103      1.0  0.16207  0.06463  0.34053  1.0000
  C   C368      1.0  0.17397  0.08796  0.34056  1.0000
  N   N104      1.0  0.16207  0.09939  0.34043  1.0000
  C   C369      1.0  0.13874  0.08795  0.34025  1.0000
  N   N105      1.0  0.12731  0.06462  0.34021  1.0000
  C   C370      1.0  0.95650  0.08787  0.34025  1.0000
  N   N106      1.0  0.94459  0.09929  0.34066  1.0000
  C   C371      1.0  0.92127  0.08786  0.34072  1.0000
  N   N107      1.0  0.90984  0.06453  0.34058  1.0000
  C   C372      1.0  0.92128  0.05264  0.34036  1.0000
  N   N108      1.0  0.94461  0.06454  0.34029  1.0000
  C   C373      1.0  0.12781  0.35070  0.42226  1.0000
  C   C374      1.0  0.12784  0.32952  0.42306  1.0000
  C   C375      1.0  0.12835  0.36216  0.50964  1.0000
  H   H325      1.0  0.12726  0.37765  0.50238  1.0000
  H   H326      1.0  0.14419  0.36681  0.54560  1.0000
  H   H327      1.0  0.11381  0.35063  0.55132  1.0000
  C   C376      1.0  0.12847  0.31900  0.51134  1.0000
  H   H328      1.0  0.12740  0.30240  0.50539  1.0000
  H   H329      1.0  0.11396  0.31615  0.55289  1.0000
  H   H330      1.0  0.14433  0.33036  0.54680  1.0000
  C   C377      1.0  0.65855  0.77898  0.42209  1.0000
  C   C378      1.0  0.67977  0.80015  0.42294  1.0000
  C   C379      1.0  0.64709  0.76809  0.50948  1.0000
  H   H331      1.0  0.63156  0.75154  0.50224  1.0000
  H   H332      1.0  0.64251  0.77931  0.54553  1.0000
  H   H333      1.0  0.65859  0.76501  0.55107  1.0000
  C   C380      1.0  0.69034  0.81127  0.51120  1.0000
  H   H334      1.0  0.70697  0.82675  0.50520  1.0000
  H   H335      1.0  0.69315  0.79957  0.55268  1.0000
  H   H336      1.0  0.67905  0.81584  0.54676  1.0000
  C   C381      1.0  0.23035  0.88158  0.42224  1.0000
  C   C382      1.0  0.20918  0.88162  0.42313  1.0000
  C   C383      1.0  0.24132  0.88113  0.50959  1.0000
  H   H337      1.0  0.25786  0.88214  0.50226  1.0000
  H   H338      1.0  0.23013  0.86537  0.54596  1.0000
  H   H339      1.0  0.24442  0.89575  0.55091  1.0000
  C   C384      1.0  0.19810  0.88115  0.51138  1.0000
  H   H340      1.0  0.18259  0.88225  0.50534  1.0000
  H   H341      1.0  0.20981  0.89570  0.55260  1.0000
  H   H342      1.0  0.19358  0.86533  0.54723  1.0000
  C   C385      1.0  0.88347  0.65678  0.42230  1.0000
  C   C386      1.0  0.88344  0.67796  0.42311  1.0000
  C   C387      1.0  0.88308  0.64540  0.50964  1.0000
  H   H343      1.0  0.88416  0.62991  0.50230  1.0000
  H   H344      1.0  0.86730  0.64076  0.54602  1.0000
  H   H345      1.0  0.89768  0.65696  0.55097  1.0000
  C   C388      1.0  0.88293  0.68855  0.51136  1.0000
  H   H346      1.0  0.88396  0.70513  0.50531  1.0000
  H   H347      1.0  0.89750  0.69146  0.55257  1.0000
  H   H348      1.0  0.86712  0.67721  0.54721  1.0000
  C   C389      1.0  0.35255  0.22844  0.42226  1.0000
  C   C390      1.0  0.33137  0.20723  0.42306  1.0000
  C   C391      1.0  0.36401  0.23935  0.50964  1.0000
  H   H349      1.0  0.37950  0.25594  0.50238  1.0000
  H   H350      1.0  0.36866  0.22817  0.54560  1.0000
  H   H351      1.0  0.35248  0.24237  0.55132  1.0000
  C   C392      1.0  0.32085  0.19609  0.51134  1.0000
  H   H352      1.0  0.30425  0.18055  0.50539  1.0000
  H   H353      1.0  0.31800  0.20774  0.55289  1.0000
  H   H354      1.0  0.33221  0.19157  0.54680  1.0000
  C   C393      1.0  0.78082  0.12595  0.42209  1.0000
  C   C394      1.0  0.80200  0.12592  0.42290  1.0000
  C   C395      1.0  0.76990  0.12649  0.50947  1.0000
  H   H355      1.0  0.75335  0.12546  0.50222  1.0000
  H   H356      1.0  0.78111  0.14230  0.54556  1.0000
  H   H357      1.0  0.76684  0.11191  0.55103  1.0000
  C   C396      1.0  0.81311  0.12646  0.51115  1.0000
  H   H358      1.0  0.82861  0.12534  0.50514  1.0000
  H   H359      1.0  0.80142  0.11194  0.55257  1.0000
  H   H360      1.0  0.81766  0.14232  0.54678  1.0000
  C   C397      1.0  0.32101  0.12690  0.33849  1.0000
  C   C398      1.0  0.33027  0.12418  0.42082  1.0000
  C   C399      1.0  0.35176  0.12470  0.42076  1.0000
  C   C400      1.0  0.36369  0.12763  0.33814  1.0000
  C   C401      1.0  0.36310  0.12347  0.50600  1.0000
  H   H361      1.0  0.35277  0.11958  0.56639  1.0000
  H   H362      1.0  0.37871  0.13979  0.51783  1.0000
  H   H363      1.0  0.36762  0.11008  0.49960  1.0000
  C   C402      1.0  0.31802  0.12180  0.50782  1.0000
  H   H364      1.0  0.30154  0.12091  0.50068  1.0000
  H   H365      1.0  0.32860  0.13634  0.55143  1.0000
  H   H366      1.0  0.31449  0.10596  0.54119  1.0000
  C   C403      1.0  0.81327  0.68822  0.33846  1.0000
  C   C404      1.0  0.80134  0.67895  0.42086  1.0000
  C   C405      1.0  0.78035  0.65747  0.42084  1.0000
  C   C406      1.0  0.77132  0.64562  0.33812  1.0000
  C   C407      1.0  0.76780  0.64612  0.50608  1.0000
  H   H367      1.0  0.77427  0.65643  0.56650  1.0000
  H   H368      1.0  0.76849  0.63050  0.51778  1.0000
  H   H369      1.0  0.74990  0.64162  0.49979  1.0000
  C   C408      1.0  0.81126  0.69116  0.50787  1.0000
  H   H370      1.0  0.82688  0.70763  0.50073  1.0000
  H   H371      1.0  0.81522  0.68055  0.55132  1.0000
  H   H372      1.0  0.79900  0.69472  0.54143  1.0000
  C   C409      1.0  0.88230  0.19594  0.33843  1.0000
  C   C410      1.0  0.88524  0.20804  0.42056  1.0000
  C   C411      1.0  0.88478  0.22904  0.42046  1.0000
  C   C412      1.0  0.88166  0.23793  0.33793  1.0000
  C   C413      1.0  0.88619  0.24172  0.50557  1.0000
  H   H373      1.0  0.89021  0.23535  0.56586  1.0000
  H   H374      1.0  0.86989  0.24101  0.51791  1.0000
  H   H375      1.0  0.89955  0.25961  0.49869  1.0000
  C   C414      1.0  0.88769  0.19822  0.50752  1.0000
  H   H376      1.0  0.88847  0.18256  0.50042  1.0000
  H   H377      1.0  0.87324  0.19437  0.55148  1.0000
  H   H378      1.0  0.90361  0.21049  0.54049  1.0000
  C   C415      1.0  0.69005  0.88042  0.33857  1.0000
  C   C416      1.0  0.68086  0.88330  0.42075  1.0000
  C   C417      1.0  0.65939  0.88283  0.42067  1.0000
  C   C418      1.0  0.64741  0.87975  0.33813  1.0000
  C   C419      1.0  0.64811  0.88419  0.50581  1.0000
  H   H379      1.0  0.65848  0.88818  0.56612  1.0000
  H   H380      1.0  0.63251  0.86788  0.51802  1.0000
  H   H381      1.0  0.64357  0.89755  0.49905  1.0000
  C   C420      1.0  0.69313  0.88573  0.50770  1.0000
  H   H382      1.0  0.70958  0.88653  0.50057  1.0000
  H   H383      1.0  0.68254  0.87126  0.55157  1.0000
  H   H384      1.0  0.69675  0.90163  0.54079  1.0000
  C   C421      1.0  0.19780  0.31916  0.33849  1.0000
  C   C422      1.0  0.20979  0.32842  0.42082  1.0000
  C   C423      1.0  0.23076  0.34991  0.42076  1.0000
  C   C424      1.0  0.23976  0.36184  0.33814  1.0000
  C   C425      1.0  0.24333  0.36125  0.50599  1.0000
  H   H385      1.0  0.23689  0.35092  0.56639  1.0000
  H   H386      1.0  0.24262  0.37686  0.51783  1.0000
  H   H387      1.0  0.26123  0.36577  0.49960  1.0000
  C   C426      1.0  0.19992  0.31618  0.50782  1.0000
  H   H388      1.0  0.18432  0.29969  0.50068  1.0000
  H   H389      1.0  0.19596  0.32675  0.55143  1.0000
  H   H390      1.0  0.21222  0.31264  0.54119  1.0000
  C   C427      1.0  0.12881  0.81146  0.33854  1.0000
  C   C428      1.0  0.12612  0.79950  0.42092  1.0000
  C   C429      1.0  0.12659  0.77850  0.42090  1.0000
  C   C430      1.0  0.12941  0.76946  0.33818  1.0000
  C   C431      1.0  0.12538  0.76594  0.50612  1.0000
  H   H391      1.0  0.12154  0.77241  0.56656  1.0000
  H   H392      1.0  0.14169  0.76663  0.51783  1.0000
  H   H393      1.0  0.11197  0.74805  0.49982  1.0000
  C   C432      1.0  0.12382  0.80941  0.50794  1.0000
  H   H394      1.0  0.12297  0.82503  0.50085  1.0000
  H   H395      1.0  0.13838  0.81335  0.55142  1.0000
  H   H396      1.0  0.10799  0.79714  0.54146  1.0000
  C   C433      1.0  0.24058  0.43186  0.33657  1.0000
  C   C434      1.0  0.23127  0.43475  0.41837  1.0000
  C   C435      1.0  0.20963  0.43385  0.41747  1.0000
  C   C436      1.0  0.19780  0.43049  0.33440  1.0000
  C   C437      1.0  0.19804  0.43498  0.50214  1.0000
  H   H397      1.0  0.20832  0.43915  0.56277  1.0000
  H   H398      1.0  0.18260  0.41852  0.51410  1.0000
  H   H399      1.0  0.19319  0.44810  0.49490  1.0000
  C   C438      1.0  0.24349  0.43744  0.50567  1.0000
  H   H400      1.0  0.26011  0.43861  0.49898  1.0000
  H   H401      1.0  0.23304  0.42291  0.54952  1.0000
  H   H402      1.0  0.24675  0.45325  0.53855  1.0000
  C   C439      1.0  0.57735  0.81052  0.33646  1.0000
  C   C440      1.0  0.57453  0.79839  0.41837  1.0000
  C   C441      1.0  0.57543  0.77765  0.41748  1.0000
  C   C442      1.0  0.57868  0.76914  0.33430  1.0000
  C   C443      1.0  0.57433  0.76494  0.50215  1.0000
  H   H403      1.0  0.57023  0.77110  0.56285  1.0000
  H   H404      1.0  0.59079  0.76593  0.51391  1.0000
  H   H405      1.0  0.56118  0.74698  0.49505  1.0000
  C   C444      1.0  0.57185  0.80792  0.50569  1.0000
  H   H406      1.0  0.57065  0.82335  0.49898  1.0000
  H   H407      1.0  0.58640  0.81203  0.54944  1.0000
  H   H408      1.0  0.55607  0.79537  0.53866  1.0000
  C   C445      1.0  0.19866  0.76870  0.33653  1.0000
  C   C446      1.0  0.21073  0.77808  0.41855  1.0000
  C   C447      1.0  0.23149  0.79971  0.41769  1.0000
  C   C448      1.0  0.24011  0.81140  0.33444  1.0000
  C   C449      1.0  0.24413  0.81136  0.50244  1.0000
  H   H409      1.0  0.23791  0.80114  0.56321  1.0000
  H   H410      1.0  0.24316  0.82684  0.51386  1.0000
  H   H411      1.0  0.26209  0.81613  0.49567  1.0000
  C   C450      1.0  0.20114  0.76593  0.50594  1.0000
  H   H412      1.0  0.18571  0.74929  0.49927  1.0000
  H   H413      1.0  0.19700  0.77640  0.54939  1.0000
  H   H414      1.0  0.21367  0.76271  0.53923  1.0000
  C   C451      1.0  0.77055  0.57560  0.33639  1.0000
  C   C452      1.0  0.77988  0.57283  0.41839  1.0000
  C   C453      1.0  0.80152  0.57373  0.41761  1.0000
  C   C454      1.0  0.81331  0.57693  0.33451  1.0000
  C   C455      1.0  0.81315  0.57272  0.50236  1.0000
  H   H415      1.0  0.80292  0.56868  0.56308  1.0000
  H   H416      1.0  0.82862  0.58918  0.51393  1.0000
  H   H417      1.0  0.81797  0.55956  0.49551  1.0000
  C   C456      1.0  0.76767  0.57017  0.50570  1.0000
  H   H418      1.0  0.75102  0.56893  0.49896  1.0000
  H   H419      1.0  0.77809  0.58476  0.54934  1.0000
  H   H420      1.0  0.76448  0.55441  0.53882  1.0000
  C   C457      1.0  0.43371  0.19684  0.33657  1.0000
  C   C458      1.0  0.43660  0.20903  0.41837  1.0000
  C   C459      1.0  0.43570  0.22976  0.41748  1.0000
  C   C460      1.0  0.43234  0.23824  0.33441  1.0000
  C   C461      1.0  0.43683  0.24249  0.50215  1.0000
  H   H421      1.0  0.44100  0.23637  0.56278  1.0000
  H   H422      1.0  0.42037  0.24146  0.51410  1.0000
  H   H423      1.0  0.44995  0.26046  0.49491  1.0000
  C   C462      1.0  0.43929  0.19950  0.50568  1.0000
  H   H424      1.0  0.44046  0.18405  0.49898  1.0000
  H   H425      1.0  0.42476  0.19542  0.54952  1.0000
  H   H426      1.0  0.45510  0.21205  0.53855  1.0000
  C   C463      1.0  0.81242  0.23869  0.33646  1.0000
  C   C464      1.0  0.80022  0.22939  0.41827  1.0000
  C   C465      1.0  0.77946  0.20777  0.41737  1.0000
  C   C466      1.0  0.77098  0.19600  0.33422  1.0000
  C   C467      1.0  0.76672  0.19619  0.50201  1.0000
  H   H427      1.0  0.77285  0.20646  0.56267  1.0000
  H   H428      1.0  0.76770  0.18073  0.51395  1.0000
  H   H429      1.0  0.74876  0.19138  0.49475  1.0000
  C   C468      1.0  0.80975  0.24160  0.50559  1.0000
  H   H430      1.0  0.82522  0.25820  0.49894  1.0000
  H   H431      1.0  0.81381  0.23113  0.54943  1.0000
  H   H432      1.0  0.79722  0.24488  0.53845  1.0000
  C   C469      1.0  0.12239  0.44063  0.42424  1.0000
  C   C470      1.0  0.11118  0.45393  0.42436  1.0000
  C   C471      1.0  0.12837  0.43396  0.51233  1.0000
  H   H433      1.0  0.13656  0.42361  0.50693  1.0000
  H   H434      1.0  0.11291  0.42398  0.55212  1.0000
  H   H435      1.0  0.14018  0.44928  0.54974  1.0000
  C   C472      1.0  0.10555  0.46081  0.51274  1.0000
  H   H436      1.0  0.09765  0.47143  0.50764  1.0000
  H   H437      1.0  0.12112  0.47068  0.55201  1.0000
  H   H438      1.0  0.09369  0.44558  0.55052  1.0000
  C   C473      1.0  0.56863  0.68364  0.42418  1.0000
  C   C474      1.0  0.55534  0.65914  0.42432  1.0000
  C   C475      1.0  0.57531  0.69631  0.51225  1.0000
  H   H439      1.0  0.58565  0.71484  0.50684  1.0000
  H   H440      1.0  0.58529  0.69082  0.55205  1.0000
  H   H441      1.0  0.55998  0.69279  0.54966  1.0000
  C   C476      1.0  0.54846  0.64663  0.51271  1.0000
  H   H442      1.0  0.53785  0.62811  0.50763  1.0000
  H   H443      1.0  0.53859  0.65234  0.55198  1.0000
  H   H444      1.0  0.56369  0.65001  0.55049  1.0000
  C   C477      1.0  0.32564  0.88685  0.42422  1.0000
  C   C478      1.0  0.35013  0.89806  0.42434  1.0000
  C   C479      1.0  0.31297  0.88087  0.51230  1.0000
  H   H445      1.0  0.29444  0.87268  0.50690  1.0000
  H   H446      1.0  0.31846  0.89634  0.55208  1.0000
  H   H447      1.0  0.31649  0.86907  0.54973  1.0000
  C   C480      1.0  0.36265  0.90370  0.51272  1.0000
  H   H448      1.0  0.38116  0.91160  0.50764  1.0000
  H   H449      1.0  0.35694  0.88812  0.55200  1.0000
  H   H450      1.0  0.35927  0.91556  0.55050  1.0000
  C   C481      1.0  0.88872  0.56678  0.42425  1.0000
  C   C482      1.0  0.89992  0.55348  0.42436  1.0000
  C   C483      1.0  0.88274  0.57346  0.51234  1.0000
  H   H451      1.0  0.87455  0.58381  0.50694  1.0000
  H   H452      1.0  0.89820  0.58344  0.55212  1.0000
  H   H453      1.0  0.87093  0.55814  0.54977  1.0000
  C   C484      1.0  0.90555  0.54660  0.51275  1.0000
  H   H454      1.0  0.91345  0.53599  0.50767  1.0000
  H   H455      1.0  0.88998  0.53674  0.55203  1.0000
  H   H456      1.0  0.91742  0.56184  0.55052  1.0000
  C   C485      1.0  0.44249  0.32379  0.42425  1.0000
  C   C486      1.0  0.45578  0.34829  0.42438  1.0000
  C   C487      1.0  0.43581  0.31113  0.51234  1.0000
  H   H457      1.0  0.42546  0.29260  0.50694  1.0000
  H   H458      1.0  0.42583  0.31662  0.55213  1.0000
  H   H459      1.0  0.45113  0.31465  0.54975  1.0000
  C   C488      1.0  0.46267  0.36081  0.51275  1.0000
  H   H460      1.0  0.47328  0.37932  0.50766  1.0000
  H   H461      1.0  0.47253  0.35510  0.55203  1.0000
  H   H462      1.0  0.44743  0.35744  0.55054  1.0000
  C   C489      1.0  0.68549  0.12055  0.42423  1.0000
  C   C490      1.0  0.66099  0.10934  0.42436  1.0000
  C   C491      1.0  0.69815  0.12653  0.51230  1.0000
  H   H463      1.0  0.71668  0.13472  0.50690  1.0000
  H   H464      1.0  0.69266  0.11107  0.55212  1.0000
  H   H465      1.0  0.69464  0.13834  0.54972  1.0000
  C   C492      1.0  0.64847  0.10371  0.51275  1.0000
  H   H466      1.0  0.62996  0.09581  0.50766  1.0000
  H   H467      1.0  0.65418  0.11928  0.55201  1.0000
  H   H468      1.0  0.65185  0.09185  0.55053  1.0000
  C   C493      1.0  0.46220  0.10383  0.34560  1.0000
  C   C494      1.0  0.45551  0.10914  0.42923  1.0000
  C   C495      1.0  0.44208  0.12020  0.42978  1.0000
  C   C496      1.0  0.43552  0.12588  0.34678  1.0000
  C   C497      1.0  0.43423  0.12595  0.51556  1.0000
  H   H469      1.0  0.43907  0.12085  0.57717  1.0000
  H   H470      1.0  0.41557  0.11757  0.51610  1.0000
  H   H471      1.0  0.44126  0.14443  0.51974  1.0000
  C   C498      1.0  0.46250  0.10334  0.51677  1.0000
  H   H472      1.0  0.47330  0.09566  0.51095  1.0000
  H   H473      1.0  0.44727  0.09122  0.55408  1.0000
  H   H474      1.0  0.47224  0.11888  0.55646  1.0000
  C   C499      1.0  0.64905  0.54709  0.34546  1.0000
  C   C500      1.0  0.66105  0.55378  0.42908  1.0000
  C   C501      1.0  0.68554  0.56721  0.42962  1.0000
  C   C502      1.0  0.69778  0.57377  0.34661  1.0000
  C   C503      1.0  0.69915  0.57507  0.51539  1.0000
  H   H475      1.0  0.68920  0.57023  0.57700  1.0000
  H   H476      1.0  0.70942  0.59372  0.51592  1.0000
  H   H477      1.0  0.71059  0.56803  0.51956  1.0000
  C   C504      1.0  0.64826  0.54680  0.51663  1.0000
  H   H478      1.0  0.62979  0.53599  0.51084  1.0000
  H   H479      1.0  0.65137  0.56202  0.55394  1.0000
  H   H480      1.0  0.65407  0.53705  0.55633  1.0000
  C   C505      1.0  0.90541  0.36019  0.34570  1.0000
  C   C506      1.0  0.90011  0.34821  0.42935  1.0000
  C   C507      1.0  0.88905  0.32372  0.42991  1.0000
  C   C508      1.0  0.88336  0.31147  0.34691  1.0000
  C   C509      1.0  0.88329  0.31011  0.51569  1.0000
  H   H481      1.0  0.88840  0.32006  0.57729  1.0000
  H   H482      1.0  0.89168  0.29984  0.51622  1.0000
  H   H483      1.0  0.86482  0.29867  0.51986  1.0000
  C   C510      1.0  0.90592  0.36100  0.51689  1.0000
  H   H484      1.0  0.91359  0.37947  0.51108  1.0000
  H   H485      1.0  0.91803  0.35789  0.55420  1.0000
  H   H486      1.0  0.89037  0.35520  0.55659  1.0000
  C   C511      1.0  0.54893  0.90356  0.34565  1.0000
  C   C512      1.0  0.55562  0.89826  0.42929  1.0000
  C   C513      1.0  0.56903  0.88719  0.42986  1.0000
  C   C514      1.0  0.57559  0.88150  0.34686  1.0000
  C   C515      1.0  0.57689  0.88144  0.51564  1.0000
  H   H487      1.0  0.57205  0.88655  0.57725  1.0000
  H   H488      1.0  0.59554  0.88982  0.51617  1.0000
  H   H489      1.0  0.56985  0.86296  0.51983  1.0000
  C   C516      1.0  0.54863  0.90407  0.51684  1.0000
  H   H490      1.0  0.53783  0.91175  0.51102  1.0000
  H   H491      1.0  0.56385  0.91618  0.55414  1.0000
  H   H492      1.0  0.53889  0.88853  0.55653  1.0000
  C   C517      1.0  0.36206  0.46034  0.34561  1.0000
  C   C518      1.0  0.35007  0.45365  0.42923  1.0000
  C   C519      1.0  0.32558  0.44023  0.42979  1.0000
  C   C520      1.0  0.31333  0.43367  0.34679  1.0000
  C   C521      1.0  0.31197  0.43238  0.51557  1.0000
  H   H493      1.0  0.32192  0.43722  0.57718  1.0000
  H   H494      1.0  0.30170  0.41372  0.51610  1.0000
  H   H495      1.0  0.30053  0.43941  0.51974  1.0000
  C   C522      1.0  0.36286  0.46064  0.51678  1.0000
  H   H496      1.0  0.38133  0.47144  0.51097  1.0000
  H   H497      1.0  0.35975  0.44542  0.55409  1.0000
  H   H498      1.0  0.35706  0.47039  0.55647  1.0000
  C   C523      1.0  0.10567  0.64720  0.34540  1.0000
  C   C524      1.0  0.11098  0.65920  0.42901  1.0000
  C   C525      1.0  0.12204  0.68369  0.42954  1.0000
  C   C526      1.0  0.12772  0.69593  0.34653  1.0000
  C   C527      1.0  0.12779  0.69730  0.51531  1.0000
  H   H499      1.0  0.12269  0.68735  0.57693  1.0000
  H   H500      1.0  0.11941  0.70757  0.51584  1.0000
  H   H501      1.0  0.14627  0.70874  0.51948  1.0000
  C   C528      1.0  0.10518  0.64641  0.51657  1.0000
  H   H502      1.0  0.09751  0.62794  0.51078  1.0000
  H   H503      1.0  0.09307  0.64952  0.55388  1.0000
  H   H504      1.0  0.12073  0.65222  0.55625  1.0000
  C   C529      1.0  0.10194  0.19660  0.34096  1.0000
  C   C530      1.0  0.10800  0.20876  0.42434  1.0000
  C   C531      1.0  0.12026  0.23331  0.42446  1.0000
  C   C532      1.0  0.12640  0.24556  0.34137  1.0000
  C   C533      1.0  0.12706  0.24703  0.51011  1.0000
  H   H505      1.0  0.12210  0.23717  0.57193  1.0000
  H   H506      1.0  0.11933  0.25789  0.51218  1.0000
  H   H507      1.0  0.14565  0.25790  0.51248  1.0000
  C   C534      1.0  0.10167  0.19607  0.51219  1.0000
  H   H508      1.0  0.09242  0.17750  0.50702  1.0000
  H   H509      1.0  0.09069  0.20059  0.55051  1.0000
  H   H510      1.0  0.11715  0.20066  0.55065  1.0000
  C   C535      1.0  0.81263  0.90718  0.34110  1.0000
  C   C536      1.0  0.80048  0.90109  0.42448  1.0000
  C   C537      1.0  0.77593  0.88878  0.42463  1.0000
  C   C538      1.0  0.76367  0.88267  0.34154  1.0000
  C   C539      1.0  0.76221  0.88187  0.51027  1.0000
  H   H511      1.0  0.77207  0.88677  0.57210  1.0000
  H   H512      1.0  0.75136  0.86328  0.51236  1.0000
  H   H513      1.0  0.75134  0.88958  0.51264  1.0000
  C   C540      1.0  0.81317  0.90744  0.51234  1.0000
  H   H514      1.0  0.83174  0.91678  0.50714  1.0000
  H   H515      1.0  0.80866  0.89196  0.55066  1.0000
  H   H516      1.0  0.80857  0.91834  0.55079  1.0000
  C   C541      1.0  0.10204  0.90728  0.34109  1.0000
  C   C542      1.0  0.10813  0.90122  0.42448  1.0000
  C   C543      1.0  0.12043  0.88897  0.42463  1.0000
  C   C544      1.0  0.12655  0.88283  0.34155  1.0000
  C   C545      1.0  0.12734  0.88216  0.51029  1.0000
  H   H517      1.0  0.12243  0.88712  0.57210  1.0000
  H   H518      1.0  0.14593  0.88990  0.51240  1.0000
  H   H519      1.0  0.11963  0.86358  0.51264  1.0000
  C   C546      1.0  0.10178  0.90756  0.51232  1.0000
  H   H520      1.0  0.09245  0.91681  0.50712  1.0000
  H   H521      1.0  0.11727  0.91853  0.55066  1.0000
  H   H522      1.0  0.09088  0.89207  0.55077  1.0000
  C   C547      1.0  0.90913  0.81076  0.34110  1.0000
  C   C548      1.0  0.90307  0.79861  0.42448  1.0000
  C   C549      1.0  0.89082  0.77406  0.42462  1.0000
  C   C550      1.0  0.88468  0.76180  0.34153  1.0000
  C   C551      1.0  0.88402  0.76034  0.51027  1.0000
  H   H523      1.0  0.88898  0.77021  0.57209  1.0000
  H   H524      1.0  0.89175  0.74949  0.51236  1.0000
  H   H525      1.0  0.86543  0.74947  0.51263  1.0000
  C   C552      1.0  0.90941  0.81130  0.51233  1.0000
  H   H526      1.0  0.91866  0.82988  0.50714  1.0000
  H   H527      1.0  0.92038  0.80679  0.55065  1.0000
  H   H528      1.0  0.89393  0.80671  0.55079  1.0000
  C   C553      1.0  0.19845  0.10020  0.34095  1.0000
  C   C554      1.0  0.21060  0.10629  0.42433  1.0000
  C   C555      1.0  0.23516  0.11860  0.42446  1.0000
  C   C556      1.0  0.24741  0.12471  0.34136  1.0000
  C   C557      1.0  0.24888  0.12551  0.51011  1.0000
  H   H529      1.0  0.23901  0.12062  0.57193  1.0000
  H   H530      1.0  0.25973  0.14411  0.51218  1.0000
  H   H531      1.0  0.25975  0.11780  0.51248  1.0000
  C   C558      1.0  0.19792  0.09995  0.51218  1.0000
  H   H532      1.0  0.17934  0.09062  0.50700  1.0000
  H   H533      1.0  0.20243  0.11544  0.55050  1.0000
  H   H534      1.0  0.20251  0.08905  0.55065  1.0000
  C   C559      1.0  0.90902  0.10010  0.34113  1.0000
  C   C560      1.0  0.90293  0.10616  0.42451  1.0000
  C   C561      1.0  0.89063  0.11840  0.42466  1.0000
  C   C562      1.0  0.88451  0.12455  0.34157  1.0000
  C   C563      1.0  0.88371  0.12521  0.51031  1.0000
  H   H535      1.0  0.88862  0.12025  0.57213  1.0000
  H   H536      1.0  0.86512  0.11747  0.51239  1.0000
  H   H537      1.0  0.89142  0.14379  0.51268  1.0000
  C   C564      1.0  0.90928  0.09982  0.51236  1.0000
  H   H538      1.0  0.91862  0.09058  0.50717  1.0000
  H   H539      1.0  0.89380  0.08885  0.55069  1.0000
  H   H540      1.0  0.92018  0.11531  0.55082  1.0000
  C   C565      1.0  0.09262  0.53668  0.42616  1.0000
  C   C566      1.0  0.09286  0.55803  0.42620  1.0000
  C   C567      1.0  0.09206  0.52542  0.51409  1.0000
  H   H541      1.0  0.09261  0.50962  0.50807  1.0000
  H   H542      1.0  0.07646  0.52131  0.55072  1.0000
  H   H543      1.0  0.10686  0.53689  0.55473  1.0000
  C   C568      1.0  0.09249  0.56878  0.51429  1.0000
  H   H544      1.0  0.09354  0.58536  0.50847  1.0000
  H   H545      1.0  0.10710  0.57167  0.55526  1.0000
  H   H546      1.0  0.07672  0.55753  0.55049  1.0000
  C   C569      1.0  0.47258  0.55781  0.42626  1.0000
  C   C570      1.0  0.45124  0.53670  0.42629  1.0000
  C   C571      1.0  0.48385  0.56852  0.51418  1.0000
  H   H547      1.0  0.49964  0.58487  0.50815  1.0000
  H   H548      1.0  0.48796  0.55703  0.55081  1.0000
  H   H549      1.0  0.47238  0.57185  0.55484  1.0000
  C   C572      1.0  0.44048  0.52559  0.51438  1.0000
  H   H550      1.0  0.42391  0.51005  0.50858  1.0000
  H   H551      1.0  0.43759  0.53731  0.55533  1.0000
  H   H552      1.0  0.45174  0.52108  0.55062  1.0000
  C   C573      1.0  0.45144  0.91659  0.42628  1.0000
  C   C574      1.0  0.47255  0.91636  0.42639  1.0000
  C   C575      1.0  0.44071  0.91711  0.51419  1.0000
  H   H553      1.0  0.42436  0.91657  0.50812  1.0000
  H   H554      1.0  0.45219  0.93271  0.55092  1.0000
  H   H555      1.0  0.43737  0.90230  0.55477  1.0000
  C   C576      1.0  0.48365  0.91670  0.51448  1.0000
  H   H556      1.0  0.49919  0.91567  0.50868  1.0000
  H   H557      1.0  0.47192  0.90207  0.55537  1.0000
  H   H558      1.0  0.48815  0.93246  0.55076  1.0000
  C   C577      1.0  0.91845  0.47071  0.42635  1.0000
  C   C578      1.0  0.91821  0.44937  0.42643  1.0000
  C   C579      1.0  0.91898  0.48198  0.51424  1.0000
  H   H559      1.0  0.91843  0.49777  0.50817  1.0000
  H   H560      1.0  0.93458  0.48609  0.55094  1.0000
  H   H561      1.0  0.90417  0.47051  0.55486  1.0000
  C   C580      1.0  0.91856  0.43862  0.51453  1.0000
  H   H562      1.0  0.91752  0.42204  0.50873  1.0000
  H   H563      1.0  0.90394  0.43572  0.55546  1.0000
  H   H564      1.0  0.93432  0.44987  0.55077  1.0000
  C   C581      1.0  0.53854  0.44962  0.42618  1.0000
  C   C582      1.0  0.55988  0.47072  0.42624  1.0000
  C   C583      1.0  0.52728  0.43891  0.51411  1.0000
  H   H565      1.0  0.51148  0.42256  0.50810  1.0000
  H   H566      1.0  0.52316  0.45040  0.55075  1.0000
  H   H567      1.0  0.53875  0.43558  0.55476  1.0000
  C   C584      1.0  0.57063  0.48184  0.51432  1.0000
  H   H568      1.0  0.58721  0.49738  0.50851  1.0000
  H   H569      1.0  0.57352  0.47012  0.55530  1.0000
  H   H570      1.0  0.55938  0.48636  0.55052  1.0000
  C   C585      1.0  0.55966  0.09076  0.42620  1.0000
  C   C586      1.0  0.53855  0.09100  0.42626  1.0000
  C   C587      1.0  0.57037  0.09020  0.51413  1.0000
  H   H571      1.0  0.58671  0.09075  0.50811  1.0000
  H   H572      1.0  0.55887  0.07459  0.55076  1.0000
  H   H573      1.0  0.57369  0.10500  0.55479  1.0000
  C   C588      1.0  0.52744  0.09064  0.51436  1.0000
  H   H574      1.0  0.51190  0.09168  0.50857  1.0000
  H   H575      1.0  0.53916  0.10525  0.55532  1.0000
  H   H576      1.0  0.52292  0.07487  0.55057  1.0000
  C   C589      1.0  0.98116  0.42548  0.34284  1.0000
  C   C590      1.0  0.99318  0.43086  0.42630  1.0000
  C   C591      1.0  0.01765  0.44317  0.42588  1.0000
  C   C592      1.0  0.02951  0.44972  0.34212  1.0000
  C   C593      1.0  0.03155  0.44990  0.51115  1.0000
  H   H577      1.0  0.02180  0.44404  0.57311  1.0000
  H   H578      1.0  0.04173  0.46853  0.51564  1.0000
  H   H579      1.0  0.04309  0.44295  0.51057  1.0000
  C   C594      1.0  0.98057  0.42422  0.51432  1.0000
  H   H580      1.0  0.96199  0.41480  0.50925  1.0000
  H   H581      1.0  0.98509  0.43957  0.55363  1.0000
  H   H582      1.0  0.98522  0.41321  0.55171  1.0000
  C   C595      1.0  0.58377  0.55755  0.34270  1.0000
  C   C596      1.0  0.57839  0.56418  0.42619  1.0000
  C   C597      1.0  0.56608  0.57635  0.42581  1.0000
  C   C598      1.0  0.55954  0.58168  0.34205  1.0000
  C   C599      1.0  0.55936  0.58351  0.51108  1.0000
  H   H583      1.0  0.56521  0.57962  0.57304  1.0000
  H   H584      1.0  0.54073  0.57507  0.51558  1.0000
  H   H585      1.0  0.56631  0.60201  0.51053  1.0000
  C   C600      1.0  0.58503  0.55820  0.51420  1.0000
  H   H586      1.0  0.59444  0.54903  0.50911  1.0000
  H   H587      1.0  0.56967  0.54737  0.55350  1.0000
  H   H588      1.0  0.59603  0.57385  0.55160  1.0000
  C   C601      1.0  0.45171  0.02808  0.34281  1.0000
  C   C602      1.0  0.44507  0.01606  0.42627  1.0000
  C   C603      1.0  0.43291  0.99160  0.42587  1.0000
  C   C604      1.0  0.42759  0.97973  0.34212  1.0000
  C   C605      1.0  0.42575  0.97770  0.51115  1.0000
  H   H589      1.0  0.42963  0.98745  0.57310  1.0000
  H   H590      1.0  0.43419  0.96752  0.51565  1.0000
  H   H591      1.0  0.40725  0.96615  0.51057  1.0000
  C   C606      1.0  0.45105  0.02868  0.51429  1.0000
  H   H592      1.0  0.46022  0.04726  0.50920  1.0000
  H   H593      1.0  0.46188  0.02416  0.55359  1.0000
  H   H594      1.0  0.43540  0.02404  0.55168  1.0000
  C   C607      1.0  0.02992  0.58192  0.34272  1.0000
  C   C608      1.0  0.01791  0.57653  0.42621  1.0000
  C   C609      1.0  0.99344  0.56422  0.42583  1.0000
  C   C610      1.0  0.98157  0.55767  0.34209  1.0000
  C   C611      1.0  0.97956  0.55749  0.51112  1.0000
  H   H595      1.0  0.98931  0.56335  0.57307  1.0000
  H   H596      1.0  0.96938  0.53886  0.51563  1.0000
  H   H597      1.0  0.96801  0.56444  0.51057  1.0000
  C   C612      1.0  0.03053  0.58318  0.51421  1.0000
  H   H598      1.0  0.04911  0.59260  0.50910  1.0000
  H   H599      1.0  0.02602  0.56783  0.55352  1.0000
  H   H600      1.0  0.02589  0.59418  0.55160  1.0000
  C   C613      1.0  0.42734  0.44987  0.34279  1.0000
  C   C614      1.0  0.43272  0.44323  0.42626  1.0000
  C   C615      1.0  0.44503  0.43107  0.42587  1.0000
  C   C616      1.0  0.45158  0.42575  0.34211  1.0000
  C   C617      1.0  0.45176  0.42391  0.51114  1.0000
  H   H601      1.0  0.44590  0.42780  0.57310  1.0000
  H   H602      1.0  0.47039  0.43236  0.51563  1.0000
  H   H603      1.0  0.44481  0.40541  0.51058  1.0000
  C   C618      1.0  0.42608  0.44921  0.51428  1.0000
  H   H604      1.0  0.41666  0.45837  0.50920  1.0000
  H   H605      1.0  0.44143  0.46004  0.55358  1.0000
  H   H606      1.0  0.41508  0.43356  0.55168  1.0000
  C   C619      1.0  0.55942  0.97932  0.34280  1.0000
  C   C620      1.0  0.56605  0.99134  0.42627  1.0000
  C   C621      1.0  0.57821  0.01580  0.42587  1.0000
  C   C622      1.0  0.58353  0.02767  0.34210  1.0000
  C   C623      1.0  0.58537  0.02970  0.51113  1.0000
  H   H607      1.0  0.58148  0.01995  0.57310  1.0000
  H   H608      1.0  0.57693  0.03988  0.51562  1.0000
  H   H609      1.0  0.60387  0.04125  0.51058  1.0000
  C   C624      1.0  0.56007  0.97872  0.51429  1.0000
  H   H610      1.0  0.55091  0.96014  0.50921  1.0000
  H   H611      1.0  0.54924  0.98324  0.55359  1.0000
  H   H612      1.0  0.57572  0.98337  0.55169  1.0000
  C   C625      1.0  0.10810  0.11853  0.42368  1.0000
  C   C626      1.0  0.12039  0.10626  0.42350  1.0000
  C   C627      1.0  0.10180  0.12480  0.51197  1.0000
  H   H613      1.0  0.09250  0.13408  0.50688  1.0000
  H   H614      1.0  0.11725  0.13570  0.55054  1.0000
  H   H615      1.0  0.09091  0.10935  0.55050  1.0000
  C   C628      1.0  0.12668  0.09997  0.51181  1.0000
  H   H616      1.0  0.13598  0.09069  0.50679  1.0000
  H   H617      1.0  0.11123  0.08907  0.55034  1.0000
  H   H618      1.0  0.13756  0.11542  0.55038  1.0000
  C   C629      1.0  0.89070  0.99142  0.42377  1.0000
  C   C630      1.0  0.90296  0.01597  0.42360  1.0000
  C   C631      1.0  0.88443  0.97884  0.51206  1.0000
  H   H619      1.0  0.87515  0.96026  0.50697  1.0000
  H   H620      1.0  0.87352  0.98339  0.55062  1.0000
  H   H621      1.0  0.89988  0.98341  0.55060  1.0000
  C   C632      1.0  0.90925  0.02855  0.51191  1.0000
  H   H622      1.0  0.91853  0.04713  0.50690  1.0000
  H   H623      1.0  0.92016  0.02400  0.55044  1.0000
  H   H624      1.0  0.89380  0.02398  0.55048  1.0000
  C   C633      1.0  0.01781  0.90112  0.42375  1.0000
  C   C634      1.0  0.99326  0.88883  0.42357  1.0000
  C   C635      1.0  0.03039  0.90742  0.51203  1.0000
  H   H625      1.0  0.04896  0.91673  0.50694  1.0000
  H   H626      1.0  0.02584  0.89197  0.55060  1.0000
  H   H627      1.0  0.02582  0.91831  0.55057  1.0000
  C   C636      1.0  0.98068  0.88254  0.51189  1.0000
  H   H628      1.0  0.96210  0.87324  0.50687  1.0000
  H   H629      1.0  0.98523  0.89799  0.55042  1.0000
  H   H630      1.0  0.98525  0.87166  0.55046  1.0000
  C   C637      1.0  0.90297  0.88884  0.42377  1.0000
  C   C638      1.0  0.89069  0.90111  0.42358  1.0000
  C   C639      1.0  0.90927  0.88257  0.51205  1.0000
  H   H631      1.0  0.91857  0.87329  0.50696  1.0000
  H   H632      1.0  0.89382  0.87167  0.55062  1.0000
  H   H633      1.0  0.92016  0.89802  0.55058  1.0000
  C   C640      1.0  0.88440  0.90741  0.51190  1.0000
  H   H634      1.0  0.87511  0.91669  0.50688  1.0000
  H   H635      1.0  0.89986  0.91831  0.55043  1.0000
  H   H636      1.0  0.87352  0.89196  0.55047  1.0000
  C   C641      1.0  0.12038  0.01597  0.42370  1.0000
  C   C642      1.0  0.10811  0.99141  0.42354  1.0000
  C   C643      1.0  0.12666  0.02854  0.51199  1.0000
  H   H637      1.0  0.13594  0.04712  0.50688  1.0000
  H   H638      1.0  0.13756  0.02400  0.55055  1.0000
  H   H639      1.0  0.11120  0.02398  0.55052  1.0000
  C   C644      1.0  0.10182  0.97883  0.51185  1.0000
  H   H640      1.0  0.09254  0.96025  0.50684  1.0000
  H   H641      1.0  0.09092  0.98339  0.55038  1.0000
  H   H642      1.0  0.11727  0.98340  0.55042  1.0000
  C   C645      1.0  0.99326  0.10626  0.42375  1.0000
  C   C646      1.0  0.01782  0.11855  0.42355  1.0000
  C   C647      1.0  0.98069  0.09996  0.51204  1.0000
  H   H643      1.0  0.96211  0.09066  0.50696  1.0000
  H   H644      1.0  0.98524  0.11541  0.55060  1.0000
  H   H645      1.0  0.98526  0.08908  0.55057  1.0000
  C   C648      1.0  0.03040  0.12484  0.51185  1.0000
  H   H646      1.0  0.04898  0.13413  0.50682  1.0000
  H   H647      1.0  0.02585  0.10939  0.55038  1.0000
  H   H648      1.0  0.02584  0.13573  0.55042  1.0000
