data_image0
_chemical_formula_structural       C3NHC2HOCH2C3NHC2HOCH10C2NCHNCNHCNCNC2ONCHNCNHCNCNC2OHCH2CHNHC3O2CH2CH4CH2CHNHC3O2CH2CH3C3NH4C5N2H4C6N2H6NCHNCHNCH2NCHC3HNHC3HNC3H3C3HNC3NH2CH3C2NC2O2C2H5CH3C2NC2O2C2H5C2NC2O2C2HC2NC2O2C2H5C3NH4C5N2H4C6N2H6NCHNCHNCH2NCHC3HNHC3HNC3H3C3HNC3NH2CH3C2NC2O2C2H5CH3C2NC2O2C2H5C2NC2O2C2HC2NC2O2C2H5C6N2H5C6N2H6C6N2H6NCHNCHNCHNCHNCH2NCHC3HNC3NH3C3HNC3NH3C3HNC3NH3C2NC2O2C2H5C2NC2O2C2H5C2NC2O2C2H5C2NC2O2C2H5C2NC2O2C2H4C2NC2O2CH2C6N2H5C6N2H6C6N2H6NCHNCHNCHNCHNCH2NCHC3HNC3NH3C3HNC3NH3C3HNC3NH3C2NC2O2C2H5C2NC2O2C2H5C2NC2O2C2H5C2NC2O2C2H5C2NC2O2C2H4C2NC2O2CH2
_chemical_formula_sum              "C312 N96 H264 O48"
_cell_length_a       45.6542
_cell_length_b       45.6542
_cell_length_c       14.8797
_cell_angle_alpha    90
_cell_angle_beta     90
_cell_angle_gamma    120

_space_group_name_H-M_alt    "P 1"
_space_group_IT_number       1

loop_
  _space_group_symop_operation_xyz
  'x, y, z'

loop_
  _atom_site_type_symbol
  _atom_site_label
  _atom_site_symmetry_multiplicity
  _atom_site_fract_x
  _atom_site_fract_y
  _atom_site_fract_z
  _atom_site_occupancy
  C   C1        1.0  0.02416  0.26268  0.32755  1.0000
  C   C2        1.0  0.04460  0.29901  0.32081  1.0000
  C   C3        1.0  0.07841  0.31658  0.35596  1.0000
  N   N1        1.0  0.03324  0.31706  0.27358  1.0000
  H   H1        1.0  0.04712  0.34126  0.26390  1.0000
  C   C4        1.0  0.07674  0.26185  0.37361  1.0000
  C   C5        1.0  0.04207  0.24566  0.35140  1.0000
  H   H2        1.0  0.02928  0.22001  0.35874  1.0000
  O   O1        1.0  0.05885  0.33067  0.53006  1.0000
  C   C6        1.0  0.03966  0.33629  0.59767  1.0000
  H   H3        1.0  0.04241  0.36140  0.59030  1.0000
  H   H4        1.0  0.04785  0.33399  0.66518  1.0000
  C   C7        1.0  0.02416  0.76268  0.32755  1.0000
  C   C8        1.0  0.04460  0.79901  0.32081  1.0000
  C   C9        1.0  0.07841  0.81658  0.35596  1.0000
  N   N2        1.0  0.03324  0.81706  0.27358  1.0000
  H   H5        1.0  0.04712  0.84126  0.26390  1.0000
  C   C10       1.0  0.07674  0.76185  0.37361  1.0000
  C   C11       1.0  0.04207  0.74566  0.35140  1.0000
  H   H6        1.0  0.02928  0.72001  0.35874  1.0000
  O   O2        1.0  0.05885  0.83067  0.53006  1.0000
  C   C12       1.0  0.03966  0.83629  0.59767  1.0000
  H   H7        1.0  0.04240  0.86140  0.59030  1.0000
  H   H8        1.0  0.04785  0.83399  0.66518  1.0000
  H   H9        1.0  0.01398  0.30568  0.23341  1.0000
  H   H10       1.0  0.01717  0.19141  0.51696  1.0000
  H   H11       1.0  0.01807  0.19990  0.63360  1.0000
  H   H12       1.0  0.01412  0.22679  0.55432  1.0000
  H   H13       1.0  0.01399  0.80568  0.23341  1.0000
  H   H14       1.0  0.01717  0.69141  0.51696  1.0000
  H   H15       1.0  0.01807  0.69990  0.63360  1.0000
  H   H16       1.0  0.01412  0.72679  0.55432  1.0000
  C   C13       1.0  0.00702  0.20064  0.56917  1.0000
  C   C14       1.0  0.00702  0.70064  0.56917  1.0000
  N   N3        1.0  0.13256  0.23950  0.26119  1.0000
  C   C15       1.0  0.10236  0.23799  0.27546  1.0000
  H   H17       1.0  0.08982  0.23991  0.22085  1.0000
  N   N4        1.0  0.11783  0.36978  0.29610  1.0000
  C   C16       1.0  0.09466  0.29783  0.38107  1.0000
  N   N5        1.0  0.12801  0.31457  0.40572  1.0000
  H   H18       1.0  0.13889  0.30389  0.43537  1.0000
  C   C17       1.0  0.09417  0.24342  0.36332  1.0000
  N   N6        1.0  0.11545  0.24472  0.42916  1.0000
  C   C18       1.0  0.09689  0.35255  0.36586  1.0000
  N   N7        1.0  0.13874  0.39651  0.45871  1.0000
  C   C19       1.0  0.10778  0.36787  0.45229  1.0000
  C   C20       1.0  0.09210  0.35279  0.53271  1.0000
  O   O3        1.0  0.10844  0.34503  0.58259  1.0000
  N   N8        1.0  0.13256  0.73950  0.26119  1.0000
  C   C21       1.0  0.10236  0.73799  0.27546  1.0000
  H   H19       1.0  0.08982  0.73991  0.22085  1.0000
  N   N9        1.0  0.11783  0.86977  0.29610  1.0000
  C   C22       1.0  0.09465  0.79783  0.38107  1.0000
  N   N10       1.0  0.12801  0.81457  0.40572  1.0000
  H   H20       1.0  0.13889  0.80388  0.43537  1.0000
  C   C23       1.0  0.09417  0.74342  0.36332  1.0000
  N   N11       1.0  0.11545  0.74472  0.42916  1.0000
  C   C24       1.0  0.09689  0.85255  0.36586  1.0000
  N   N12       1.0  0.13874  0.89651  0.45871  1.0000
  C   C25       1.0  0.10778  0.86787  0.45229  1.0000
  C   C26       1.0  0.09210  0.85279  0.53271  1.0000
  O   O4        1.0  0.10844  0.84503  0.58259  1.0000
  H   H21       1.0  0.14254  0.33840  0.39570  1.0000
  C   C27       1.0  0.18939  0.25988  0.30528  1.0000
  H   H22       1.0  0.17028  0.20151  0.23893  1.0000
  H   H23       1.0  0.16539  0.30173  0.28714  1.0000
  C   C28       1.0  0.14682  0.40021  0.30277  1.0000
  H   H24       1.0  0.16194  0.40929  0.24720  1.0000
  N   N13       1.0  0.18856  0.31255  0.30737  1.0000
  H   H25       1.0  0.18148  0.38108  0.49676  1.0000
  C   C29       1.0  0.15423  0.24150  0.32714  1.0000
  C   C30       1.0  0.14375  0.24229  0.41708  1.0000
  C   C31       1.0  0.16362  0.24836  0.49265  1.0000
  O   O5        1.0  0.17822  0.27783  0.51804  1.0000
  O   O6        1.0  0.18167  0.23270  0.49906  1.0000
  C   C32       1.0  0.18040  0.21889  0.58702  1.0000
  H   H26       1.0  0.15444  0.19972  0.60428  1.0000
  H   H27       1.0  0.19004  0.23874  0.63837  1.0000
  C   C33       1.0  0.15939  0.41403  0.38882  1.0000
  H   H28       1.0  0.18735  0.04377  0.60788  1.0000
  H   H29       1.0  0.18265  0.99246  0.53714  1.0000
  H   H30       1.0  0.18037  0.98822  0.65583  1.0000
  H   H31       1.0  0.14254  0.83840  0.39570  1.0000
  C   C34       1.0  0.18939  0.75988  0.30528  1.0000
  H   H32       1.0  0.17028  0.70151  0.23893  1.0000
  H   H33       1.0  0.16540  0.80173  0.28714  1.0000
  C   C35       1.0  0.14682  0.90021  0.30277  1.0000
  H   H34       1.0  0.16194  0.90929  0.24720  1.0000
  N   N14       1.0  0.18856  0.81256  0.30737  1.0000
  H   H35       1.0  0.18148  0.88109  0.49676  1.0000
  C   C36       1.0  0.15423  0.74150  0.32714  1.0000
  C   C37       1.0  0.14375  0.74229  0.41708  1.0000
  C   C38       1.0  0.16362  0.74836  0.49265  1.0000
  O   O7        1.0  0.17822  0.77783  0.51804  1.0000
  O   O8        1.0  0.18166  0.73270  0.49906  1.0000
  C   C39       1.0  0.18040  0.71889  0.58702  1.0000
  H   H36       1.0  0.15444  0.69972  0.60428  1.0000
  H   H37       1.0  0.19004  0.73874  0.63837  1.0000
  C   C40       1.0  0.15939  0.91403  0.38882  1.0000
  H   H38       1.0  0.18734  0.54377  0.60788  1.0000
  H   H39       1.0  0.18265  0.49246  0.53714  1.0000
  H   H40       1.0  0.18037  0.48822  0.65583  1.0000
  C   C41       1.0  0.48768  0.24340  0.31584  1.0000
  C   C42       1.0  0.43284  0.18915  0.29910  1.0000
  C   C43       1.0  0.46884  0.20815  0.29063  1.0000
  N   N15       1.0  0.48360  0.19271  0.24591  1.0000
  H   H41       1.0  0.00553  0.20629  0.21774  1.0000
  H   H42       1.0  0.47010  0.16996  0.22178  1.0000
  H   H43       1.0  0.51399  0.30568  0.23341  1.0000
  H   H44       1.0  0.36712  0.16613  0.28583  1.0000
  C   C44       1.0  0.26372  0.24402  0.34165  1.0000
  C   C45       1.0  0.31874  0.24654  0.37506  1.0000
  C   C46       1.0  0.29988  0.25997  0.33112  1.0000
  C   C47       1.0  0.24395  0.26035  0.32509  1.0000
  C   C48       1.0  0.20860  0.24300  0.30126  1.0000
  N   N16       1.0  0.31621  0.28743  0.27573  1.0000
  N   N17       1.0  0.19325  0.21173  0.26217  1.0000
  H   H45       1.0  0.30373  0.29332  0.23356  1.0000
  H   H46       1.0  0.34055  0.29959  0.26769  1.0000
  H   H47       1.0  0.20672  0.20264  0.23742  1.0000
  H   H48       1.0  0.34077  0.20955  0.46564  1.0000
  C   C49       1.0  0.26415  0.02268  0.33876  1.0000
  C   C50       1.0  0.26540  0.07761  0.35883  1.0000
  C   C51       1.0  0.24842  0.04310  0.32931  1.0000
  C   C52       1.0  0.24606  0.48596  0.34341  1.0000
  C   C53       1.0  0.26112  0.46520  0.32821  1.0000
  C   C54       1.0  0.24744  0.43262  0.37042  1.0000
  N   N18       1.0  0.21848  0.03087  0.28421  1.0000
  N   N19       1.0  0.28779  0.47619  0.27015  1.0000
  H   H49       1.0  0.21019  0.51066  0.24737  1.0000
  H   H50       1.0  0.20851  0.04486  0.27122  1.0000
  H   H51       1.0  0.29882  0.46320  0.25722  1.0000
  H   H52       1.0  0.29341  0.99501  0.22971  1.0000
  H   H53       1.0  0.21059  0.37367  0.46117  1.0000
  H   H54       1.0  0.30785  0.14193  0.39722  1.0000
  N   N20       1.0  0.25577  0.39712  0.27472  1.0000
  C   C55       1.0  0.25699  0.36881  0.25468  1.0000
  H   H55       1.0  0.24841  0.35794  0.19306  1.0000
  N   N21       1.0  0.36301  0.25600  0.27890  1.0000
  C   C56       1.0  0.39282  0.25799  0.25767  1.0000
  H   H56       1.0  0.39509  0.24986  0.19542  1.0000
  N   N22       1.0  0.25128  0.11671  0.30093  1.0000
  C   C57       1.0  0.24997  0.14574  0.30810  1.0000
  H   H57       1.0  0.25577  0.16081  0.25251  1.0000
  H   H58       1.0  0.22214  0.04877  0.00728  1.0000
  N   N23       1.0  0.39546  0.13269  0.25454  1.0000
  C   C58       1.0  0.36693  0.10237  0.26907  1.0000
  H   H59       1.0  0.35169  0.09044  0.21514  1.0000
  C   C59       1.0  0.46767  0.25852  0.33753  1.0000
  C   C60       1.0  0.43230  0.24227  0.32413  1.0000
  C   C61       1.0  0.41444  0.20666  0.30921  1.0000
  H   H60       1.0  0.47913  0.28284  0.36055  1.0000
  N   N24       1.0  0.37981  0.18899  0.30821  1.0000
  H   H61       1.0  0.36617  0.19852  0.32771  1.0000
  C   C62       1.0  0.24760  0.21008  0.37316  1.0000
  C   C63       1.0  0.26492  0.19405  0.40623  1.0000
  C   C64       1.0  0.30073  0.21379  0.41666  1.0000
  H   H62       1.0  0.22194  0.19658  0.37997  1.0000
  N   N25       1.0  0.31661  0.19941  0.46137  1.0000
  C   C65       1.0  0.20658  0.29596  0.31067  1.0000
  C   C66       1.0  0.24228  0.31430  0.32428  1.0000
  C   C67       1.0  0.25891  0.29580  0.34160  1.0000
  H   H63       1.0  0.28340  0.30930  0.36340  1.0000
  H   H64       1.0  0.19793  0.33594  0.32468  1.0000
  H   H65       1.0  0.30429  0.18072  0.50224  1.0000
  C   C68       1.0  0.29980  0.04108  0.35414  1.0000
  C   C69       1.0  0.31866  0.07622  0.37065  1.0000
  C   C70       1.0  0.30073  0.09419  0.38001  1.0000
  H   H66       1.0  0.31290  0.02852  0.36134  1.0000
  N   N26       1.0  0.31763  0.12765  0.40343  1.0000
  C   C71       1.0  0.21468  0.41782  0.41174  1.0000
  C   C72       1.0  0.19507  0.43400  0.40132  1.0000
  C   C73       1.0  0.21158  0.46783  0.37126  1.0000
  N   N27       1.0  0.20030  0.38755  0.45624  1.0000
  H   H67       1.0  0.19811  0.47994  0.37888  1.0000
  H   H68       1.0  0.33963  0.13860  0.43083  1.0000
  C   C74       1.0  0.20257  0.20226  0.58753  1.0000
  H   H69       1.0  0.19298  0.18162  0.53888  1.0000
  H   H70       1.0  0.20225  0.19210  0.65417  1.0000
  H   H71       1.0  0.22862  0.22087  0.57031  1.0000
  C   C75       1.0  0.26232  0.41193  0.35718  1.0000
  C   C76       1.0  0.26057  0.35024  0.32561  1.0000
  N   N28       1.0  0.26853  0.36565  0.40737  1.0000
  C   C77       1.0  0.27179  0.39652  0.42636  1.0000
  C   C78       1.0  0.28008  0.40862  0.51435  1.0000
  O   O9        1.0  0.27645  0.38860  0.57396  1.0000
  O   O10       1.0  0.27613  0.43431  0.54207  1.0000
  C   C79       1.0  0.30737  0.46599  0.54850  1.0000
  C   C80       1.0  0.29953  0.49345  0.58019  1.0000
  H   H72       1.0  0.32002  0.47349  0.48312  1.0000
  H   H73       1.0  0.32447  0.46428  0.59710  1.0000
  H   H74       1.0  0.28242  0.49563  0.53298  1.0000
  H   H75       1.0  0.32286  0.51783  0.58441  1.0000
  H   H76       1.0  0.28764  0.48702  0.64639  1.0000
  C   C81       1.0  0.00206  0.30944  0.58675  1.0000
  H   H77       1.0  0.99297  0.31183  0.52082  1.0000
  H   H78       1.0  0.98705  0.31285  0.63841  1.0000
  H   H79       1.0  0.99866  0.28411  0.59318  1.0000
  C   C82       1.0  0.35438  0.26137  0.36225  1.0000
  C   C83       1.0  0.41495  0.26083  0.32802  1.0000
  N   N29       1.0  0.40709  0.26770  0.41075  1.0000
  C   C84       1.0  0.37932  0.27054  0.43110  1.0000
  C   C85       1.0  0.37544  0.27815  0.51972  1.0000
  O   O11       1.0  0.39151  0.27374  0.57871  1.0000
  O   O12       1.0  0.34585  0.27433  0.54755  1.0000
  C   C86       1.0  0.34552  0.30562  0.55412  1.0000
  C   C87       1.0  0.30992  0.29778  0.58296  1.0000
  H   H80       1.0  0.35147  0.31874  0.48932  1.0000
  H   H81       1.0  0.36383  0.32229  0.60428  1.0000
  H   H82       1.0  0.29121  0.28140  0.53353  1.0000
  H   H83       1.0  0.30909  0.32120  0.58831  1.0000
  H   H84       1.0  0.30346  0.28509  0.64813  1.0000
  C   C88       1.0  0.24772  0.09576  0.37057  1.0000
  C   C89       1.0  0.24932  0.15835  0.39458  1.0000
  N   N30       1.0  0.24646  0.13779  0.46431  1.0000
  C   C90       1.0  0.24385  0.10674  0.45733  1.0000
  C   C91       1.0  0.24417  0.09139  0.53722  1.0000
  O   O13       1.0  0.26940  0.10715  0.58394  1.0000
  O   O14       1.0  0.23198  0.05791  0.53610  1.0000
  C   C92       1.0  0.20928  0.04011  0.60912  1.0000
  C   C93       1.0  0.19684  0.00208  0.59955  1.0000
  H   H85       1.0  0.21831  0.99778  0.59888  1.0000
  C   C94       1.0  0.41608  0.15391  0.32006  1.0000
  C   C95       1.0  0.35439  0.09353  0.35784  1.0000
  N   N31       1.0  0.37506  0.11447  0.42324  1.0000
  C   C96       1.0  0.40569  0.14281  0.41012  1.0000
  C   C97       1.0  0.42031  0.16222  0.48585  1.0000
  O   O15       1.0  0.40606  0.17676  0.51619  1.0000
  O   O16       1.0  0.45413  0.18045  0.48849  1.0000
  C   C98       1.0  0.46825  0.17839  0.57327  1.0000
  C   C99       1.0  0.50702  0.20064  0.56917  1.0000
  H   H86       1.0  0.46181  0.15230  0.58746  1.0000
  H   H87       1.0  0.45898  0.18751  0.62829  1.0000
  H   H88       1.0  0.51717  0.19141  0.51696  1.0000
  H   H89       1.0  0.51807  0.19990  0.63360  1.0000
  H   H90       1.0  0.51413  0.22679  0.55432  1.0000
  C   C100      1.0  0.48768  0.74340  0.31584  1.0000
  C   C101      1.0  0.43284  0.68915  0.29910  1.0000
  C   C102      1.0  0.46884  0.70815  0.29063  1.0000
  N   N32       1.0  0.48360  0.69271  0.24591  1.0000
  H   H91       1.0  0.00554  0.70629  0.21774  1.0000
  H   H92       1.0  0.47010  0.66996  0.22178  1.0000
  H   H93       1.0  0.51399  0.80568  0.23341  1.0000
  H   H94       1.0  0.36712  0.66612  0.28584  1.0000
  C   C103      1.0  0.26372  0.74402  0.34165  1.0000
  C   C104      1.0  0.31874  0.74654  0.37506  1.0000
  C   C105      1.0  0.29988  0.75997  0.33112  1.0000
  C   C106      1.0  0.24395  0.76035  0.32509  1.0000
  C   C107      1.0  0.20860  0.74300  0.30126  1.0000
  N   N33       1.0  0.31621  0.78743  0.27573  1.0000
  N   N34       1.0  0.19325  0.71173  0.26217  1.0000
  H   H95       1.0  0.30373  0.79332  0.23356  1.0000
  H   H96       1.0  0.34055  0.79959  0.26769  1.0000
  H   H97       1.0  0.20672  0.70264  0.23742  1.0000
  H   H98       1.0  0.34077  0.70955  0.46565  1.0000
  C   C108      1.0  0.26415  0.52268  0.33877  1.0000
  C   C109      1.0  0.26540  0.57761  0.35884  1.0000
  C   C110      1.0  0.24842  0.54310  0.32931  1.0000
  C   C111      1.0  0.24606  0.98596  0.34341  1.0000
  C   C112      1.0  0.26112  0.96520  0.32821  1.0000
  C   C113      1.0  0.24744  0.93262  0.37042  1.0000
  N   N35       1.0  0.21848  0.53087  0.28421  1.0000
  N   N36       1.0  0.28779  0.97619  0.27015  1.0000
  H   H99       1.0  0.21019  0.01066  0.24737  1.0000
  H   H100      1.0  0.20851  0.54486  0.27122  1.0000
  H   H101      1.0  0.29882  0.96320  0.25722  1.0000
  H   H102      1.0  0.29341  0.49501  0.22971  1.0000
  H   H103      1.0  0.21059  0.87367  0.46117  1.0000
  H   H104      1.0  0.30785  0.64193  0.39722  1.0000
  N   N37       1.0  0.25577  0.89712  0.27472  1.0000
  C   C114      1.0  0.25699  0.86881  0.25468  1.0000
  H   H105      1.0  0.24841  0.85794  0.19306  1.0000
  N   N38       1.0  0.36301  0.75600  0.27890  1.0000
  C   C115      1.0  0.39282  0.75799  0.25767  1.0000
  H   H106      1.0  0.39509  0.74986  0.19542  1.0000
  N   N39       1.0  0.25128  0.61671  0.30093  1.0000
  C   C116      1.0  0.24997  0.64574  0.30810  1.0000
  H   H107      1.0  0.25577  0.66081  0.25251  1.0000
  H   H108      1.0  0.22214  0.54877  0.00728  1.0000
  N   N40       1.0  0.39546  0.63269  0.25454  1.0000
  C   C117      1.0  0.36692  0.60237  0.26907  1.0000
  H   H109      1.0  0.35169  0.59044  0.21515  1.0000
  C   C118      1.0  0.46768  0.75852  0.33753  1.0000
  C   C119      1.0  0.43230  0.74227  0.32413  1.0000
  C   C120      1.0  0.41444  0.70666  0.30921  1.0000
  H   H110      1.0  0.47913  0.78284  0.36055  1.0000
  N   N41       1.0  0.37981  0.68898  0.30822  1.0000
  H   H111      1.0  0.36617  0.69852  0.32771  1.0000
  C   C121      1.0  0.24760  0.71009  0.37316  1.0000
  C   C122      1.0  0.26492  0.69405  0.40623  1.0000
  C   C123      1.0  0.30073  0.71379  0.41666  1.0000
  H   H112      1.0  0.22194  0.69658  0.37997  1.0000
  N   N42       1.0  0.31661  0.69941  0.46137  1.0000
  C   C124      1.0  0.20658  0.79596  0.31067  1.0000
  C   C125      1.0  0.24228  0.81430  0.32428  1.0000
  C   C126      1.0  0.25891  0.79580  0.34160  1.0000
  H   H113      1.0  0.28340  0.80930  0.36340  1.0000
  H   H114      1.0  0.19793  0.83594  0.32468  1.0000
  H   H115      1.0  0.30429  0.68073  0.50224  1.0000
  C   C127      1.0  0.29980  0.54108  0.35415  1.0000
  C   C128      1.0  0.31866  0.57621  0.37065  1.0000
  C   C129      1.0  0.30073  0.59419  0.38002  1.0000
  H   H116      1.0  0.31290  0.52852  0.36134  1.0000
  N   N43       1.0  0.31763  0.62765  0.40344  1.0000
  C   C130      1.0  0.21468  0.91782  0.41174  1.0000
  C   C131      1.0  0.19507  0.93400  0.40132  1.0000
  C   C132      1.0  0.21158  0.96782  0.37126  1.0000
  N   N44       1.0  0.20030  0.88754  0.45624  1.0000
  H   H117      1.0  0.19811  0.97994  0.37888  1.0000
  H   H118      1.0  0.33963  0.63860  0.43083  1.0000
  C   C133      1.0  0.20257  0.70226  0.58753  1.0000
  H   H119      1.0  0.19298  0.68162  0.53888  1.0000
  H   H120      1.0  0.20225  0.69210  0.65417  1.0000
  H   H121      1.0  0.22862  0.72087  0.57031  1.0000
  C   C134      1.0  0.26232  0.91193  0.35718  1.0000
  C   C135      1.0  0.26057  0.85024  0.32561  1.0000
  N   N45       1.0  0.26853  0.86565  0.40737  1.0000
  C   C136      1.0  0.27179  0.89652  0.42636  1.0000
  C   C137      1.0  0.28008  0.90862  0.51435  1.0000
  O   O17       1.0  0.27645  0.88860  0.57396  1.0000
  O   O18       1.0  0.27613  0.93431  0.54207  1.0000
  C   C138      1.0  0.30737  0.96599  0.54850  1.0000
  C   C139      1.0  0.29953  0.99346  0.58019  1.0000
  H   H122      1.0  0.32002  0.97349  0.48312  1.0000
  H   H123      1.0  0.32447  0.96428  0.59710  1.0000
  H   H124      1.0  0.28242  0.99563  0.53298  1.0000
  H   H125      1.0  0.32286  0.01783  0.58441  1.0000
  H   H126      1.0  0.28764  0.98702  0.64639  1.0000
  C   C140      1.0  0.00206  0.80944  0.58675  1.0000
  H   H127      1.0  0.99297  0.81183  0.52082  1.0000
  H   H128      1.0  0.98705  0.81286  0.63841  1.0000
  H   H129      1.0  0.99866  0.78410  0.59318  1.0000
  C   C141      1.0  0.35438  0.76137  0.36225  1.0000
  C   C142      1.0  0.41495  0.76084  0.32803  1.0000
  N   N46       1.0  0.40709  0.76770  0.41075  1.0000
  C   C143      1.0  0.37932  0.77054  0.43110  1.0000
  C   C144      1.0  0.37544  0.77815  0.51972  1.0000
  O   O19       1.0  0.39151  0.77374  0.57871  1.0000
  O   O20       1.0  0.34585  0.77433  0.54755  1.0000
  C   C145      1.0  0.34552  0.80562  0.55412  1.0000
  C   C146      1.0  0.30992  0.79778  0.58296  1.0000
  H   H130      1.0  0.35147  0.81874  0.48932  1.0000
  H   H131      1.0  0.36383  0.82229  0.60427  1.0000
  H   H132      1.0  0.29121  0.78140  0.53353  1.0000
  H   H133      1.0  0.30909  0.82120  0.58831  1.0000
  H   H134      1.0  0.30346  0.78509  0.64813  1.0000
  C   C147      1.0  0.24772  0.59576  0.37057  1.0000
  C   C148      1.0  0.24932  0.65835  0.39458  1.0000
  N   N47       1.0  0.24646  0.63779  0.46431  1.0000
  C   C149      1.0  0.24385  0.60674  0.45733  1.0000
  C   C150      1.0  0.24417  0.59139  0.53722  1.0000
  O   O21       1.0  0.26940  0.60715  0.58394  1.0000
  O   O22       1.0  0.23198  0.55792  0.53611  1.0000
  C   C151      1.0  0.20928  0.54011  0.60912  1.0000
  C   C152      1.0  0.19684  0.50208  0.59955  1.0000
  H   H135      1.0  0.21831  0.49778  0.59888  1.0000
  C   C153      1.0  0.41608  0.65391  0.32007  1.0000
  C   C154      1.0  0.35439  0.59353  0.35784  1.0000
  N   N48       1.0  0.37506  0.61447  0.42324  1.0000
  C   C155      1.0  0.40568  0.64281  0.41012  1.0000
  C   C156      1.0  0.42031  0.66222  0.48585  1.0000
  O   O23       1.0  0.40606  0.67676  0.51619  1.0000
  O   O24       1.0  0.45413  0.68045  0.48849  1.0000
  C   C157      1.0  0.46825  0.67839  0.57327  1.0000
  C   C158      1.0  0.50702  0.70064  0.56917  1.0000
  H   H136      1.0  0.46181  0.65230  0.58746  1.0000
  H   H137      1.0  0.45898  0.68751  0.62829  1.0000
  H   H138      1.0  0.51717  0.69141  0.51696  1.0000
  H   H139      1.0  0.51807  0.69990  0.63360  1.0000
  H   H140      1.0  0.51413  0.72679  0.55432  1.0000
  C   C159      1.0  0.98768  0.24340  0.31584  1.0000
  C   C160      1.0  0.93284  0.18915  0.29910  1.0000
  C   C161      1.0  0.96884  0.20815  0.29063  1.0000
  C   C162      1.0  0.52416  0.26268  0.32755  1.0000
  C   C163      1.0  0.54460  0.29901  0.32081  1.0000
  C   C164      1.0  0.57841  0.31658  0.35596  1.0000
  N   N49       1.0  0.98360  0.19271  0.24591  1.0000
  N   N50       1.0  0.53324  0.31706  0.27358  1.0000
  H   H141      1.0  0.50553  0.20629  0.21774  1.0000
  H   H142      1.0  0.97010  0.16996  0.22178  1.0000
  H   H143      1.0  0.54712  0.34126  0.26390  1.0000
  H   H144      1.0  0.64254  0.33840  0.39570  1.0000
  H   H145      1.0  0.86712  0.16613  0.28583  1.0000
  C   C165      1.0  0.76372  0.24402  0.34165  1.0000
  C   C166      1.0  0.81874  0.24654  0.37506  1.0000
  C   C167      1.0  0.79988  0.25997  0.33112  1.0000
  C   C168      1.0  0.74396  0.26035  0.32509  1.0000
  C   C169      1.0  0.70860  0.24300  0.30126  1.0000
  C   C170      1.0  0.68940  0.25988  0.30528  1.0000
  N   N51       1.0  0.81621  0.28743  0.27573  1.0000
  N   N52       1.0  0.69325  0.21173  0.26217  1.0000
  H   H146      1.0  0.80373  0.29332  0.23356  1.0000
  H   H147      1.0  0.84055  0.29959  0.26769  1.0000
  H   H148      1.0  0.67028  0.20151  0.23893  1.0000
  H   H149      1.0  0.70673  0.20264  0.23742  1.0000
  H   H150      1.0  0.66540  0.30173  0.28714  1.0000
  H   H151      1.0  0.84077  0.20955  0.46564  1.0000
  C   C171      1.0  0.76415  0.02268  0.33876  1.0000
  C   C172      1.0  0.76540  0.07761  0.35883  1.0000
  C   C173      1.0  0.74842  0.04310  0.32931  1.0000
  C   C174      1.0  0.74606  0.48596  0.34341  1.0000
  C   C175      1.0  0.76112  0.46520  0.32821  1.0000
  C   C176      1.0  0.74744  0.43262  0.37042  1.0000
  N   N53       1.0  0.71848  0.03087  0.28421  1.0000
  N   N54       1.0  0.78779  0.47619  0.27015  1.0000
  H   H152      1.0  0.71020  0.51066  0.24737  1.0000
  H   H153      1.0  0.70851  0.04486  0.27122  1.0000
  H   H154      1.0  0.79882  0.46320  0.25722  1.0000
  H   H155      1.0  0.79341  0.99501  0.22971  1.0000
  H   H156      1.0  0.71059  0.37367  0.46117  1.0000
  H   H157      1.0  0.80785  0.14193  0.39722  1.0000
  N   N55       1.0  0.63256  0.23950  0.26119  1.0000
  C   C177      1.0  0.60236  0.23799  0.27546  1.0000
  H   H158      1.0  0.58982  0.23991  0.22085  1.0000
  N   N56       1.0  0.75577  0.39712  0.27472  1.0000
  C   C178      1.0  0.75699  0.36881  0.25468  1.0000
  H   H159      1.0  0.74841  0.35794  0.19306  1.0000
  N   N57       1.0  0.61783  0.36978  0.29610  1.0000
  C   C179      1.0  0.64682  0.40021  0.30277  1.0000
  H   H160      1.0  0.66194  0.40929  0.24720  1.0000
  N   N58       1.0  0.86301  0.25600  0.27890  1.0000
  C   C180      1.0  0.89282  0.25799  0.25767  1.0000
  H   H161      1.0  0.89509  0.24986  0.19542  1.0000
  N   N59       1.0  0.75128  0.11671  0.30093  1.0000
  C   C181      1.0  0.74997  0.14574  0.30810  1.0000
  H   H162      1.0  0.75577  0.16081  0.25251  1.0000
  H   H163      1.0  0.72214  0.04877  0.00728  1.0000
  N   N60       1.0  0.89546  0.13269  0.25454  1.0000
  C   C182      1.0  0.86693  0.10237  0.26907  1.0000
  H   H164      1.0  0.85169  0.09044  0.21514  1.0000
  C   C183      1.0  0.96768  0.25852  0.33753  1.0000
  C   C184      1.0  0.93230  0.24227  0.32413  1.0000
  C   C185      1.0  0.91444  0.20666  0.30921  1.0000
  H   H165      1.0  0.97913  0.28284  0.36055  1.0000
  N   N61       1.0  0.87981  0.18899  0.30821  1.0000
  C   C186      1.0  0.59466  0.29783  0.38107  1.0000
  C   C187      1.0  0.57674  0.26185  0.37361  1.0000
  C   C188      1.0  0.54207  0.24566  0.35140  1.0000
  N   N62       1.0  0.62801  0.31457  0.40572  1.0000
  H   H166      1.0  0.52928  0.22001  0.35874  1.0000
  H   H167      1.0  0.63889  0.30389  0.43537  1.0000
  H   H168      1.0  0.86617  0.19852  0.32771  1.0000
  C   C189      1.0  0.74760  0.21008  0.37316  1.0000
  C   C190      1.0  0.76492  0.19405  0.40623  1.0000
  C   C191      1.0  0.80073  0.21379  0.41666  1.0000
  H   H169      1.0  0.72194  0.19658  0.37997  1.0000
  N   N63       1.0  0.81661  0.19941  0.46137  1.0000
  C   C192      1.0  0.70658  0.29596  0.31067  1.0000
  C   C193      1.0  0.74228  0.31430  0.32428  1.0000
  C   C194      1.0  0.75891  0.29580  0.34160  1.0000
  N   N64       1.0  0.68856  0.31255  0.30737  1.0000
  H   H170      1.0  0.78340  0.30930  0.36340  1.0000
  H   H171      1.0  0.69793  0.33594  0.32468  1.0000
  H   H172      1.0  0.80429  0.18072  0.50224  1.0000
  C   C195      1.0  0.79980  0.04108  0.35414  1.0000
  C   C196      1.0  0.81866  0.07622  0.37065  1.0000
  C   C197      1.0  0.80073  0.09419  0.38001  1.0000
  H   H173      1.0  0.81291  0.02852  0.36134  1.0000
  N   N65       1.0  0.81763  0.12765  0.40343  1.0000
  C   C198      1.0  0.71468  0.41782  0.41174  1.0000
  C   C199      1.0  0.69507  0.43400  0.40132  1.0000
  C   C200      1.0  0.71158  0.46783  0.37126  1.0000
  N   N66       1.0  0.70030  0.38755  0.45624  1.0000
  H   H174      1.0  0.69811  0.47994  0.37888  1.0000
  H   H175      1.0  0.68148  0.38108  0.49676  1.0000
  H   H176      1.0  0.83963  0.13860  0.43083  1.0000
  C   C201      1.0  0.65423  0.24150  0.32714  1.0000
  C   C202      1.0  0.59417  0.24342  0.36332  1.0000
  N   N67       1.0  0.61545  0.24472  0.42916  1.0000
  C   C203      1.0  0.64375  0.24229  0.41708  1.0000
  C   C204      1.0  0.66362  0.24836  0.49265  1.0000
  O   O25       1.0  0.67822  0.27783  0.51804  1.0000
  O   O26       1.0  0.68167  0.23270  0.49906  1.0000
  C   C205      1.0  0.68040  0.21889  0.58702  1.0000
  C   C206      1.0  0.70257  0.20226  0.58753  1.0000
  H   H177      1.0  0.65444  0.19972  0.60428  1.0000
  H   H178      1.0  0.69004  0.23874  0.63837  1.0000
  H   H179      1.0  0.69298  0.18162  0.53888  1.0000
  H   H180      1.0  0.70225  0.19210  0.65417  1.0000
  H   H181      1.0  0.72862  0.22087  0.57031  1.0000
  C   C207      1.0  0.76232  0.41193  0.35718  1.0000
  C   C208      1.0  0.76057  0.35024  0.32561  1.0000
  N   N68       1.0  0.76853  0.36565  0.40737  1.0000
  C   C209      1.0  0.77179  0.39652  0.42636  1.0000
  C   C210      1.0  0.78008  0.40862  0.51435  1.0000
  O   O27       1.0  0.77645  0.38860  0.57396  1.0000
  O   O28       1.0  0.77613  0.43431  0.54207  1.0000
  C   C211      1.0  0.80737  0.46599  0.54850  1.0000
  C   C212      1.0  0.79953  0.49345  0.58019  1.0000
  H   H182      1.0  0.82002  0.47349  0.48312  1.0000
  H   H183      1.0  0.82447  0.46428  0.59710  1.0000
  H   H184      1.0  0.78242  0.49563  0.53298  1.0000
  H   H185      1.0  0.82286  0.51783  0.58441  1.0000
  H   H186      1.0  0.78764  0.48702  0.64639  1.0000
  C   C213      1.0  0.59689  0.35255  0.36586  1.0000
  C   C214      1.0  0.65939  0.41403  0.38882  1.0000
  N   N69       1.0  0.63874  0.39651  0.45871  1.0000
  C   C215      1.0  0.60778  0.36787  0.45229  1.0000
  C   C216      1.0  0.59210  0.35279  0.53271  1.0000
  O   O29       1.0  0.60844  0.34503  0.58259  1.0000
  O   O30       1.0  0.55885  0.33067  0.53006  1.0000
  C   C217      1.0  0.53966  0.33629  0.59767  1.0000
  C   C218      1.0  0.50206  0.30944  0.58675  1.0000
  H   H187      1.0  0.54241  0.36140  0.59030  1.0000
  H   H188      1.0  0.54785  0.33399  0.66518  1.0000
  H   H189      1.0  0.49297  0.31183  0.52082  1.0000
  H   H190      1.0  0.48705  0.31285  0.63841  1.0000
  H   H191      1.0  0.49866  0.28411  0.59318  1.0000
  C   C219      1.0  0.85438  0.26137  0.36225  1.0000
  C   C220      1.0  0.91495  0.26083  0.32802  1.0000
  N   N70       1.0  0.90709  0.26770  0.41075  1.0000
  C   C221      1.0  0.87933  0.27054  0.43110  1.0000
  C   C222      1.0  0.87544  0.27815  0.51972  1.0000
  O   O31       1.0  0.89151  0.27374  0.57871  1.0000
  O   O32       1.0  0.84585  0.27433  0.54755  1.0000
  C   C223      1.0  0.84552  0.30562  0.55412  1.0000
  C   C224      1.0  0.80992  0.29778  0.58296  1.0000
  H   H192      1.0  0.85147  0.31874  0.48932  1.0000
  H   H193      1.0  0.86383  0.32229  0.60428  1.0000
  H   H194      1.0  0.79121  0.28140  0.53353  1.0000
  H   H195      1.0  0.80909  0.32120  0.58831  1.0000
  H   H196      1.0  0.80346  0.28509  0.64813  1.0000
  C   C225      1.0  0.74772  0.09576  0.37057  1.0000
  C   C226      1.0  0.74932  0.15835  0.39458  1.0000
  N   N71       1.0  0.74647  0.13779  0.46431  1.0000
  C   C227      1.0  0.74385  0.10674  0.45733  1.0000
  C   C228      1.0  0.74417  0.09139  0.53722  1.0000
  O   O33       1.0  0.76940  0.10715  0.58394  1.0000
  O   O34       1.0  0.73198  0.05791  0.53610  1.0000
  C   C229      1.0  0.70928  0.04011  0.60912  1.0000
  C   C230      1.0  0.69684  0.00208  0.59955  1.0000
  H   H197      1.0  0.68735  0.04377  0.60788  1.0000
  H   H198      1.0  0.68265  0.99246  0.53714  1.0000
  H   H199      1.0  0.68037  0.98822  0.65583  1.0000
  H   H200      1.0  0.71831  0.99778  0.59888  1.0000
  C   C231      1.0  0.91608  0.15391  0.32006  1.0000
  C   C232      1.0  0.85439  0.09353  0.35784  1.0000
  N   N72       1.0  0.87506  0.11447  0.42324  1.0000
  C   C233      1.0  0.90568  0.14281  0.41012  1.0000
  C   C234      1.0  0.92031  0.16222  0.48585  1.0000
  O   O35       1.0  0.90606  0.17676  0.51619  1.0000
  O   O36       1.0  0.95413  0.18045  0.48849  1.0000
  C   C235      1.0  0.96826  0.17839  0.57327  1.0000
  H   H201      1.0  0.96181  0.15230  0.58746  1.0000
  H   H202      1.0  0.95898  0.18751  0.62829  1.0000
  C   C236      1.0  0.98767  0.74340  0.31584  1.0000
  C   C237      1.0  0.93284  0.68915  0.29910  1.0000
  C   C238      1.0  0.96884  0.70815  0.29063  1.0000
  C   C239      1.0  0.52416  0.76268  0.32755  1.0000
  C   C240      1.0  0.54460  0.79901  0.32081  1.0000
  C   C241      1.0  0.57841  0.81658  0.35596  1.0000
  N   N73       1.0  0.98360  0.69271  0.24591  1.0000
  N   N74       1.0  0.53324  0.81706  0.27358  1.0000
  H   H203      1.0  0.50553  0.70629  0.21774  1.0000
  H   H204      1.0  0.97010  0.66996  0.22178  1.0000
  H   H205      1.0  0.54712  0.84126  0.26390  1.0000
  H   H206      1.0  0.64254  0.83840  0.39570  1.0000
  H   H207      1.0  0.86712  0.66612  0.28584  1.0000
  C   C242      1.0  0.76372  0.74402  0.34165  1.0000
  C   C243      1.0  0.81874  0.74654  0.37506  1.0000
  C   C244      1.0  0.79988  0.75997  0.33112  1.0000
  C   C245      1.0  0.74395  0.76035  0.32509  1.0000
  C   C246      1.0  0.70860  0.74300  0.30126  1.0000
  C   C247      1.0  0.68939  0.75988  0.30528  1.0000
  N   N75       1.0  0.81621  0.78743  0.27573  1.0000
  N   N76       1.0  0.69325  0.71173  0.26217  1.0000
  H   H208      1.0  0.80373  0.79332  0.23356  1.0000
  H   H209      1.0  0.84056  0.79959  0.26769  1.0000
  H   H210      1.0  0.67028  0.70151  0.23893  1.0000
  H   H211      1.0  0.70673  0.70264  0.23742  1.0000
  H   H212      1.0  0.66539  0.80173  0.28714  1.0000
  H   H213      1.0  0.84077  0.70955  0.46565  1.0000
  C   C248      1.0  0.76415  0.52268  0.33877  1.0000
  C   C249      1.0  0.76540  0.57761  0.35884  1.0000
  C   C250      1.0  0.74842  0.54310  0.32931  1.0000
  C   C251      1.0  0.74606  0.98596  0.34341  1.0000
  C   C252      1.0  0.76112  0.96520  0.32821  1.0000
  C   C253      1.0  0.74744  0.93262  0.37042  1.0000
  N   N77       1.0  0.71848  0.53087  0.28421  1.0000
  N   N78       1.0  0.78780  0.97619  0.27015  1.0000
  H   H214      1.0  0.71019  0.01066  0.24737  1.0000
  H   H215      1.0  0.70851  0.54486  0.27122  1.0000
  H   H216      1.0  0.79882  0.96320  0.25722  1.0000
  H   H217      1.0  0.79341  0.49501  0.22971  1.0000
  H   H218      1.0  0.71060  0.87367  0.46117  1.0000
  H   H219      1.0  0.80785  0.64193  0.39722  1.0000
  N   N79       1.0  0.63256  0.73950  0.26119  1.0000
  C   C254      1.0  0.60236  0.73799  0.27546  1.0000
  H   H220      1.0  0.58982  0.73991  0.22085  1.0000
  N   N80       1.0  0.75577  0.89712  0.27472  1.0000
  C   C255      1.0  0.75699  0.86881  0.25468  1.0000
  H   H221      1.0  0.74841  0.85794  0.19306  1.0000
  N   N81       1.0  0.61783  0.86977  0.29610  1.0000
  C   C256      1.0  0.64682  0.90021  0.30277  1.0000
  H   H222      1.0  0.66194  0.90929  0.24720  1.0000
  N   N82       1.0  0.86300  0.75600  0.27890  1.0000
  C   C257      1.0  0.89282  0.75799  0.25767  1.0000
  H   H223      1.0  0.89509  0.74986  0.19542  1.0000
  N   N83       1.0  0.75128  0.61671  0.30093  1.0000
  C   C258      1.0  0.74997  0.64574  0.30810  1.0000
  H   H224      1.0  0.75577  0.66081  0.25251  1.0000
  H   H225      1.0  0.72214  0.54877  0.00728  1.0000
  N   N84       1.0  0.89546  0.63269  0.25454  1.0000
  C   C259      1.0  0.86692  0.60237  0.26907  1.0000
  H   H226      1.0  0.85169  0.59044  0.21515  1.0000
  C   C260      1.0  0.96768  0.75852  0.33753  1.0000
  C   C261      1.0  0.93230  0.74227  0.32413  1.0000
  C   C262      1.0  0.91444  0.70666  0.30921  1.0000
  H   H227      1.0  0.97913  0.78284  0.36055  1.0000
  N   N85       1.0  0.87981  0.68898  0.30822  1.0000
  C   C263      1.0  0.59465  0.79783  0.38107  1.0000
  C   C264      1.0  0.57674  0.76185  0.37361  1.0000
  C   C265      1.0  0.54207  0.74566  0.35140  1.0000
  N   N86       1.0  0.62801  0.81457  0.40572  1.0000
  H   H228      1.0  0.52928  0.72001  0.35874  1.0000
  H   H229      1.0  0.63889  0.80388  0.43537  1.0000
  H   H230      1.0  0.86617  0.69852  0.32771  1.0000
  C   C266      1.0  0.74760  0.71009  0.37316  1.0000
  C   C267      1.0  0.76492  0.69405  0.40623  1.0000
  C   C268      1.0  0.80073  0.71379  0.41666  1.0000
  H   H231      1.0  0.72195  0.69658  0.37997  1.0000
  N   N87       1.0  0.81661  0.69941  0.46137  1.0000
  C   C269      1.0  0.70658  0.79596  0.31067  1.0000
  C   C270      1.0  0.74228  0.81430  0.32428  1.0000
  C   C271      1.0  0.75891  0.79580  0.34160  1.0000
  N   N88       1.0  0.68856  0.81256  0.30737  1.0000
  H   H232      1.0  0.78340  0.80930  0.36340  1.0000
  H   H233      1.0  0.69793  0.83594  0.32468  1.0000
  H   H234      1.0  0.80429  0.68073  0.50224  1.0000
  C   C272      1.0  0.79980  0.54108  0.35415  1.0000
  C   C273      1.0  0.81866  0.57621  0.37065  1.0000
  C   C274      1.0  0.80073  0.59419  0.38002  1.0000
  H   H235      1.0  0.81290  0.52852  0.36134  1.0000
  N   N89       1.0  0.81763  0.62765  0.40344  1.0000
  C   C275      1.0  0.71468  0.91782  0.41174  1.0000
  C   C276      1.0  0.69507  0.93400  0.40132  1.0000
  C   C277      1.0  0.71158  0.96782  0.37126  1.0000
  N   N90       1.0  0.70030  0.88754  0.45624  1.0000
  H   H236      1.0  0.69811  0.97994  0.37888  1.0000
  H   H237      1.0  0.68148  0.88109  0.49676  1.0000
  H   H238      1.0  0.83963  0.63860  0.43083  1.0000
  C   C278      1.0  0.65423  0.74150  0.32714  1.0000
  C   C279      1.0  0.59417  0.74342  0.36332  1.0000
  N   N91       1.0  0.61545  0.74472  0.42916  1.0000
  C   C280      1.0  0.64375  0.74229  0.41708  1.0000
  C   C281      1.0  0.66362  0.74836  0.49265  1.0000
  O   O37       1.0  0.67822  0.77783  0.51804  1.0000
  O   O38       1.0  0.68166  0.73270  0.49906  1.0000
  C   C282      1.0  0.68040  0.71889  0.58702  1.0000
  C   C283      1.0  0.70257  0.70226  0.58753  1.0000
  H   H239      1.0  0.65444  0.69972  0.60428  1.0000
  H   H240      1.0  0.69004  0.73874  0.63837  1.0000
  H   H241      1.0  0.69298  0.68162  0.53888  1.0000
  H   H242      1.0  0.70225  0.69210  0.65417  1.0000
  H   H243      1.0  0.72862  0.72087  0.57031  1.0000
  C   C284      1.0  0.76232  0.91193  0.35718  1.0000
  C   C285      1.0  0.76057  0.85024  0.32561  1.0000
  N   N92       1.0  0.76853  0.86565  0.40737  1.0000
  C   C286      1.0  0.77179  0.89652  0.42636  1.0000
  C   C287      1.0  0.78008  0.90862  0.51435  1.0000
  O   O39       1.0  0.77645  0.88860  0.57396  1.0000
  O   O40       1.0  0.77613  0.93431  0.54207  1.0000
  C   C288      1.0  0.80737  0.96599  0.54850  1.0000
  C   C289      1.0  0.79953  0.99346  0.58019  1.0000
  H   H244      1.0  0.82002  0.97349  0.48312  1.0000
  H   H245      1.0  0.82447  0.96428  0.59710  1.0000
  H   H246      1.0  0.78242  0.99563  0.53298  1.0000
  H   H247      1.0  0.82286  0.01783  0.58441  1.0000
  H   H248      1.0  0.78764  0.98702  0.64639  1.0000
  C   C290      1.0  0.59689  0.85255  0.36586  1.0000
  C   C291      1.0  0.65939  0.91403  0.38882  1.0000
  N   N93       1.0  0.63874  0.89651  0.45871  1.0000
  C   C292      1.0  0.60778  0.86787  0.45229  1.0000
  C   C293      1.0  0.59210  0.85279  0.53271  1.0000
  O   O41       1.0  0.60844  0.84503  0.58259  1.0000
  O   O42       1.0  0.55885  0.83067  0.53006  1.0000
  C   C294      1.0  0.53966  0.83629  0.59767  1.0000
  C   C295      1.0  0.50206  0.80944  0.58675  1.0000
  H   H249      1.0  0.54241  0.86140  0.59030  1.0000
  H   H250      1.0  0.54785  0.83399  0.66518  1.0000
  H   H251      1.0  0.49297  0.81183  0.52082  1.0000
  H   H252      1.0  0.48705  0.81286  0.63841  1.0000
  H   H253      1.0  0.49866  0.78410  0.59318  1.0000
  C   C296      1.0  0.85438  0.76137  0.36225  1.0000
  C   C297      1.0  0.91495  0.76084  0.32803  1.0000
  N   N94       1.0  0.90709  0.76770  0.41075  1.0000
  C   C298      1.0  0.87932  0.77054  0.43110  1.0000
  C   C299      1.0  0.87544  0.77815  0.51972  1.0000
  O   O43       1.0  0.89151  0.77374  0.57871  1.0000
  O   O44       1.0  0.84585  0.77433  0.54755  1.0000
  C   C300      1.0  0.84552  0.80562  0.55412  1.0000
  C   C301      1.0  0.80992  0.79778  0.58296  1.0000
  H   H254      1.0  0.85147  0.81874  0.48932  1.0000
  H   H255      1.0  0.86383  0.82229  0.60427  1.0000
  H   H256      1.0  0.79121  0.78140  0.53353  1.0000
  H   H257      1.0  0.80909  0.82120  0.58831  1.0000
  H   H258      1.0  0.80346  0.78509  0.64813  1.0000
  C   C302      1.0  0.74772  0.59576  0.37057  1.0000
  C   C303      1.0  0.74932  0.65835  0.39458  1.0000
  N   N95       1.0  0.74647  0.63779  0.46431  1.0000
  C   C304      1.0  0.74385  0.60674  0.45733  1.0000
  C   C305      1.0  0.74418  0.59139  0.53722  1.0000
  O   O45       1.0  0.76940  0.60715  0.58394  1.0000
  O   O46       1.0  0.73198  0.55792  0.53611  1.0000
  C   C306      1.0  0.70928  0.54011  0.60912  1.0000
  C   C307      1.0  0.69684  0.50208  0.59955  1.0000
  H   H259      1.0  0.68735  0.54377  0.60788  1.0000
  H   H260      1.0  0.68265  0.49246  0.53714  1.0000
  H   H261      1.0  0.68037  0.48822  0.65583  1.0000
  H   H262      1.0  0.71831  0.49778  0.59888  1.0000
  C   C308      1.0  0.91608  0.65391  0.32007  1.0000
  C   C309      1.0  0.85439  0.59353  0.35784  1.0000
  N   N96       1.0  0.87506  0.61447  0.42324  1.0000
  C   C310      1.0  0.90569  0.64281  0.41012  1.0000
  C   C311      1.0  0.92031  0.66222  0.48585  1.0000
  O   O47       1.0  0.90606  0.67676  0.51619  1.0000
  O   O48       1.0  0.95413  0.68045  0.48849  1.0000
  C   C312      1.0  0.96825  0.67839  0.57327  1.0000
  H   H263      1.0  0.96181  0.65230  0.58746  1.0000
  H   H264      1.0  0.95898  0.68751  0.62829  1.0000
