data_image0
_chemical_formula_structural       C4OHOHC4OHOHC4OHOHC4OHOHC4OHOHC4OHOHC2O2H2C2O2H2C2O2H2C2O2H2C2O2H2C2O2H2C2O2H2C2O2H2C2O2H2C2O2H2C2O2H2C2O2H2C4OHOHC4OHOHC4OHOHC4OHOHC4OHOHC4OHOHC2O2H2C2O2H2C2O2H2C2O2H2C2O2H2C2O2H2C2O2H2C2O2H2C2O2H2C2O2H2C2O2H2C2O2H2C4OHOHC4OHOHC4OHOHC4OHOHC4OHOHC4OHOHC2O2H2C2O2H2C2O2H2C2O2H2C2O2H2C2O2H2C4OHOHC4OHOHC4OHOHC4OHOHC4OHOHC4OHOHCNCNCNCNCNCNCNCNCNCNCNCNCNCNCNCNCNCNCNCNCNCNCNCNCNCNCNCNCNCNCNCNCNCNCNCNCNCNCNCNCNCNCNCNCNCNCNCNCNCNCNCNCNCNCNCNCNCNCNCNCNCNCNCNCNCNCNCNCNCNCNCNCNCNCNCNCNCNCNCNCNCNCNCNCNCNCNCNCNCNCNCNCNCNCNCNCNCNCNCNCNCNCNCNCNCNCNCNC2O2H2C2O2H2C2O2H2C2O2H2C2O2H2C2O2H2C4OHOHC4OHOHC4OHOHC4OHOHC4OHOHC4OHOHC4OHOHC4OHOHC4OHOHC4OHOHC4OHOHC4OHOHC2O2H2C2O2H2C2O2H2C2O2H2C2O2H2C2O2H2C4OHOHC4OHOHC4OHOHC4OHOHC4OHOHC4OHOHC4OHOHC4OHOHC4OHOHC4OHOHC4OHOHC4OHOHC2O2H2C2O2H2C2O2H2C2O2H2C2O2H2C2O2H2C4OHOHC4OHOHC4OHOHC4OHOHC4OHOHC4OHOHC2O2H2C2O2H2C2O2H2C2O2H2C2O2H2C2O2H2
_chemical_formula_sum              "C432 O216 H216 N108"
_cell_length_a       67.1857
_cell_length_b       67.1857
_cell_length_c       14.9108
_cell_angle_alpha    90
_cell_angle_beta     90
_cell_angle_gamma    120

_space_group_name_H-M_alt    "P 1"
_space_group_IT_number       1

loop_
  _space_group_symop_operation_xyz
  'x, y, z'

loop_
  _atom_site_type_symbol
  _atom_site_label
  _atom_site_symmetry_multiplicity
  _atom_site_fract_x
  _atom_site_fract_y
  _atom_site_fract_z
  _atom_site_occupancy
  C   C1        1.0  0.14365  0.37002  0.23763  1.0000
  C   C2        1.0  0.15988  0.36623  0.19071  1.0000
  C   C3        1.0  0.15935  0.34505  0.19632  1.0000
  C   C4        1.0  0.14246  0.32662  0.24821  1.0000
  O   O1        1.0  0.17525  0.34230  0.14884  1.0000
  H   H1        1.0  0.19015  0.35130  0.17936  1.0000
  O   O2        1.0  0.17611  0.38288  0.13663  1.0000
  H   H2        1.0  0.19111  0.38865  0.16623  1.0000
  C   C5        1.0  0.63972  0.77175  0.23791  1.0000
  C   C6        1.0  0.64709  0.79254  0.18969  1.0000
  C   C7        1.0  0.66927  0.81165  0.20228  1.0000
  C   C8        1.0  0.68485  0.81088  0.26420  1.0000
  O   O3        1.0  0.67533  0.83156  0.15683  1.0000
  H   H3        1.0  0.66772  0.83902  0.18684  1.0000
  O   O4        1.0  0.63299  0.79442  0.12849  1.0000
  H   H4        1.0  0.62835  0.80499  0.15402  1.0000
  C   C9        1.0  0.23341  0.86530  0.25121  1.0000
  C   C10       1.0  0.21466  0.84840  0.20073  1.0000
  C   C11       1.0  0.19360  0.84816  0.19627  1.0000
  C   C12       1.0  0.19015  0.86454  0.24390  1.0000
  O   O5        1.0  0.17669  0.83199  0.14284  1.0000
  H   H5        1.0  0.17099  0.81696  0.17206  1.0000
  O   O6        1.0  0.21699  0.83224  0.15330  1.0000
  H   H6        1.0  0.20815  0.81749  0.18499  1.0000
  C   C13       1.0  0.86625  0.63759  0.24837  1.0000
  C   C14       1.0  0.84920  0.63933  0.19853  1.0000
  C   C15       1.0  0.84884  0.66009  0.19479  1.0000
  C   C16       1.0  0.86524  0.67990  0.24239  1.0000
  O   O7        1.0  0.83249  0.66079  0.14233  1.0000
  H   H7        1.0  0.81754  0.65136  0.17198  1.0000
  O   O8        1.0  0.83303  0.62083  0.15120  1.0000
  H   H8        1.0  0.81831  0.61487  0.18318  1.0000
  C   C17       1.0  0.37169  0.22973  0.23221  1.0000
  C   C18       1.0  0.36787  0.20962  0.18593  1.0000
  C   C19       1.0  0.34669  0.18897  0.19211  1.0000
  C   C20       1.0  0.32830  0.18755  0.24394  1.0000
  O   O9        1.0  0.34391  0.17027  0.14501  1.0000
  H   H9        1.0  0.35295  0.16442  0.17561  1.0000
  O   O10       1.0  0.38449  0.20994  0.13193  1.0000
  H   H10       1.0  0.39030  0.20080  0.16186  1.0000
  C   C21       1.0  0.77774  0.14391  0.23856  1.0000
  C   C22       1.0  0.79745  0.16056  0.19131  1.0000
  C   C23       1.0  0.81827  0.16028  0.19362  1.0000
  C   C24       1.0  0.82030  0.14333  0.24314  1.0000
  O   O11       1.0  0.83645  0.17643  0.14489  1.0000
  H   H11       1.0  0.84230  0.19128  0.17576  1.0000
  O   O12       1.0  0.79648  0.17691  0.13980  1.0000
  H   H12       1.0  0.80553  0.19177  0.17058  1.0000
  C   C25       1.0  0.33073  0.11324  0.33465  1.0000
  C   C26       1.0  0.35256  0.11578  0.35391  1.0000
  O   O13       1.0  0.31885  0.10064  0.26168  1.0000
  O   O14       1.0  0.36061  0.10548  0.29715  1.0000
  H   H13       1.0  0.32502  0.11091  0.20942  1.0000
  H   H14       1.0  0.36784  0.11605  0.24632  1.0000
  C   C27       1.0  0.78805  0.67539  0.27777  1.0000
  C   C28       1.0  0.76829  0.65465  0.30403  1.0000
  O   O15       1.0  0.79040  0.68228  0.19040  1.0000
  O   O16       1.0  0.75294  0.64177  0.23889  1.0000
  H   H15       1.0  0.79508  0.67277  0.15633  1.0000
  H   H16       1.0  0.75876  0.63241  0.21093  1.0000
  C   C29       1.0  0.89396  0.21999  0.32039  1.0000
  C   C30       1.0  0.89155  0.23911  0.34425  1.0000
  O   O17       1.0  0.90448  0.22054  0.24139  1.0000
  O   O18       1.0  0.89960  0.25699  0.28515  1.0000
  H   H17       1.0  0.89277  0.21601  0.19414  1.0000
  H   H18       1.0  0.88741  0.25302  0.24035  1.0000
  C   C31       1.0  0.67843  0.88443  0.39528  1.0000
  C   C32       1.0  0.65672  0.88328  0.40309  1.0000
  O   O19       1.0  0.69487  0.90085  0.34163  1.0000
  O   O20       1.0  0.65356  0.89905  0.35728  1.0000
  H   H19       1.0  0.69152  0.89478  0.28003  1.0000
  H   H20       1.0  0.64917  0.89317  0.29572  1.0000
  C   C33       1.0  0.21944  0.32925  0.34205  1.0000
  C   C34       1.0  0.23866  0.35117  0.36076  1.0000
  O   O21       1.0  0.22038  0.31705  0.27060  1.0000
  O   O22       1.0  0.25719  0.35896  0.30509  1.0000
  H   H21       1.0  0.21646  0.32300  0.21718  1.0000
  H   H22       1.0  0.25401  0.36593  0.25295  1.0000
  C   C35       1.0  0.11715  0.78751  0.27444  1.0000
  C   C36       1.0  0.11785  0.76761  0.30080  1.0000
  O   O23       1.0  0.11290  0.78998  0.18681  1.0000
  O   O24       1.0  0.11546  0.75230  0.23560  1.0000
  H   H23       1.0  0.12721  0.79469  0.15349  1.0000
  H   H24       1.0  0.13073  0.75807  0.20836  1.0000
  C   C37       1.0  0.22073  0.44364  0.26963  1.0000
  C   C38       1.0  0.24051  0.44342  0.30060  1.0000
  O   O25       1.0  0.21883  0.44722  0.18067  1.0000
  O   O26       1.0  0.25638  0.44564  0.23826  1.0000
  H   H25       1.0  0.21441  0.43269  0.14955  1.0000
  H   H26       1.0  0.25096  0.43026  0.21259  1.0000
  C   C39       1.0  0.56976  0.78167  0.23550  1.0000
  C   C40       1.0  0.56801  0.80046  0.26856  1.0000
  O   O27       1.0  0.57201  0.77961  0.14545  1.0000
  O   O28       1.0  0.57038  0.81699  0.20916  1.0000
  H   H27       1.0  0.58737  0.79195  0.12789  1.0000
  H   H28       1.0  0.58698  0.82748  0.20110  1.0000
  C   C41       1.0  0.23257  0.78813  0.34698  1.0000
  C   C42       1.0  0.21084  0.76860  0.36502  1.0000
  O   O29       1.0  0.24519  0.78756  0.27632  1.0000
  O   O30       1.0  0.20372  0.75009  0.30969  1.0000
  H   H29       1.0  0.23915  0.79114  0.22229  1.0000
  H   H30       1.0  0.19699  0.75308  0.25629  1.0000
  C   C43       1.0  0.78964  0.56100  0.34384  1.0000
  C   C44       1.0  0.77002  0.56294  0.36326  1.0000
  O   O31       1.0  0.78906  0.54808  0.27220  1.0000
  O   O32       1.0  0.75151  0.55169  0.30779  1.0000
  H   H31       1.0  0.79251  0.55785  0.21871  1.0000
  H   H32       1.0  0.75441  0.56164  0.25520  1.0000
  C   C45       1.0  0.44528  0.22612  0.26677  1.0000
  C   C46       1.0  0.44486  0.20604  0.29809  1.0000
  O   O33       1.0  0.44926  0.23169  0.17798  1.0000
  O   O34       1.0  0.44739  0.19249  0.23617  1.0000
  H   H33       1.0  0.43479  0.22179  0.14611  1.0000
  H   H34       1.0  0.43214  0.18258  0.20940  1.0000
  C   C47       1.0  0.78004  0.22053  0.28856  1.0000
  C   C48       1.0  0.80044  0.23998  0.31891  1.0000
  O   O35       1.0  0.77328  0.21978  0.20169  1.0000
  O   O36       1.0  0.81288  0.25685  0.25785  1.0000
  H   H35       1.0  0.78248  0.21517  0.16505  1.0000
  H   H36       1.0  0.82252  0.25207  0.22502  1.0000
  C   C49       1.0  0.10171  0.45630  0.32824  1.0000
  C   C50       1.0  0.09462  0.43666  0.27299  1.0000
  C   C51       1.0  0.10748  0.42522  0.26882  1.0000
  C   C52       1.0  0.12734  0.43235  0.32270  1.0000
  O   O37       1.0  0.10045  0.40756  0.20926  1.0000
  H   H37       1.0  0.10837  0.41443  0.15245  1.0000
  O   O38       1.0  0.07654  0.42973  0.21549  1.0000
  H   H38       1.0  0.06357  0.41602  0.24258  1.0000
  C   C53       1.0  0.54996  0.64561  0.31625  1.0000
  C   C54       1.0  0.56985  0.65776  0.26204  1.0000
  C   C55       1.0  0.58110  0.68198  0.25439  1.0000
  C   C56       1.0  0.57349  0.69502  0.30366  1.0000
  O   O39       1.0  0.59918  0.69222  0.19636  1.0000
  H   H39       1.0  0.59273  0.69317  0.13832  1.0000
  O   O40       1.0  0.57724  0.64615  0.20929  1.0000
  H   H40       1.0  0.59209  0.64924  0.23401  1.0000
  C   C57       1.0  0.36143  0.90421  0.32806  1.0000
  C   C58       1.0  0.34853  0.91059  0.27178  1.0000
  C   C59       1.0  0.32417  0.89810  0.27239  1.0000
  C   C60       1.0  0.31174  0.87949  0.33262  1.0000
  O   O41       1.0  0.31319  0.90455  0.21218  1.0000
  H   H41       1.0  0.31096  0.89537  0.15778  1.0000
  O   O42       1.0  0.35950  0.92768  0.21007  1.0000
  H   H42       1.0  0.35750  0.94055  0.22964  1.0000
  C   C61       1.0  0.90703  0.55013  0.32683  1.0000
  C   C62       1.0  0.91319  0.56935  0.27049  1.0000
  C   C63       1.0  0.90038  0.58088  0.27090  1.0000
  C   C64       1.0  0.88170  0.57444  0.33098  1.0000
  O   O43       1.0  0.90661  0.59825  0.21054  1.0000
  H   H43       1.0  0.89750  0.59118  0.15610  1.0000
  O   O44       1.0  0.93036  0.57571  0.20898  1.0000
  H   H44       1.0  0.94316  0.59053  0.22932  1.0000
  C   C65       1.0  0.45812  0.35790  0.32395  1.0000
  C   C66       1.0  0.43890  0.34557  0.26664  1.0000
  C   C67       1.0  0.42750  0.32127  0.26144  1.0000
  C   C68       1.0  0.43419  0.30837  0.31647  1.0000
  O   O45       1.0  0.41027  0.31079  0.20004  1.0000
  H   H45       1.0  0.41754  0.30986  0.14413  1.0000
  O   O46       1.0  0.43253  0.35712  0.20875  1.0000
  H   H46       1.0  0.41745  0.35440  0.22918  1.0000
  C   C69       1.0  0.64934  0.10076  0.33061  1.0000
  C   C70       1.0  0.66208  0.09397  0.27505  1.0000
  C   C71       1.0  0.68638  0.10695  0.27185  1.0000
  C   C72       1.0  0.69894  0.12656  0.32720  1.0000
  O   O47       1.0  0.69719  0.10021  0.21192  1.0000
  H   H47       1.0  0.69832  0.10833  0.15556  1.0000
  O   O48       1.0  0.65110  0.07611  0.21649  1.0000
  H   H48       1.0  0.65180  0.06305  0.24291  1.0000
  C   C73       1.0  0.45639  0.13417  0.31295  1.0000
  C   C74       1.0  0.46838  0.12187  0.30570  1.0000
  O   O49       1.0  0.46425  0.15390  0.26436  1.0000
  O   O50       1.0  0.48756  0.13086  0.25327  1.0000
  H   H49       1.0  0.47749  0.16594  0.29738  1.0000
  H   H50       1.0  0.48246  0.12380  0.19374  1.0000
  C   C75       1.0  0.68529  0.57873  0.29827  1.0000
  C   C76       1.0  0.66109  0.56620  0.28871  1.0000
  O   O51       1.0  0.69711  0.59886  0.25211  1.0000
  O   O52       1.0  0.65110  0.57446  0.23133  1.0000
  H   H51       1.0  0.70302  0.59527  0.19778  1.0000
  H   H52       1.0  0.65236  0.58827  0.25964  1.0000
  C   C77       1.0  0.87218  0.32342  0.32575  1.0000
  C   C78       1.0  0.88435  0.34770  0.31813  1.0000
  O   O53       1.0  0.85241  0.31133  0.27768  1.0000
  O   O54       1.0  0.87527  0.35774  0.26538  1.0000
  H   H53       1.0  0.84031  0.31227  0.31138  1.0000
  H   H54       1.0  0.88209  0.35938  0.20553  1.0000
  C   C79       1.0  0.55454  0.87157  0.30898  1.0000
  C   C80       1.0  0.54290  0.88424  0.30432  1.0000
  O   O55       1.0  0.54732  0.85316  0.25301  1.0000
  O   O56       1.0  0.52469  0.87680  0.24721  1.0000
  H   H55       1.0  0.53316  0.84058  0.27930  1.0000
  H   H56       1.0  0.53091  0.88516  0.19059  1.0000
  C   C81       1.0  0.32400  0.45454  0.31462  1.0000
  C   C82       1.0  0.34826  0.46617  0.30677  1.0000
  O   O57       1.0  0.31228  0.46251  0.26581  1.0000
  O   O58       1.0  0.35864  0.48521  0.25363  1.0000
  H   H57       1.0  0.31371  0.47591  0.29837  1.0000
  H   H58       1.0  0.36047  0.47990  0.19436  1.0000
  C   C83       1.0  0.11004  0.68447  0.29464  1.0000
  C   C84       1.0  0.09810  0.66027  0.28475  1.0000
  O   O59       1.0  0.10211  0.69655  0.24795  1.0000
  O   O60       1.0  0.08002  0.65052  0.22655  1.0000
  H   H59       1.0  0.11180  0.70244  0.19411  1.0000
  H   H60       1.0  0.06752  0.65203  0.25394  1.0000
  C   C85       1.0  0.09223  0.21166  0.30494  1.0000
  C   C86       1.0  0.10495  0.23603  0.30257  1.0000
  O   O61       1.0  0.07267  0.20078  0.25477  1.0000
  O   O62       1.0  0.09648  0.24670  0.25010  1.0000
  H   H61       1.0  0.07717  0.19728  0.19668  1.0000
  H   H62       1.0  0.10279  0.24768  0.18964  1.0000
  C   C87       1.0  0.79641  0.88325  0.29724  1.0000
  C   C88       1.0  0.77205  0.87116  0.29546  1.0000
  O   O63       1.0  0.80753  0.87437  0.24971  1.0000
  O   O64       1.0  0.76194  0.85139  0.24646  1.0000
  H   H63       1.0  0.81098  0.88189  0.19061  1.0000
  H   H64       1.0  0.75969  0.85571  0.18584  1.0000
  C   C89       1.0  0.12540  0.91551  0.29434  1.0000
  C   C90       1.0  0.13671  0.90247  0.28929  1.0000
  O   O65       1.0  0.13437  0.93543  0.24639  1.0000
  O   O66       1.0  0.15575  0.91083  0.23626  1.0000
  H   H65       1.0  0.12647  0.93143  0.18805  1.0000
  H   H66       1.0  0.15027  0.90466  0.17577  1.0000
  C   C91       1.0  0.91617  0.79525  0.29440  1.0000
  C   C92       1.0  0.90296  0.77091  0.28925  1.0000
  O   O67       1.0  0.93602  0.80610  0.24600  1.0000
  O   O68       1.0  0.91120  0.76018  0.23592  1.0000
  H   H67       1.0  0.93198  0.81008  0.18791  1.0000
  H   H68       1.0  0.90496  0.75950  0.17556  1.0000
  C   C93       1.0  0.21336  0.12407  0.30407  1.0000
  C   C94       1.0  0.23773  0.13544  0.30102  1.0000
  O   O69       1.0  0.20258  0.13294  0.25443  1.0000
  O   O70       1.0  0.24850  0.15455  0.24843  1.0000
  H   H69       1.0  0.19897  0.12499  0.19621  1.0000
  H   H70       1.0  0.24928  0.14915  0.18786  1.0000
  C   C95       1.0  0.88423  0.09193  0.29780  1.0000
  C   C96       1.0  0.87282  0.10488  0.29466  1.0000
  O   O71       1.0  0.87562  0.07247  0.24702  1.0000
  O   O72       1.0  0.85400  0.09682  0.24058  1.0000
  H   H71       1.0  0.88386  0.07705  0.18943  1.0000
  H   H72       1.0  0.85972  0.10337  0.18073  1.0000
  C   C97       1.0  0.09505  0.52603  0.34492  1.0000
  C   C98       1.0  0.10078  0.53951  0.26588  1.0000
  C   C99       1.0  0.10103  0.56070  0.26552  1.0000
  C   C100      1.0  0.09549  0.56874  0.34419  1.0000
  O   O73       1.0  0.10322  0.57136  0.18537  1.0000
  H   H73       1.0  0.11919  0.58410  0.18285  1.0000
  O   O74       1.0  0.10266  0.53077  0.18590  1.0000
  H   H74       1.0  0.11829  0.53304  0.18431  1.0000
  C   C101      1.0  0.48118  0.56932  0.34552  1.0000
  C   C102      1.0  0.46800  0.56105  0.26599  1.0000
  C   C103      1.0  0.44675  0.54019  0.26659  1.0000
  C   C104      1.0  0.43825  0.52734  0.34681  1.0000
  O   O75       1.0  0.43645  0.53109  0.18645  1.0000
  H   H75       1.0  0.42319  0.53350  0.18249  1.0000
  O   O76       1.0  0.47710  0.57103  0.18543  1.0000
  H   H76       1.0  0.47431  0.58401  0.17967  1.0000
  C   C105      1.0  0.43802  0.91121  0.33512  1.0000
  C   C106      1.0  0.44905  0.91106  0.25426  1.0000
  C   C107      1.0  0.47025  0.91136  0.25604  1.0000
  C   C108      1.0  0.48085  0.91173  0.33871  1.0000
  O   O77       1.0  0.48166  0.91446  0.17705  1.0000
  H   H77       1.0  0.47992  0.89944  0.16153  1.0000
  O   O78       1.0  0.44123  0.91395  0.17370  1.0000
  H   H78       1.0  0.42838  0.89877  0.15697  1.0000
  C   C109      1.0  0.91420  0.48085  0.33358  1.0000
  C   C110      1.0  0.91385  0.46975  0.25229  1.0000
  C   C111      1.0  0.91373  0.44864  0.25347  1.0000
  C   C112      1.0  0.91378  0.43815  0.33590  1.0000
  O   O79       1.0  0.91664  0.44028  0.17427  1.0000
  H   H79       1.0  0.90151  0.42721  0.15852  1.0000
  O   O80       1.0  0.91694  0.48064  0.17205  1.0000
  H   H80       1.0  0.90184  0.47851  0.15523  1.0000
  C   C113      1.0  0.52735  0.43431  0.35170  1.0000
  C   C114      1.0  0.54129  0.44166  0.27377  1.0000
  C   C115      1.0  0.56243  0.46269  0.27349  1.0000
  C   C116      1.0  0.56998  0.47669  0.35119  1.0000
  O   O81       1.0  0.57347  0.47080  0.19378  1.0000
  H   H81       1.0  0.58630  0.46768  0.19375  1.0000
  O   O82       1.0  0.53300  0.43061  0.19419  1.0000
  H   H82       1.0  0.53586  0.41762  0.19424  1.0000
  C   C117      1.0  0.57290  0.09394  0.33788  1.0000
  C   C118      1.0  0.56291  0.09557  0.25650  1.0000
  C   C119      1.0  0.54191  0.09567  0.25691  1.0000
  C   C120      1.0  0.53048  0.09415  0.33869  1.0000
  O   O83       1.0  0.53137  0.09391  0.17681  1.0000
  H   H83       1.0  0.53345  0.10922  0.16447  1.0000
  O   O84       1.0  0.57149  0.09370  0.17608  1.0000
  H   H84       1.0  0.58463  0.10901  0.16307  1.0000
  C   C121      1.0  0.99187  0.44650  0.26470  1.0000
  C   C122      1.0  0.01609  0.45816  0.26307  1.0000
  O   O85       1.0  0.98090  0.45261  0.20305  1.0000
  O   O86       1.0  0.02722  0.47499  0.20055  1.0000
  H   H85       1.0  0.97608  0.44122  0.15444  1.0000
  H   H86       1.0  0.03112  0.46787  0.15100  1.0000
  C   C123      1.0  0.58638  0.57083  0.28921  1.0000
  C   C124      1.0  0.57453  0.58330  0.28911  1.0000
  O   O87       1.0  0.60336  0.57636  0.22761  1.0000
  O   O88       1.0  0.58068  0.60034  0.22735  1.0000
  H   H87       1.0  0.61673  0.59067  0.24875  1.0000
  H   H88       1.0  0.59475  0.61367  0.25037  1.0000
  C   C125      1.0  0.43554  0.01516  0.29503  1.0000
  C   C126      1.0  0.42303  0.99085  0.29456  1.0000
  O   O89       1.0  0.42798  0.02661  0.24223  1.0000
  O   O90       1.0  0.40406  0.98012  0.24126  1.0000
  H   H89       1.0  0.41622  0.02781  0.27730  1.0000
  H   H90       1.0  0.39150  0.98023  0.27482  1.0000
  C   C127      1.0  0.01808  0.58630  0.28697  1.0000
  C   C128      1.0  0.99375  0.57456  0.28689  1.0000
  O   O91       1.0  0.02955  0.60398  0.22818  1.0000
  O   O92       1.0  0.98289  0.58152  0.22824  1.0000
  H   H91       1.0  0.02869  0.61711  0.25274  1.0000
  H   H92       1.0  0.98289  0.59475  0.25646  1.0000
  C   C129      1.0  0.42168  0.43252  0.29595  1.0000
  C   C130      1.0  0.43331  0.41986  0.29633  1.0000
  O   O93       1.0  0.40342  0.42571  0.23962  1.0000
  O   O94       1.0  0.42568  0.40148  0.24015  1.0000
  H   H93       1.0  0.38993  0.41379  0.27189  1.0000
  H   H94       1.0  0.41240  0.38868  0.27018  1.0000
  C   C131      1.0  0.54839  0.99033  0.27249  1.0000
  C   C132      1.0  0.56057  0.01455  0.27072  1.0000
  O   O95       1.0  0.52994  0.97926  0.21661  1.0000
  O   O96       1.0  0.55309  0.02532  0.21376  1.0000
  H   H95       1.0  0.53538  0.97448  0.16405  1.0000
  H   H96       1.0  0.56293  0.02944  0.16023  1.0000
  C   C133      1.0  0.12719  0.10266  0.34950  1.0000
  C   C134      1.0  0.10532  0.09335  0.30764  1.0000
  C   C135      1.0  0.09276  0.10516  0.30833  1.0000
  C   C136      1.0  0.10143  0.12687  0.35095  1.0000
  O   O97       1.0  0.07212  0.09502  0.26516  1.0000
  H   H97       1.0  0.07518  0.10145  0.20413  1.0000
  O   O98       1.0  0.09575  0.07281  0.26386  1.0000
  H   H98       1.0  0.10216  0.07617  0.20281  1.0000
  C   C137      1.0  0.90533  0.02707  0.34434  1.0000
  C   C138      1.0  0.91494  0.01453  0.30459  1.0000
  C   C139      1.0  0.90311  0.99019  0.30507  1.0000
  C   C140      1.0  0.88109  0.97716  0.34532  1.0000
  O   O99       1.0  0.91357  0.97971  0.26414  1.0000
  H   H99       1.0  0.90767  0.97645  0.20230  1.0000
  O   O100      1.0  0.93581  0.02550  0.26324  1.0000
  H   H100      1.0  0.93293  0.02857  0.20146  1.0000
  C   C141      1.0  0.98139  0.88111  0.34306  1.0000
  C   C142      1.0  0.99407  0.90358  0.30613  1.0000
  C   C143      1.0  0.01844  0.91598  0.30637  1.0000
  C   C144      1.0  0.03147  0.90660  0.34360  1.0000
  O   O101      1.0  0.02895  0.93725  0.26815  1.0000
  H   H101      1.0  0.03201  0.93509  0.20542  1.0000
  O   O102      1.0  0.98320  0.91397  0.26782  1.0000
  H   H102      1.0  0.98022  0.90873  0.20511  1.0000
  C   C145      1.0  0.88215  0.90466  0.34479  1.0000
  C   C146      1.0  0.90420  0.91412  0.30424  1.0000
  C   C147      1.0  0.91671  0.90226  0.30470  1.0000
  C   C148      1.0  0.90783  0.88034  0.34579  1.0000
  O   O103      1.0  0.93751  0.91256  0.26276  1.0000
  H   H103      1.0  0.93467  0.90647  0.20121  1.0000
  O   O104      1.0  0.91399  0.93486  0.26192  1.0000
  H   H104      1.0  0.90786  0.93180  0.20042  1.0000
  C   C149      1.0  0.10411  0.98017  0.34448  1.0000
  C   C150      1.0  0.09444  0.99285  0.30652  1.0000
  C   C151      1.0  0.10628  0.01721  0.30807  1.0000
  C   C152      1.0  0.12840  0.03018  0.34769  1.0000
  O   O105      1.0  0.09568  0.02777  0.26878  1.0000
  H   H105      1.0  0.10136  0.03111  0.20665  1.0000
  O   O106      1.0  0.07348  0.98202  0.26582  1.0000
  H   H106      1.0  0.07623  0.97919  0.20352  1.0000
  C   C153      1.0  0.02779  0.12581  0.34857  1.0000
  C   C154      1.0  0.01523  0.10370  0.30858  1.0000
  C   C155      1.0  0.99087  0.09135  0.30799  1.0000
  C   C156      1.0  0.97783  0.10045  0.34744  1.0000
  O   O107      1.0  0.98040  0.07045  0.26677  1.0000
  H   H107      1.0  0.97736  0.07318  0.20474  1.0000
  O   O108      1.0  0.02618  0.09367  0.26807  1.0000
  H   H108      1.0  0.02937  0.09955  0.20620  1.0000
  C   C157      1.0  0.18034  0.43021  0.29503  1.0000
  N   N1        1.0  0.16495  0.43648  0.32048  1.0000
  C   C158      1.0  0.14187  0.42260  0.30946  1.0000
  N   N2        1.0  0.13426  0.40058  0.27988  1.0000
  C   C159      1.0  0.14897  0.39298  0.25568  1.0000
  N   N3        1.0  0.17166  0.40841  0.26577  1.0000
  C   C160      1.0  0.57879  0.75152  0.26819  1.0000
  N   N4        1.0  0.57076  0.72941  0.29325  1.0000
  C   C161      1.0  0.58392  0.71926  0.28965  1.0000
  N   N5        1.0  0.60666  0.73293  0.26873  1.0000
  C   C162      1.0  0.61589  0.75546  0.24498  1.0000
  N   N6        1.0  0.60132  0.76396  0.24604  1.0000
  C   C163      1.0  0.25342  0.82961  0.35101  1.0000
  N   N7        1.0  0.27632  0.84389  0.35954  1.0000
  C   C164      1.0  0.28700  0.86609  0.32964  1.0000
  N   N8        1.0  0.27331  0.87398  0.29395  1.0000
  C   C165      1.0  0.25020  0.85995  0.28164  1.0000
  N   N9        1.0  0.24116  0.83823  0.31295  1.0000
  C   C166      1.0  0.83106  0.58162  0.34707  1.0000
  N   N10       1.0  0.84570  0.57348  0.35696  1.0000
  C   C167      1.0  0.86791  0.58533  0.32742  1.0000
  N   N11       1.0  0.87546  0.60681  0.29147  1.0000
  C   C168      1.0  0.86111  0.61549  0.27851  1.0000
  N   N12       1.0  0.83936  0.60247  0.30903  1.0000
  C   C169      1.0  0.43179  0.25308  0.29037  1.0000
  N   N13       1.0  0.43815  0.27480  0.31516  1.0000
  C   C170      1.0  0.42438  0.28410  0.30321  1.0000
  N   N14       1.0  0.40236  0.26975  0.27353  1.0000
  C   C171      1.0  0.39467  0.24737  0.25002  1.0000
  N   N15       1.0  0.41000  0.24001  0.26102  1.0000
  C   C172      1.0  0.75426  0.17979  0.30756  1.0000
  N   N16       1.0  0.73254  0.16414  0.33113  1.0000
  C   C173      1.0  0.72327  0.14121  0.31543  1.0000
  N   N17       1.0  0.73772  0.13394  0.28292  1.0000
  C   C174      1.0  0.76008  0.14892  0.26029  1.0000
  N   N18       1.0  0.76741  0.17146  0.27526  1.0000
  C   C175      1.0  0.42764  0.17481  0.40615  1.0000
  N   N19       1.0  0.43693  0.16183  0.38054  1.0000
  C   C176      1.0  0.42453  0.13847  0.37811  1.0000
  N   N20       1.0  0.40144  0.12833  0.39384  1.0000
  C   C177      1.0  0.39109  0.14050  0.41896  1.0000
  N   N21       1.0  0.40480  0.16367  0.42434  1.0000
  C   C178      1.0  0.75601  0.58790  0.42374  1.0000
  N   N22       1.0  0.73388  0.57539  0.39530  1.0000
  C   C179      1.0  0.72075  0.58501  0.37535  1.0000
  N   N23       1.0  0.73130  0.60846  0.37691  1.0000
  C   C180      1.0  0.75329  0.62188  0.40650  1.0000
  N   N24       1.0  0.76501  0.61101  0.42890  1.0000
  C   C181      1.0  0.83325  0.25355  0.41967  1.0000
  N   N25       1.0  0.84544  0.27598  0.39507  1.0000
  C   C182      1.0  0.86875  0.28744  0.38883  1.0000
  N   N26       1.0  0.87960  0.27498  0.39937  1.0000
  C   C183      1.0  0.86823  0.25241  0.42371  1.0000
  N   N27       1.0  0.84507  0.24229  0.43314  1.0000
  C   C184      1.0  0.57746  0.82629  0.39419  1.0000
  N   N28       1.0  0.57057  0.84125  0.36941  1.0000
  C   C185      1.0  0.58414  0.86441  0.37896  1.0000
  N   N29       1.0  0.60641  0.87252  0.40640  1.0000
  C   C186      1.0  0.61455  0.85823  0.43024  1.0000
  N   N30       1.0  0.59942  0.83538  0.42217  1.0000
  C   C187      1.0  0.25477  0.42663  0.40933  1.0000
  N   N31       1.0  0.27700  0.43574  0.38324  1.0000
  C   C188      1.0  0.28778  0.42317  0.38111  1.0000
  N   N32       1.0  0.27472  0.40014  0.39752  1.0000
  C   C189      1.0  0.25226  0.38997  0.42289  1.0000
  N   N33       1.0  0.24296  0.40382  0.42802  1.0000
  C   C190      1.0  0.17163  0.75471  0.42299  1.0000
  N   N34       1.0  0.16197  0.73261  0.39403  1.0000
  C   C191      1.0  0.13926  0.71965  0.37302  1.0000
  N   N35       1.0  0.12650  0.73034  0.37416  1.0000
  C   C192      1.0  0.13510  0.75228  0.40420  1.0000
  N   N36       1.0  0.15762  0.76383  0.42757  1.0000
  C   C193      1.0  0.14745  0.30966  0.27981  1.0000
  N   N37       1.0  0.13287  0.28710  0.30069  1.0000
  C   C194      1.0  0.14022  0.27346  0.34087  1.0000
  N   N38       1.0  0.16274  0.28415  0.36744  1.0000
  C   C195      1.0  0.17793  0.30647  0.34887  1.0000
  N   N39       1.0  0.16948  0.31842  0.30700  1.0000
  C   C196      1.0  0.69889  0.83138  0.31167  1.0000
  N   N40       1.0  0.72213  0.84453  0.30782  1.0000
  C   C197      1.0  0.73394  0.86609  0.34490  1.0000
  N   N41       1.0  0.72094  0.87422  0.38503  1.0000
  C   C198      1.0  0.69765  0.86120  0.39390  1.0000
  N   N42       1.0  0.68751  0.84028  0.35481  1.0000
  C   C199      1.0  0.16729  0.85928  0.26402  1.0000
  N   N43       1.0  0.15962  0.87390  0.28911  1.0000
  C   C200      1.0  0.13768  0.86630  0.32000  1.0000
  N   N44       1.0  0.12404  0.84311  0.33193  1.0000
  C   C201      1.0  0.13037  0.82773  0.30575  1.0000
  N   N45       1.0  0.15200  0.83659  0.27467  1.0000
  C   C202      1.0  0.85983  0.69731  0.26406  1.0000
  N   N46       1.0  0.87443  0.71961  0.28889  1.0000
  C   C203      1.0  0.86682  0.73383  0.32099  1.0000
  N   N47       1.0  0.84365  0.72410  0.33442  1.0000
  C   C204      1.0  0.82829  0.70231  0.30901  1.0000
  N   N48       1.0  0.83716  0.68971  0.27619  1.0000
  C   C205      1.0  0.31122  0.16564  0.27560  1.0000
  N   N49       1.0  0.28876  0.15793  0.29740  1.0000
  C   C206      1.0  0.27499  0.13701  0.33780  1.0000
  N   N50       1.0  0.28549  0.12493  0.36357  1.0000
  C   C207      1.0  0.30769  0.13170  0.34372  1.0000
  N   N51       1.0  0.31974  0.15209  0.30181  1.0000
  C   C208      1.0  0.84253  0.14817  0.27097  1.0000
  N   N52       1.0  0.85006  0.13331  0.29348  1.0000
  C   C209      1.0  0.87121  0.14047  0.33177  1.0000
  N   N53       1.0  0.88379  0.16321  0.35458  1.0000
  C   C210      1.0  0.87743  0.17883  0.33274  1.0000
  N   N54       1.0  0.85669  0.17043  0.29363  1.0000
  C   C211      1.0  0.08630  0.50207  0.33826  1.0000
  N   N55       1.0  0.09921  0.49159  0.33627  1.0000
  C   C212      1.0  0.08905  0.46816  0.33077  1.0000
  N   N56       1.0  0.06570  0.45565  0.32810  1.0000
  C   C213      1.0  0.05257  0.46572  0.32909  1.0000
  N   N57       1.0  0.06311  0.48889  0.33427  1.0000
  C   C214      1.0  0.50513  0.58458  0.33973  1.0000
  N   N58       1.0  0.51527  0.60777  0.32947  1.0000
  C   C215      1.0  0.53865  0.62119  0.32412  1.0000
  N   N59       1.0  0.55150  0.61072  0.32956  1.0000
  C   C216      1.0  0.54188  0.58764  0.33979  1.0000
  N   N60       1.0  0.51866  0.57498  0.34445  1.0000
  C   C217      1.0  0.42257  0.91975  0.33356  1.0000
  N   N61       1.0  0.39920  0.90680  0.33060  1.0000
  C   C218      1.0  0.38592  0.91698  0.32877  1.0000
  N   N62       1.0  0.39663  0.94034  0.33208  1.0000
  C   C219      1.0  0.41987  0.95368  0.33612  1.0000
  N   N63       1.0  0.43235  0.94290  0.33623  1.0000
  C   C220      1.0  0.92289  0.50485  0.33263  1.0000
  N   N64       1.0  0.90988  0.51518  0.32933  1.0000
  C   C221      1.0  0.91998  0.53861  0.32737  1.0000
  N   N65       1.0  0.94333  0.55136  0.33040  1.0000
  C   C222      1.0  0.95669  0.54149  0.33466  1.0000
  N   N66       1.0  0.94605  0.51824  0.33530  1.0000
  C   C223      1.0  0.50340  0.41890  0.34400  1.0000
  N   N67       1.0  0.49310  0.39564  0.33533  1.0000
  C   C224      1.0  0.46969  0.38235  0.32932  1.0000
  N   N68       1.0  0.45694  0.39295  0.33330  1.0000
  C   C225      1.0  0.46669  0.41608  0.34219  1.0000
  N   N69       1.0  0.48991  0.42855  0.34695  1.0000
  C   C226      1.0  0.58815  0.08518  0.33606  1.0000
  N   N70       1.0  0.61154  0.09816  0.33545  1.0000
  C   C227      1.0  0.62484  0.08802  0.33217  1.0000
  N   N71       1.0  0.61408  0.06469  0.33009  1.0000
  C   C228      1.0  0.59087  0.05141  0.33024  1.0000
  N   N72       1.0  0.57823  0.06200  0.33315  1.0000
  C   C229      1.0  0.50648  0.08546  0.33746  1.0000
  N   N73       1.0  0.49606  0.09841  0.34212  1.0000
  C   C230      1.0  0.47262  0.08825  0.34466  1.0000
  N   N74       1.0  0.46016  0.06489  0.34297  1.0000
  C   C231      1.0  0.46998  0.05154  0.33922  1.0000
  N   N75       1.0  0.49322  0.06226  0.33691  1.0000
  C   C232      1.0  0.58574  0.50054  0.34310  1.0000
  N   N76       1.0  0.60903  0.51035  0.33773  1.0000
  C   C233      1.0  0.62293  0.53371  0.33266  1.0000
  N   N77       1.0  0.61273  0.54685  0.33519  1.0000
  C   C234      1.0  0.58962  0.53763  0.34079  1.0000
  N   N78       1.0  0.57654  0.51446  0.34484  1.0000
  C   C235      1.0  0.92204  0.42248  0.33734  1.0000
  N   N79       1.0  0.90875  0.39930  0.34868  1.0000
  C   C236      1.0  0.91844  0.38560  0.35309  1.0000
  N   N80       1.0  0.94170  0.39587  0.34605  1.0000
  C   C237      1.0  0.95532  0.41885  0.33510  1.0000
  N   N81       1.0  0.94514  0.43186  0.33118  1.0000
  C   C238      1.0  0.50485  0.92025  0.34054  1.0000
  N   N82       1.0  0.51502  0.90714  0.34845  1.0000
  C   C239      1.0  0.53844  0.91706  0.35165  1.0000
  N   N83       1.0  0.55128  0.94035  0.34588  1.0000
  C   C240      1.0  0.54165  0.95383  0.33761  1.0000
  N   N84       1.0  0.51841  0.94337  0.33545  1.0000
  C   C241      1.0  0.42273  0.50345  0.34172  1.0000
  N   N85       1.0  0.39939  0.49331  0.34494  1.0000
  C   C242      1.0  0.38587  0.46989  0.34578  1.0000
  N   N86       1.0  0.39646  0.45714  0.34419  1.0000
  C   C243      1.0  0.41960  0.46672  0.34191  1.0000
  N   N87       1.0  0.43239  0.48994  0.34138  1.0000
  C   C244      1.0  0.08753  0.58460  0.33705  1.0000
  N   N88       1.0  0.10116  0.60788  0.33274  1.0000
  C   C245      1.0  0.09186  0.62191  0.32845  1.0000
  N   N89       1.0  0.06852  0.61188  0.33075  1.0000
  C   C246      1.0  0.05446  0.58876  0.33537  1.0000
  N   N90       1.0  0.06444  0.57556  0.33854  1.0000
  C   C247      1.0  0.08861  0.13881  0.35191  1.0000
  N   N91       1.0  0.09939  0.16222  0.35352  1.0000
  C   C248      1.0  0.08797  0.17420  0.35339  1.0000
  N   N92       1.0  0.06461  0.16169  0.35127  1.0000
  C   C249      1.0  0.05255  0.13827  0.35003  1.0000
  N   N93       1.0  0.06516  0.12745  0.35023  1.0000
  C   C250      1.0  0.86913  0.95242  0.34613  1.0000
  N   N94       1.0  0.84573  0.93988  0.34629  1.0000
  C   C251      1.0  0.83365  0.91649  0.34620  1.0000
  N   N95       1.0  0.84613  0.90557  0.34547  1.0000
  C   C252      1.0  0.86957  0.91686  0.34538  1.0000
  N   N96       1.0  0.88044  0.94029  0.34562  1.0000
  C   C253      1.0  0.05628  0.91933  0.34450  1.0000
  N   N97       1.0  0.06891  0.90854  0.34458  1.0000
  C   C254      1.0  0.09233  0.91988  0.34457  1.0000
  N   N98       1.0  0.10323  0.94327  0.34398  1.0000
  C   C255      1.0  0.09191  0.95539  0.34425  1.0000
  N   N99       1.0  0.06847  0.94278  0.34447  1.0000
  C   C256      1.0  0.92059  0.86831  0.34629  1.0000
  N   N100      1.0  0.90972  0.84490  0.34665  1.0000
  C   C257      1.0  0.92100  0.83277  0.34592  1.0000
  N   N101      1.0  0.94439  0.84519  0.34415  1.0000
  C   C258      1.0  0.95659  0.86863  0.34409  1.0000
  N   N102      1.0  0.94405  0.87954  0.34504  1.0000
  C   C259      1.0  0.14034  0.05497  0.34975  1.0000
  N   N103      1.0  0.16375  0.06764  0.35152  1.0000
  C   C260      1.0  0.17575  0.09105  0.35260  1.0000
  N   N104      1.0  0.16324  0.10193  0.35136  1.0000
  C   C261      1.0  0.13980  0.09052  0.34993  1.0000
  N   N105      1.0  0.12900  0.06709  0.34907  1.0000
  C   C262      1.0  0.95307  0.08778  0.34755  1.0000
  N   N106      1.0  0.94048  0.09861  0.34853  1.0000
  C   C263      1.0  0.91707  0.08724  0.34795  1.0000
  N   N107      1.0  0.90615  0.06387  0.34594  1.0000
  C   C264      1.0  0.91749  0.05179  0.34529  1.0000
  N   N108      1.0  0.94092  0.06435  0.34612  1.0000
  C   C265      1.0  0.12394  0.32894  0.28193  1.0000
  C   C266      1.0  0.12454  0.35044  0.27666  1.0000
  O   O109      1.0  0.10707  0.31172  0.33146  1.0000
  O   O110      1.0  0.10797  0.35263  0.32083  1.0000
  H   H109      1.0  0.11241  0.31437  0.39410  1.0000
  H   H110      1.0  0.11315  0.35649  0.38343  1.0000
  C   C267      1.0  0.67827  0.78967  0.30719  1.0000
  C   C268      1.0  0.65635  0.77003  0.29148  1.0000
  O   O111      1.0  0.69238  0.78846  0.37008  1.0000
  O   O112      1.0  0.65060  0.75076  0.34049  1.0000
  H   H111      1.0  0.68736  0.79115  0.42861  1.0000
  H   H112      1.0  0.64469  0.75265  0.39839  1.0000
  C   C269      1.0  0.20996  0.88351  0.28230  1.0000
  C   C270      1.0  0.23138  0.88389  0.28593  1.0000
  O   O113      1.0  0.20808  0.90014  0.32739  1.0000
  O   O114      1.0  0.24891  0.90063  0.33478  1.0000
  H   H113      1.0  0.20443  0.89495  0.39005  1.0000
  H   H114      1.0  0.24648  0.89524  0.39734  1.0000
  C   C271      1.0  0.88438  0.67919  0.27968  1.0000
  C   C272      1.0  0.88492  0.65823  0.28253  1.0000
  O   O115      1.0  0.90106  0.69774  0.32445  1.0000
  O   O116      1.0  0.90184  0.65756  0.33053  1.0000
  H   H115      1.0  0.89606  0.69611  0.38740  1.0000
  H   H116      1.0  0.89659  0.65454  0.39326  1.0000
  C   C273      1.0  0.33064  0.20846  0.27685  1.0000
  C   C274      1.0  0.35215  0.22935  0.27108  1.0000
  O   O117      1.0  0.31344  0.20824  0.32610  1.0000
  O   O118      1.0  0.35437  0.24819  0.31460  1.0000
  H   H117      1.0  0.31610  0.20568  0.38889  1.0000
  H   H118      1.0  0.35825  0.24700  0.37729  1.0000
  C   C275      1.0  0.79970  0.12444  0.27676  1.0000
  C   C276      1.0  0.77862  0.12474  0.27450  1.0000
  O   O119      1.0  0.80042  0.10735  0.32331  1.0000
  O   O120      1.0  0.76013  0.10780  0.31861  1.0000
  H   H119      1.0  0.80324  0.11226  0.38647  1.0000
  H   H120      1.0  0.76161  0.11262  0.38176  1.0000
  C   C277      1.0  0.36700  0.13179  0.41986  1.0000
  C   C278      1.0  0.35746  0.14232  0.47411  1.0000
  C   C279      1.0  0.33488  0.13812  0.45950  1.0000
  C   C280      1.0  0.32142  0.12422  0.38704  1.0000
  O   O121      1.0  0.32684  0.14930  0.51180  1.0000
  H   H121      1.0  0.33349  0.16503  0.48820  1.0000
  O   O122      1.0  0.36980  0.15626  0.54368  1.0000
  H   H122      1.0  0.37375  0.17199  0.52716  1.0000
  C   C281      1.0  0.76690  0.64583  0.39174  1.0000
  C   C282      1.0  0.78407  0.65982  0.45486  1.0000
  C   C283      1.0  0.80265  0.68162  0.43047  1.0000
  C   C284      1.0  0.80549  0.68918  0.34016  1.0000
  O   O123      1.0  0.81918  0.69385  0.49300  1.0000
  H   H123      1.0  0.82991  0.68788  0.49254  1.0000
  O   O124      1.0  0.78203  0.65244  0.54154  1.0000
  H   H124      1.0  0.79531  0.65055  0.55484  1.0000
  C   C285      1.0  0.87750  0.23757  0.41821  1.0000
  C   C286      1.0  0.86896  0.21788  0.47417  1.0000
  C   C287      1.0  0.87339  0.19984  0.45476  1.0000
  C   C288      1.0  0.88515  0.20015  0.37536  1.0000
  O   O125      1.0  0.86404  0.18090  0.50896  1.0000
  H   H125      1.0  0.84792  0.17117  0.49031  1.0000
  O   O126      1.0  0.85690  0.21649  0.54988  1.0000
  H   H126      1.0  0.84098  0.20413  0.54011  1.0000
  C   C289      1.0  0.63782  0.86426  0.44593  1.0000
  C   C290      1.0  0.64256  0.84871  0.49324  1.0000
  C   C291      1.0  0.66403  0.84990  0.48577  1.0000
  C   C292      1.0  0.68181  0.86686  0.43201  1.0000
  O   O127      1.0  0.66761  0.83427  0.53124  1.0000
  H   H127      1.0  0.65916  0.81952  0.49927  1.0000
  O   O128      1.0  0.62651  0.83238  0.54877  1.0000
  H   H128      1.0  0.62125  0.81734  0.52029  1.0000
  C   C293      1.0  0.23685  0.36590  0.42472  1.0000
  C   C294      1.0  0.21664  0.35657  0.47812  1.0000
  C   C295      1.0  0.19831  0.33394  0.46409  1.0000
  C   C296      1.0  0.19898  0.32021  0.39318  1.0000
  O   O129      1.0  0.17895  0.32607  0.51539  1.0000
  H   H129      1.0  0.17000  0.33276  0.49078  1.0000
  O   O130      1.0  0.21481  0.36914  0.54621  1.0000
  H   H130      1.0  0.20318  0.37314  0.52782  1.0000
  C   C297      1.0  0.12494  0.76602  0.38890  1.0000
  C   C298      1.0  0.12803  0.78314  0.45213  1.0000
  C   C299      1.0  0.12504  0.80184  0.42743  1.0000
  C   C300      1.0  0.12075  0.80494  0.33684  1.0000
  O   O131      1.0  0.12926  0.81832  0.49011  1.0000
  H   H131      1.0  0.14596  0.82900  0.49019  1.0000
  O   O132      1.0  0.13300  0.78089  0.53911  1.0000
  H   H132      1.0  0.14813  0.79413  0.55338  1.0000
  C   C301      1.0  0.24139  0.43690  0.39046  1.0000
  C   C302      1.0  0.22373  0.43382  0.45050  1.0000
  C   C303      1.0  0.20515  0.43644  0.42124  1.0000
  C   C304      1.0  0.20280  0.44008  0.32910  1.0000
  O   O133      1.0  0.18805  0.43217  0.48101  1.0000
  H   H133      1.0  0.17764  0.41541  0.48190  1.0000
  O   O134      1.0  0.22503  0.42884  0.53837  1.0000
  H   H134      1.0  0.21245  0.41311  0.54949  1.0000
  C   C305      1.0  0.56736  0.80357  0.36241  1.0000
  C   C306      1.0  0.56571  0.78621  0.42096  1.0000
  C   C307      1.0  0.56510  0.76625  0.38717  1.0000
  C   C308      1.0  0.56864  0.76457  0.29431  1.0000
  O   O135      1.0  0.56472  0.75078  0.44751  1.0000
  H   H135      1.0  0.58075  0.75638  0.46574  1.0000
  O   O136      1.0  0.56437  0.78871  0.51127  1.0000
  H   H136      1.0  0.57908  0.79184  0.53746  1.0000
  C   C309      1.0  0.19564  0.77009  0.42762  1.0000
  C   C310      1.0  0.20433  0.79016  0.48146  1.0000
  C   C311      1.0  0.22662  0.80896  0.46720  1.0000
  C   C312      1.0  0.24063  0.80867  0.39675  1.0000
  O   O137      1.0  0.23401  0.82830  0.51828  1.0000
  H   H137      1.0  0.22672  0.83676  0.49422  1.0000
  O   O138      1.0  0.19139  0.79148  0.54929  1.0000
  H   H138      1.0  0.18737  0.80315  0.53180  1.0000
  C   C313      1.0  0.77149  0.57938  0.42705  1.0000
  C   C314      1.0  0.79159  0.59066  0.48070  1.0000
  C   C315      1.0  0.81044  0.58731  0.46530  1.0000
  C   C316      1.0  0.81022  0.57337  0.39359  1.0000
  O   O139      1.0  0.82984  0.59924  0.51601  1.0000
  H   H139      1.0  0.83824  0.61499  0.49211  1.0000
  O   O140      1.0  0.79291  0.60472  0.54937  1.0000
  H   H140      1.0  0.80452  0.62047  0.53238  1.0000
  C   C317      1.0  0.43784  0.19848  0.38746  1.0000
  C   C318      1.0  0.43442  0.21295  0.44690  1.0000
  C   C319      1.0  0.43725  0.23422  0.41747  1.0000
  C   C320      1.0  0.44145  0.24042  0.32562  1.0000
  O   O141      1.0  0.43271  0.24698  0.47656  1.0000
  H   H141      1.0  0.41596  0.24069  0.47600  1.0000
  O   O142      1.0  0.42900  0.20654  0.53444  1.0000
  H   H142      1.0  0.41328  0.20356  0.54442  1.0000
  C   C321      1.0  0.80943  0.23962  0.40478  1.0000
  C   C322      1.0  0.79604  0.22095  0.46304  1.0000
  C   C323      1.0  0.77448  0.20263  0.43552  1.0000
  C   C324      1.0  0.76682  0.20172  0.34625  1.0000
  O   O143      1.0  0.76273  0.18456  0.49274  1.0000
  H   H143      1.0  0.76927  0.17441  0.48594  1.0000
  O   O144      1.0  0.80376  0.22099  0.54780  1.0000
  H   H144      1.0  0.80703  0.20830  0.55136  1.0000
  C   C325      1.0  0.13392  0.45159  0.38019  1.0000
  C   C326      1.0  0.12120  0.46317  0.38361  1.0000
  O   O145      1.0  0.15200  0.45865  0.43786  1.0000
  O   O146      1.0  0.12830  0.48124  0.44122  1.0000
  H   H145      1.0  0.16468  0.47299  0.41312  1.0000
  H   H146      1.0  0.11949  0.47491  0.49686  1.0000
  C   C327      1.0  0.55373  0.68280  0.35878  1.0000
  C   C328      1.0  0.54237  0.65855  0.36592  1.0000
  O   O147      1.0  0.54607  0.69425  0.41111  1.0000
  O   O148      1.0  0.52394  0.64802  0.42212  1.0000
  H   H147      1.0  0.53218  0.69258  0.38186  1.0000
  H   H148      1.0  0.52995  0.64623  0.47988  1.0000
  C   C329      1.0  0.32491  0.87352  0.39013  1.0000
  C   C330      1.0  0.34925  0.88575  0.38839  1.0000
  O   O149      1.0  0.31466  0.85674  0.45348  1.0000
  O   O150      1.0  0.36074  0.87945  0.44684  1.0000
  H   H149      1.0  0.31498  0.84318  0.43024  1.0000
  H   H150      1.0  0.36381  0.88909  0.50048  1.0000
  C   C331      1.0  0.87599  0.55540  0.38875  1.0000
  C   C332      1.0  0.88853  0.54362  0.38720  1.0000
  O   O151      1.0  0.85918  0.54868  0.45206  1.0000
  O   O152      1.0  0.88246  0.52590  0.44578  1.0000
  H   H151      1.0  0.84576  0.53465  0.42899  1.0000
  H   H152      1.0  0.89213  0.53257  0.49927  1.0000
  C   C333      1.0  0.45306  0.32083  0.37574  1.0000
  C   C334      1.0  0.46463  0.34513  0.38013  1.0000
  O   O153      1.0  0.45969  0.30964  0.43438  1.0000
  O   O154      1.0  0.48226  0.35591  0.43977  1.0000
  H   H153      1.0  0.47417  0.31132  0.41120  1.0000
  H   H154      1.0  0.47550  0.35814  0.49473  1.0000
  C   C335      1.0  0.68605  0.13278  0.38512  1.0000
  C   C336      1.0  0.66173  0.11999  0.38735  1.0000
  O   O155      1.0  0.69678  0.15055  0.44429  1.0000
  O   O156      1.0  0.65051  0.12675  0.44519  1.0000
  H   H155      1.0  0.69517  0.16333  0.42035  1.0000
  H   H156      1.0  0.64790  0.11770  0.50027  1.0000
  C   C337      1.0  0.46066  0.10079  0.35168  1.0000
  C   C338      1.0  0.44010  0.09205  0.40264  1.0000
  C   C339      1.0  0.42818  0.10436  0.41008  1.0000
  C   C340      1.0  0.43587  0.12548  0.36423  1.0000
  O   O157      1.0  0.40940  0.09542  0.46485  1.0000
  H   H157      1.0  0.41498  0.10236  0.52427  1.0000
  O   O158      1.0  0.43243  0.07262  0.45313  1.0000
  H   H158      1.0  0.41919  0.06033  0.42094  1.0000
  C   C341      1.0  0.64750  0.54500  0.33405  1.0000
  C   C342      1.0  0.65907  0.53666  0.38846  1.0000
  C   C343      1.0  0.68328  0.54921  0.39809  1.0000
  C   C344      1.0  0.69677  0.57091  0.35579  1.0000
  O   O159      1.0  0.69284  0.54094  0.45735  1.0000
  H   H159      1.0  0.69513  0.52957  0.42419  1.0000
  O   O160      1.0  0.64714  0.51684  0.43645  1.0000
  H   H160      1.0  0.64319  0.52118  0.49398  1.0000
  C   C345      1.0  0.90553  0.36120  0.36339  1.0000
  C   C346      1.0  0.91434  0.34954  0.41491  1.0000
  C   C347      1.0  0.90218  0.32533  0.42259  1.0000
  C   C348      1.0  0.88118  0.31177  0.37629  1.0000
  O   O161      1.0  0.91124  0.31561  0.47740  1.0000
  H   H161      1.0  0.90413  0.31401  0.53662  1.0000
  O   O162      1.0  0.93385  0.36150  0.46460  1.0000
  H   H162      1.0  0.94561  0.35894  0.43623  1.0000
  C   C349      1.0  0.54996  0.90411  0.35758  1.0000
  C   C350      1.0  0.56968  0.91151  0.41251  1.0000
  C   C351      1.0  0.58115  0.89869  0.41801  1.0000
  C   C352      1.0  0.57400  0.87859  0.36560  1.0000
  O   O163      1.0  0.59896  0.90607  0.47704  1.0000
  H   H163      1.0  0.59224  0.89839  0.53440  1.0000
  O   O164      1.0  0.57661  0.92997  0.46799  1.0000
  H   H164      1.0  0.59160  0.94203  0.44546  1.0000
  C   C353      1.0  0.36142  0.45826  0.35301  1.0000
  C   C354      1.0  0.34947  0.43791  0.40504  1.0000
  C   C355      1.0  0.32528  0.42635  0.41312  1.0000
  C   C356      1.0  0.31204  0.43420  0.36685  1.0000
  O   O165      1.0  0.31533  0.40778  0.46893  1.0000
  H   H165      1.0  0.31410  0.41363  0.52797  1.0000
  O   O166      1.0  0.36108  0.43015  0.45597  1.0000
  H   H166      1.0  0.35992  0.41674  0.42439  1.0000
  C   C357      1.0  0.10535  0.64645  0.33054  1.0000
  C   C358      1.0  0.12513  0.65774  0.38575  1.0000
  C   C359      1.0  0.13704  0.68194  0.39575  1.0000
  C   C360      1.0  0.12921  0.69569  0.35298  1.0000
  O   O167      1.0  0.15473  0.69126  0.45571  1.0000
  H   H167      1.0  0.16840  0.69342  0.42311  1.0000
  O   O168      1.0  0.13265  0.64555  0.43412  1.0000
  H   H168      1.0  0.12418  0.64158  0.49123  1.0000
  C   C361      1.0  0.12585  0.24882  0.35121  1.0000
  C   C362      1.0  0.13291  0.23578  0.40439  1.0000
  C   C363      1.0  0.12043  0.21145  0.40550  1.0000
  C   C364      1.0  0.10002  0.19885  0.35471  1.0000
  O   O169      1.0  0.12861  0.20044  0.45766  1.0000
  H   H169      1.0  0.12025  0.19707  0.51490  1.0000
  O   O170      1.0  0.15224  0.24599  0.45606  1.0000
  H   H170      1.0  0.14776  0.25015  0.51279  1.0000
  C   C365      1.0  0.75888  0.87907  0.34300  1.0000
  C   C366      1.0  0.77167  0.90001  0.39156  1.0000
  C   C367      1.0  0.79604  0.91226  0.39230  1.0000
  C   C368      1.0  0.80896  0.90411  0.34553  1.0000
  O   O171      1.0  0.80676  0.93191  0.44192  1.0000
  H   H171      1.0  0.81007  0.92753  0.50063  1.0000
  O   O172      1.0  0.76105  0.90931  0.43958  1.0000
  H   H172      1.0  0.75917  0.90315  0.50082  1.0000
  C   C369      1.0  0.12812  0.88111  0.33487  1.0000
  C   C370      1.0  0.10810  0.87394  0.38841  1.0000
  C   C371      1.0  0.09664  0.88679  0.39242  1.0000
  C   C372      1.0  0.10477  0.90763  0.34409  1.0000
  O   O173      1.0  0.07745  0.87846  0.44464  1.0000
  H   H173      1.0  0.08249  0.88645  0.50259  1.0000
  O   O174      1.0  0.09880  0.85419  0.43757  1.0000
  H   H174      1.0  0.10798  0.85790  0.49286  1.0000
  C   C373      1.0  0.88164  0.75823  0.33526  1.0000
  C   C374      1.0  0.87454  0.77121  0.38842  1.0000
  C   C375      1.0  0.88785  0.79548  0.39419  1.0000
  C   C376      1.0  0.90860  0.80809  0.34523  1.0000
  O   O175      1.0  0.87996  0.80642  0.44820  1.0000
  H   H175      1.0  0.88806  0.80900  0.50574  1.0000
  O   O176      1.0  0.85518  0.76058  0.43990  1.0000
  H   H176      1.0  0.84335  0.76255  0.40880  1.0000
  C   C377      1.0  0.25039  0.12706  0.34898  1.0000
  C   C378      1.0  0.23724  0.10703  0.40236  1.0000
  C   C379      1.0  0.21291  0.09547  0.40414  1.0000
  C   C380      1.0  0.20042  0.10351  0.35387  1.0000
  O   O177      1.0  0.20179  0.07630  0.45635  1.0000
  H   H177      1.0  0.19854  0.08136  0.51367  1.0000
  O   O178      1.0  0.24733  0.09771  0.45348  1.0000
  H   H178      1.0  0.25171  0.10636  0.51017  1.0000
  C   C381      1.0  0.88098  0.12572  0.34373  1.0000
  C   C382      1.0  0.90076  0.13244  0.39841  1.0000
  C   C383      1.0  0.91237  0.11973  0.40033  1.0000
  C   C384      1.0  0.90459  0.09942  0.34886  1.0000
  O   O179      1.0  0.93131  0.12761  0.45373  1.0000
  H   H179      1.0  0.92602  0.11907  0.51050  1.0000
  O   O180      1.0  0.90976  0.15164  0.45079  1.0000
  H   H180      1.0  0.90057  0.14719  0.50619  1.0000
  C   C385      1.0  0.09101  0.55587  0.42447  1.0000
  C   C386      1.0  0.09080  0.53475  0.42482  1.0000
  O   O181      1.0  0.08381  0.56192  0.49989  1.0000
  O   O182      1.0  0.08333  0.52161  0.50046  1.0000
  H   H181      1.0  0.09765  0.57466  0.52721  1.0000
  H   H182      1.0  0.09704  0.52255  0.52834  1.0000
  C   C387      1.0  0.45080  0.53637  0.42735  1.0000
  C   C388      1.0  0.47208  0.55711  0.42669  1.0000
  O   O183      1.0  0.44442  0.52372  0.50435  1.0000
  O   O184      1.0  0.48491  0.56338  0.50324  1.0000
  H   H183      1.0  0.43170  0.52519  0.52963  1.0000
  H   H184      1.0  0.48400  0.57646  0.52805  1.0000
  C   C389      1.0  0.46934  0.91085  0.41951  1.0000
  C   C390      1.0  0.44820  0.91067  0.41771  1.0000
  O   O185      1.0  0.47995  0.91360  0.50020  1.0000
  O   O186      1.0  0.43958  0.91327  0.49684  1.0000
  H   H185      1.0  0.47763  0.89840  0.51646  1.0000
  H   H186      1.0  0.42633  0.89814  0.51113  1.0000
  C   C391      1.0  0.91305  0.44873  0.41709  1.0000
  C   C392      1.0  0.91333  0.46992  0.41595  1.0000
  O   O187      1.0  0.91550  0.44054  0.49751  1.0000
  O   O188      1.0  0.91605  0.48104  0.49541  1.0000
  H   H187      1.0  0.90016  0.42783  0.51337  1.0000
  H   H188      1.0  0.90102  0.47946  0.50953  1.0000
  C   C393      1.0  0.55676  0.46858  0.43080  1.0000
  C   C394      1.0  0.53569  0.44764  0.43103  1.0000
  O   O189      1.0  0.56241  0.48212  0.50533  1.0000
  O   O190      1.0  0.52228  0.44223  0.50585  1.0000
  H   H189      1.0  0.57514  0.48131  0.53419  1.0000
  H   H190      1.0  0.52293  0.42940  0.53475  1.0000
  C   C395      1.0  0.54102  0.09358  0.42027  1.0000
  C   C396      1.0  0.56200  0.09346  0.41990  1.0000
  O   O191      1.0  0.52959  0.08972  0.49967  1.0000
  O   O192      1.0  0.56970  0.08958  0.49894  1.0000
  H   H191      1.0  0.53146  0.10460  0.51823  1.0000
  H   H192      1.0  0.58281  0.10444  0.51716  1.0000
  C   C397      1.0  0.02839  0.45267  0.32601  1.0000
  C   C398      1.0  0.01613  0.43485  0.38878  1.0000
  C   C399      1.0  0.99184  0.42323  0.39076  1.0000
  C   C400      1.0  0.97952  0.42924  0.32969  1.0000
  O   O193      1.0  0.98066  0.40809  0.45868  1.0000
  H   H193      1.0  0.98283  0.39483  0.44882  1.0000
  O   O194      1.0  0.02745  0.43028  0.45424  1.0000
  H   H194      1.0  0.02908  0.41737  0.43205  1.0000
  C   C401      1.0  0.55516  0.57659  0.34517  1.0000
  C   C402      1.0  0.54859  0.55780  0.40446  1.0000
  C   C403      1.0  0.56038  0.54536  0.40452  1.0000
  C   C404      1.0  0.57908  0.55138  0.34535  1.0000
  O   O195      1.0  0.55295  0.52730  0.46244  1.0000
  H   H195      1.0  0.56327  0.53302  0.51463  1.0000
  O   O196      1.0  0.53058  0.55087  0.46233  1.0000
  H   H196      1.0  0.53650  0.56130  0.51419  1.0000
  C   C405      1.0  0.43127  0.97806  0.34156  1.0000
  C   C406      1.0  0.45170  0.99023  0.39290  1.0000
  C   C407      1.0  0.46422  0.01445  0.39309  1.0000
  C   C408      1.0  0.45661  0.02722  0.34225  1.0000
  O   O197      1.0  0.48376  0.02497  0.44357  1.0000
  H   H197      1.0  0.47948  0.02927  0.50043  1.0000
  O   O198      1.0  0.46011  0.97917  0.44356  1.0000
  H   H198      1.0  0.45123  0.97476  0.49970  1.0000
  C   C409      1.0  0.98102  0.55458  0.33985  1.0000
  C   C410      1.0  0.99316  0.54734  0.39651  1.0000
  C   C411      1.0  0.01737  0.55904  0.39665  1.0000
  C   C412      1.0  0.03016  0.57831  0.34005  1.0000
  O   O199      1.0  0.02787  0.55097  0.45229  1.0000
  H   H199      1.0  0.03251  0.56081  0.50593  1.0000
  O   O200      1.0  0.98199  0.52880  0.45190  1.0000
  H   H200      1.0  0.97758  0.53427  0.50539  1.0000
  C   C413      1.0  0.45367  0.42743  0.34734  1.0000
  C   C414      1.0  0.46137  0.44731  0.40173  1.0000
  C   C415      1.0  0.44987  0.46001  0.40090  1.0000
  C   C416      1.0  0.43025  0.45312  0.34606  1.0000
  O   O201      1.0  0.45835  0.47906  0.45409  1.0000
  H   H201      1.0  0.44900  0.47431  0.50907  1.0000
  O   O202      1.0  0.48013  0.45504  0.45612  1.0000
  H   H202      1.0  0.47487  0.44554  0.51066  1.0000
  C   C417      1.0  0.57983  0.02715  0.32733  1.0000
  C   C418      1.0  0.58726  0.01502  0.38285  1.0000
  C   C419      1.0  0.57499  0.99072  0.38489  1.0000
  C   C420      1.0  0.55510  0.97811  0.33123  1.0000
  O   O203      1.0  0.58131  0.97983  0.44604  1.0000
  H   H203      1.0  0.59544  0.98073  0.42271  1.0000
  O   O204      1.0  0.60488  0.02642  0.44205  1.0000
  H   H204      1.0  0.61863  0.02769  0.41322  1.0000
  C   C421      1.0  0.12349  0.13637  0.39138  1.0000
  C   C422      1.0  0.13607  0.12456  0.39068  1.0000
  O   O205      1.0  0.13251  0.15645  0.43825  1.0000
  O   O206      1.0  0.15626  0.13411  0.43704  1.0000
  H   H205      1.0  0.14396  0.16844  0.39871  1.0000
  H   H206      1.0  0.16806  0.14550  0.39675  1.0000
  C   C423      1.0  0.87128  0.98969  0.38351  1.0000
  C   C424      1.0  0.88312  0.01406  0.38308  1.0000
  O   O207      1.0  0.85084  0.97864  0.42798  1.0000
  O   O208      1.0  0.87321  0.02467  0.42725  1.0000
  H   H207      1.0  0.83921  0.97827  0.38679  1.0000
  H   H208      1.0  0.86219  0.02517  0.38510  1.0000
  C   C425      1.0  0.01879  0.88394  0.37886  1.0000
  C   C426      1.0  0.99440  0.87152  0.37862  1.0000
  O   O209      1.0  0.02975  0.87402  0.42032  1.0000
  O   O210      1.0  0.98375  0.85061  0.41992  1.0000
  H   H209      1.0  0.03034  0.86339  0.37644  1.0000
  H   H210      1.0  0.98316  0.83946  0.37561  1.0000
  C   C427      1.0  0.88561  0.87070  0.38490  1.0000
  C   C428      1.0  0.87307  0.88256  0.38437  1.0000
  O   O211      1.0  0.87634  0.85038  0.43022  1.0000
  O   O212      1.0  0.85267  0.87282  0.42933  1.0000
  H   H211      1.0  0.86503  0.83862  0.38958  1.0000
  H   H212      1.0  0.84104  0.86167  0.38788  1.0000
  C   C429      1.0  0.13826  0.01751  0.38404  1.0000
  C   C430      1.0  0.12643  0.99312  0.38245  1.0000
  O   O213      1.0  0.15882  0.02841  0.42778  1.0000
  O   O214      1.0  0.13647  0.98240  0.42488  1.0000
  H   H213      1.0  0.17039  0.02921  0.38522  1.0000
  H   H214      1.0  0.14738  0.98204  0.38178  1.0000
  C   C431      1.0  0.99041  0.12274  0.38593  1.0000
  C   C432      1.0  0.01479  0.13512  0.38651  1.0000
  O   O215      1.0  0.97937  0.13225  0.42972  1.0000
  O   O216      1.0  0.02539  0.15561  0.43086  1.0000
  H   H215      1.0  0.97890  0.14333  0.38783  1.0000
  H   H216      1.0  0.02600  0.16718  0.38869  1.0000
