data_image0
_chemical_formula_structural       C3HCH3CHC3HCH3CHC3HCH3CHC3HCH3CHC3HCH3CHC3HCH3CHC3HCH3CHC3HCH3CHC3HCH3CHC3HCH3CHC3HCH3CHC3HCH3CHC3HCH3CHC3HCH3CHC3HCH3CHC3HCH3CHC3HCH3CHC3HCH3CHC3HCH3CHC3HCH3CHC3HCH3CHC3HCH3CHC3HCH3CHC3HCH3CHC3HCH3CHC3HCH3CHC3HCH3CHC3HCH3CHC3HCH3CHC3HCH3CHC3HCH3CHC3HCH3CHC3HCH3CHC3HCH3CHC3HCH3CHC3HCH3CHC6H3N3C6H3N3C6H3N3C6H3N3C6H3N3C6H3N3C6H3N3C6H3N3C6H3N3C6H3N3C6H3N3C6H3N3C6H3N3C6H3N3C6H3N3C6H3N3C6H3N3C6H3N3C6H3N3C6H3N3C6H3N3C6H3N3C6H3N3C6H3N3C3HCH3CHC3HCH3CHC3HCH3CHC3HCH3CHC3HCH3CHC3HCH3CHC3HCH3CHC3HCH3CHC3HCH3CHC3HCH3CHC3HCH3CHC3HCH3CHC3HCH3CHC3HCH3CHC3HCH3CHC3HCH3CHC3HCH3CHC3HCH3CHC3HCH3CHC3HCH3CHC3HCH3CHC3HCH3CHC3HCH3CHC3HCH3CHC3HCH3CHC3HCH3CHC3HCH3CHC3HCH3CHC3HCH3CHC3HCH3CHC3HCH3CHC3HCH3CHC3HCH3CHC3HCH3CHC3HCH3CHC3HCH3CH
_chemical_formula_sum              "C504 H432 N72"
_cell_length_a       83.575
_cell_length_b       83.575
_cell_length_c       14.7816
_cell_angle_alpha    90
_cell_angle_beta     90
_cell_angle_gamma    120

_space_group_name_H-M_alt    "P 1"
_space_group_IT_number       1

loop_
  _space_group_symop_operation_xyz
  'x, y, z'

loop_
  _atom_site_type_symbol
  _atom_site_label
  _atom_site_symmetry_multiplicity
  _atom_site_fract_x
  _atom_site_fract_y
  _atom_site_fract_z
  _atom_site_occupancy
  C   C1        1.0  0.14888  0.45143  0.32523  1.0000
  C   C2        1.0  0.14218  0.43808  0.25431  1.0000
  C   C3        1.0  0.13344  0.41905  0.27635  1.0000
  H   H1        1.0  0.12971  0.40965  0.22468  1.0000
  C   C4        1.0  0.14445  0.44290  0.15623  1.0000
  H   H2        1.0  0.14991  0.45758  0.14363  1.0000
  H   H3        1.0  0.13107  0.43550  0.12228  1.0000
  H   H4        1.0  0.15378  0.43887  0.12539  1.0000
  C   C5        1.0  0.16176  0.46998  0.30899  1.0000
  H   H5        1.0  0.17164  0.47245  0.26425  1.0000
  C   C6        1.0  0.56705  0.70117  0.32530  1.0000
  C   C7        1.0  0.58039  0.70780  0.25431  1.0000
  C   C8        1.0  0.59942  0.71809  0.27634  1.0000
  H   H6        1.0  0.60881  0.72378  0.22466  1.0000
  C   C9        1.0  0.57557  0.70526  0.15623  1.0000
  H   H7        1.0  0.56089  0.69605  0.14361  1.0000
  H   H8        1.0  0.58297  0.69929  0.12226  1.0000
  H   H9        1.0  0.57959  0.71862  0.12542  1.0000
  C   C10       1.0  0.54849  0.69545  0.30895  1.0000
  H   H10       1.0  0.54602  0.70287  0.26420  1.0000
  C   C11       1.0  0.31732  0.86958  0.32522  1.0000
  C   C12       1.0  0.31067  0.87628  0.25429  1.0000
  C   C13       1.0  0.30037  0.88502  0.27633  1.0000
  H   H11       1.0  0.29470  0.88874  0.22466  1.0000
  C   C14       1.0  0.31322  0.87401  0.15621  1.0000
  H   H12       1.0  0.32244  0.86855  0.14362  1.0000
  H   H13       1.0  0.31919  0.88739  0.12227  1.0000
  H   H14       1.0  0.29986  0.86468  0.12537  1.0000
  C   C15       1.0  0.32300  0.85671  0.30898  1.0000
  H   H15       1.0  0.31558  0.84682  0.26423  1.0000
  C   C16       1.0  0.87326  0.56335  0.32529  1.0000
  C   C17       1.0  0.87996  0.57669  0.25431  1.0000
  C   C18       1.0  0.88871  0.59572  0.27634  1.0000
  H   H16       1.0  0.89241  0.60511  0.22465  1.0000
  C   C19       1.0  0.87768  0.57186  0.15622  1.0000
  H   H17       1.0  0.87222  0.55719  0.14361  1.0000
  H   H18       1.0  0.89106  0.57927  0.12226  1.0000
  H   H19       1.0  0.86834  0.57589  0.12542  1.0000
  C   C20       1.0  0.86042  0.54479  0.30894  1.0000
  H   H20       1.0  0.85053  0.54232  0.26420  1.0000
  C   C21       1.0  0.45513  0.31363  0.32524  1.0000
  C   C22       1.0  0.44177  0.30698  0.25431  1.0000
  C   C23       1.0  0.42275  0.29669  0.27635  1.0000
  H   H21       1.0  0.41334  0.29101  0.22468  1.0000
  C   C24       1.0  0.44660  0.30954  0.15623  1.0000
  H   H22       1.0  0.46127  0.31876  0.14364  1.0000
  H   H23       1.0  0.43919  0.31552  0.12231  1.0000
  H   H24       1.0  0.44257  0.29618  0.12537  1.0000
  C   C25       1.0  0.47368  0.31931  0.30899  1.0000
  H   H25       1.0  0.47615  0.31190  0.26423  1.0000
  C   C26       1.0  0.70485  0.14519  0.32530  1.0000
  C   C27       1.0  0.71149  0.13849  0.25431  1.0000
  C   C28       1.0  0.72177  0.12974  0.27635  1.0000
  H   H26       1.0  0.72746  0.12604  0.22466  1.0000
  C   C29       1.0  0.70895  0.14077  0.15623  1.0000
  H   H27       1.0  0.69974  0.14623  0.14362  1.0000
  H   H28       1.0  0.70298  0.12740  0.12226  1.0000
  H   H29       1.0  0.72231  0.15011  0.12543  1.0000
  C   C30       1.0  0.69914  0.15804  0.30896  1.0000
  H   H30       1.0  0.70656  0.16793  0.26421  1.0000
  C   C31       1.0  0.41679  0.12776  0.33509  1.0000
  C   C32       1.0  0.43001  0.13297  0.26408  1.0000
  C   C33       1.0  0.44907  0.14205  0.28581  1.0000
  H   H31       1.0  0.45846  0.14685  0.23382  1.0000
  C   C34       1.0  0.42507  0.13004  0.16620  1.0000
  H   H32       1.0  0.41023  0.12200  0.15419  1.0000
  H   H33       1.0  0.43124  0.12259  0.13469  1.0000
  H   H34       1.0  0.43038  0.14338  0.13251  1.0000
  C   C35       1.0  0.39842  0.12274  0.31867  1.0000
  H   H35       1.0  0.39615  0.13057  0.27575  1.0000
  C   C36       1.0  0.72574  0.60168  0.33511  1.0000
  C   C37       1.0  0.71772  0.58847  0.26408  1.0000
  C   C38       1.0  0.70774  0.56941  0.28578  1.0000
  H   H36       1.0  0.70312  0.56002  0.23380  1.0000
  C   C39       1.0  0.71971  0.59343  0.16623  1.0000
  H   H37       1.0  0.72650  0.60827  0.15428  1.0000
  H   H38       1.0  0.70608  0.58726  0.13479  1.0000
  H   H39       1.0  0.72772  0.58812  0.13243  1.0000
  C   C40       1.0  0.73911  0.62005  0.31879  1.0000
  H   H40       1.0  0.74920  0.62232  0.27581  1.0000
  C   C41       1.0  0.89067  0.29269  0.33508  1.0000
  C   C42       1.0  0.88548  0.30071  0.26404  1.0000
  C   C43       1.0  0.87642  0.31071  0.28579  1.0000
  H   H41       1.0  0.87162  0.31530  0.23381  1.0000
  C   C44       1.0  0.88841  0.29870  0.16617  1.0000
  H   H42       1.0  0.89645  0.29190  0.15416  1.0000
  H   H43       1.0  0.89588  0.31233  0.13469  1.0000
  H   H44       1.0  0.87508  0.29070  0.13246  1.0000
  C   C45       1.0  0.89570  0.27935  0.31864  1.0000
  H   H45       1.0  0.88788  0.26925  0.27569  1.0000
  C   C46       1.0  0.60537  0.88701  0.33511  1.0000
  C   C47       1.0  0.59216  0.88182  0.26408  1.0000
  C   C48       1.0  0.57310  0.87274  0.28578  1.0000
  H   H46       1.0  0.56370  0.86796  0.23380  1.0000
  C   C49       1.0  0.59712  0.88478  0.16623  1.0000
  H   H47       1.0  0.61196  0.89283  0.15428  1.0000
  H   H48       1.0  0.59095  0.89225  0.13479  1.0000
  H   H49       1.0  0.59181  0.87146  0.13243  1.0000
  C   C50       1.0  0.62374  0.89201  0.31879  1.0000
  H   H50       1.0  0.62601  0.88418  0.27581  1.0000
  C   C51       1.0  0.29640  0.41311  0.33508  1.0000
  C   C52       1.0  0.30442  0.42632  0.26404  1.0000
  C   C53       1.0  0.31442  0.44538  0.28580  1.0000
  H   H51       1.0  0.31901  0.45477  0.23381  1.0000
  C   C54       1.0  0.30241  0.42137  0.16617  1.0000
  H   H52       1.0  0.29561  0.40654  0.15416  1.0000
  H   H53       1.0  0.31604  0.42755  0.13469  1.0000
  H   H54       1.0  0.29440  0.42670  0.13246  1.0000
  C   C55       1.0  0.28306  0.39473  0.31864  1.0000
  H   H55       1.0  0.27296  0.39245  0.27569  1.0000
  C   C56       1.0  0.13143  0.72204  0.33512  1.0000
  C   C57       1.0  0.13662  0.71401  0.26410  1.0000
  C   C58       1.0  0.14571  0.70404  0.28580  1.0000
  H   H56       1.0  0.15049  0.69942  0.23382  1.0000
  C   C59       1.0  0.13366  0.71600  0.16625  1.0000
  H   H57       1.0  0.12560  0.72279  0.15430  1.0000
  H   H58       1.0  0.12620  0.70237  0.13482  1.0000
  H   H59       1.0  0.14698  0.72402  0.13245  1.0000
  C   C60       1.0  0.12643  0.73540  0.31880  1.0000
  H   H60       1.0  0.13425  0.74549  0.27581  1.0000
  C   C61       1.0  0.25330  0.52539  0.32282  1.0000
  C   C62       1.0  0.26456  0.52470  0.25239  1.0000
  C   C63       1.0  0.28107  0.52489  0.27563  1.0000
  H   H61       1.0  0.28849  0.52317  0.22503  1.0000
  C   C64       1.0  0.25979  0.52310  0.15435  1.0000
  H   H62       1.0  0.24772  0.52444  0.14028  1.0000
  H   H63       1.0  0.25712  0.50973  0.12879  1.0000
  H   H64       1.0  0.27133  0.53400  0.11658  1.0000
  C   C65       1.0  0.23514  0.52100  0.30743  1.0000
  H   H65       1.0  0.22754  0.51038  0.26661  1.0000
  C   C66       1.0  0.49308  0.73161  0.32287  1.0000
  C   C67       1.0  0.49378  0.74357  0.25245  1.0000
  C   C68       1.0  0.49359  0.75989  0.27569  1.0000
  H   H66       1.0  0.49529  0.76902  0.22509  1.0000
  C   C69       1.0  0.49537  0.74038  0.15441  1.0000
  H   H67       1.0  0.49402  0.72696  0.14038  1.0000
  H   H68       1.0  0.50874  0.75108  0.12883  1.0000
  H   H69       1.0  0.48447  0.74102  0.11664  1.0000
  C   C70       1.0  0.49750  0.71786  0.30761  1.0000
  H   H70       1.0  0.50811  0.72087  0.26671  1.0000
  C   C71       1.0  0.28686  0.76517  0.32285  1.0000
  C   C72       1.0  0.27491  0.75390  0.25243  1.0000
  C   C73       1.0  0.25859  0.73739  0.27567  1.0000
  H   H71       1.0  0.24945  0.72998  0.22508  1.0000
  C   C74       1.0  0.27808  0.75867  0.15438  1.0000
  H   H72       1.0  0.29150  0.77074  0.14030  1.0000
  H   H73       1.0  0.26739  0.76134  0.12880  1.0000
  H   H74       1.0  0.27745  0.74713  0.11662  1.0000
  C   C75       1.0  0.30063  0.78333  0.30744  1.0000
  H   H75       1.0  0.29762  0.79092  0.26659  1.0000
  C   C76       1.0  0.76885  0.48938  0.32287  1.0000
  C   C77       1.0  0.75759  0.49008  0.25245  1.0000
  C   C78       1.0  0.74109  0.48990  0.27568  1.0000
  H   H76       1.0  0.73366  0.49160  0.22509  1.0000
  C   C79       1.0  0.76236  0.49167  0.15441  1.0000
  H   H77       1.0  0.77444  0.49032  0.14038  1.0000
  H   H78       1.0  0.76504  0.50504  0.12882  1.0000
  H   H79       1.0  0.75083  0.48077  0.11664  1.0000
  C   C80       1.0  0.78702  0.49380  0.30760  1.0000
  H   H80       1.0  0.79462  0.50441  0.26670  1.0000
  C   C81       1.0  0.52909  0.28318  0.32280  1.0000
  C   C82       1.0  0.52839  0.27122  0.25238  1.0000
  C   C83       1.0  0.52859  0.25490  0.27561  1.0000
  H   H81       1.0  0.52687  0.24577  0.22501  1.0000
  C   C84       1.0  0.52680  0.27439  0.15433  1.0000
  H   H82       1.0  0.52814  0.28781  0.14027  1.0000
  H   H83       1.0  0.51343  0.26370  0.12877  1.0000
  H   H84       1.0  0.53770  0.27376  0.11656  1.0000
  C   C85       1.0  0.52470  0.29694  0.30741  1.0000
  H   H85       1.0  0.51408  0.29392  0.26659  1.0000
  C   C86       1.0  0.73530  0.24961  0.32284  1.0000
  C   C87       1.0  0.74726  0.26087  0.25239  1.0000
  C   C88       1.0  0.76358  0.27737  0.27561  1.0000
  H   H86       1.0  0.77271  0.28480  0.22501  1.0000
  C   C89       1.0  0.74407  0.25609  0.15437  1.0000
  H   H87       1.0  0.73065  0.24401  0.14035  1.0000
  H   H88       1.0  0.75477  0.25341  0.12879  1.0000
  H   H89       1.0  0.74471  0.26762  0.11658  1.0000
  C   C90       1.0  0.72156  0.23144  0.30760  1.0000
  H   H90       1.0  0.72457  0.22384  0.26671  1.0000
  C   C91       1.0  0.18621  0.57801  0.32964  1.0000
  C   C92       1.0  0.18444  0.58854  0.25860  1.0000
  C   C93       1.0  0.18494  0.60533  0.27972  1.0000
  H   H91       1.0  0.18475  0.61333  0.22754  1.0000
  C   C94       1.0  0.18267  0.58330  0.16120  1.0000
  H   H92       1.0  0.18123  0.56974  0.15000  1.0000
  H   H93       1.0  0.19484  0.59350  0.12425  1.0000
  H   H94       1.0  0.17045  0.58292  0.13254  1.0000
  C   C95       1.0  0.19013  0.56390  0.31277  1.0000
  H   H95       1.0  0.20003  0.56655  0.26787  1.0000
  C   C96       1.0  0.44045  0.61192  0.32972  1.0000
  C   C97       1.0  0.42991  0.59962  0.25864  1.0000
  C   C98       1.0  0.41314  0.58332  0.27979  1.0000
  H   H96       1.0  0.40512  0.57515  0.22759  1.0000
  C   C99       1.0  0.43514  0.60311  0.16122  1.0000
  H   H97       1.0  0.44868  0.61522  0.14996  1.0000
  H   H98       1.0  0.42492  0.60507  0.12437  1.0000
  H   H99       1.0  0.43551  0.59127  0.13247  1.0000
  C   C100      1.0  0.45457  0.62993  0.31278  1.0000
  H   H100      1.0  0.45193  0.63719  0.26785  1.0000
  C   C101      1.0  0.40657  0.83226  0.32964  1.0000
  C   C102      1.0  0.41888  0.83402  0.25860  1.0000
  C   C103      1.0  0.43516  0.83352  0.27971  1.0000
  H   H101      1.0  0.44335  0.83371  0.22754  1.0000
  C   C104      1.0  0.41539  0.83578  0.16119  1.0000
  H   H102      1.0  0.40329  0.83723  0.14999  1.0000
  H   H103      1.0  0.41343  0.82362  0.12425  1.0000
  H   H104      1.0  0.42725  0.84801  0.13253  1.0000
  C   C105      1.0  0.38855  0.82834  0.31277  1.0000
  H   H105      1.0  0.38129  0.81843  0.26787  1.0000
  C   C106      1.0  0.83591  0.43674  0.32971  1.0000
  C   C107      1.0  0.83767  0.42621  0.25863  1.0000
  C   C108      1.0  0.83720  0.40944  0.27977  1.0000
  H   H106      1.0  0.83736  0.40143  0.22757  1.0000
  C   C109      1.0  0.83940  0.43144  0.16121  1.0000
  H   H107      1.0  0.84084  0.44499  0.14995  1.0000
  H   H108      1.0  0.82723  0.42122  0.12436  1.0000
  H   H109      1.0  0.85162  0.43181  0.13247  1.0000
  C   C110      1.0  0.83202  0.45087  0.31277  1.0000
  H   H110      1.0  0.82212  0.44823  0.26784  1.0000
  C   C111      1.0  0.58171  0.40289  0.32964  1.0000
  C   C112      1.0  0.59224  0.41519  0.25859  1.0000
  C   C113      1.0  0.60903  0.43147  0.27971  1.0000
  H   H111      1.0  0.61703  0.43966  0.22754  1.0000
  C   C114      1.0  0.58700  0.41171  0.16119  1.0000
  H   H112      1.0  0.57344  0.39960  0.14999  1.0000
  H   H113      1.0  0.59720  0.40975  0.12425  1.0000
  H   H114      1.0  0.58662  0.42356  0.13253  1.0000
  C   C115      1.0  0.56760  0.38486  0.31276  1.0000
  H   H115      1.0  0.57025  0.37760  0.26786  1.0000
  C   C116      1.0  0.61561  0.18256  0.32971  1.0000
  C   C117      1.0  0.60331  0.18079  0.25864  1.0000
  C   C118      1.0  0.58702  0.18127  0.27979  1.0000
  H   H116      1.0  0.57885  0.18111  0.22759  1.0000
  C   C119      1.0  0.60681  0.17906  0.16121  1.0000
  H   H117      1.0  0.61892  0.17762  0.14996  1.0000
  H   H118      1.0  0.60877  0.19123  0.12437  1.0000
  H   H119      1.0  0.59496  0.16684  0.13247  1.0000
  C   C120      1.0  0.63363  0.18645  0.31277  1.0000
  H   H120      1.0  0.64089  0.19634  0.26785  1.0000
  C   C121      1.0  0.03026  0.30425  0.33089  1.0000
  C   C122      1.0  0.01740  0.29888  0.25779  1.0000
  C   C123      1.0  0.99808  0.28894  0.27544  1.0000
  H   H121      1.0  0.98913  0.28622  0.22250  1.0000
  C   C124      1.0  0.02310  0.30375  0.16155  1.0000
  H   H122      1.0  0.03797  0.31026  0.15139  1.0000
  H   H123      1.0  0.01861  0.31320  0.13701  1.0000
  H   H124      1.0  0.01664  0.29126  0.12007  1.0000
  C   C125      1.0  0.04903  0.31777  0.32064  1.0000
  H   H125      1.0  0.05141  0.32908  0.28725  1.0000
  C   C126      1.0  0.71422  0.72972  0.33079  1.0000
  C   C127      1.0  0.71964  0.72227  0.25770  1.0000
  C   C128      1.0  0.72956  0.71287  0.27539  1.0000
  H   H126      1.0  0.73233  0.70669  0.22244  1.0000
  C   C129      1.0  0.71482  0.72315  0.16142  1.0000
  H   H127      1.0  0.70831  0.73152  0.15130  1.0000
  H   H128      1.0  0.70539  0.70923  0.13667  1.0000
  H   H129      1.0  0.72733  0.72921  0.12011  1.0000
  C   C130      1.0  0.70070  0.73497  0.32058  1.0000
  H   H130      1.0  0.68941  0.72606  0.28708  1.0000
  C   C131      1.0  0.28875  0.98819  0.33089  1.0000
  C   C132      1.0  0.29624  0.00105  0.25779  1.0000
  C   C133      1.0  0.30563  0.02037  0.27544  1.0000
  H   H131      1.0  0.31185  0.02932  0.22250  1.0000
  C   C134      1.0  0.29541  0.99536  0.16154  1.0000
  H   H132      1.0  0.28704  0.98048  0.15138  1.0000
  H   H133      1.0  0.30935  0.99984  0.13701  1.0000
  H   H134      1.0  0.28938  0.00181  0.12007  1.0000
  C   C135      1.0  0.28350  0.96942  0.32063  1.0000
  H   H135      1.0  0.29242  0.96704  0.28724  1.0000
  C   C136      1.0  0.99188  0.71052  0.33079  1.0000
  C   C137      1.0  0.00474  0.71594  0.25770  1.0000
  C   C138      1.0  0.02406  0.72585  0.27539  1.0000
  H   H136      1.0  0.03301  0.72863  0.22244  1.0000
  C   C139      1.0  0.99904  0.71112  0.16142  1.0000
  H   H137      1.0  0.98417  0.70461  0.15130  1.0000
  H   H138      1.0  0.00353  0.70169  0.13666  1.0000
  H   H139      1.0  0.00549  0.72363  0.12011  1.0000
  C   C140      1.0  0.97311  0.69700  0.32057  1.0000
  H   H140      1.0  0.97072  0.68570  0.28708  1.0000
  C   C141      1.0  0.30796  0.28507  0.33090  1.0000
  C   C142      1.0  0.30258  0.29256  0.25781  1.0000
  C   C143      1.0  0.29265  0.30195  0.27545  1.0000
  H   H141      1.0  0.28992  0.30817  0.22250  1.0000
  C   C144      1.0  0.30746  0.29174  0.16156  1.0000
  H   H142      1.0  0.31396  0.28337  0.15140  1.0000
  H   H143      1.0  0.31691  0.30567  0.13702  1.0000
  H   H144      1.0  0.29497  0.28570  0.12008  1.0000
  C   C145      1.0  0.32147  0.27982  0.32065  1.0000
  H   H145      1.0  0.33278  0.28875  0.28727  1.0000
  C   C146      1.0  0.73340  0.02656  0.33080  1.0000
  C   C147      1.0  0.72595  0.01370  0.25771  1.0000
  C   C148      1.0  0.71655  0.99438  0.27540  1.0000
  H   H146      1.0  0.71038  0.98543  0.22246  1.0000
  C   C149      1.0  0.72683  0.01940  0.16144  1.0000
  H   H147      1.0  0.73520  0.03427  0.15131  1.0000
  H   H148      1.0  0.71291  0.01490  0.13668  1.0000
  H   H149      1.0  0.73290  0.01295  0.12013  1.0000
  C   C150      1.0  0.73865  0.04533  0.32059  1.0000
  H   H150      1.0  0.72974  0.04772  0.28710  1.0000
  C   C151      1.0  0.19146  0.33493  0.32887  1.0000
  C   C152      1.0  0.18050  0.33568  0.25658  1.0000
  C   C153      1.0  0.16365  0.33532  0.27578  1.0000
  H   H151      1.0  0.15666  0.33712  0.22336  1.0000
  C   C154      1.0  0.18613  0.33764  0.15968  1.0000
  H   H152      1.0  0.19842  0.33652  0.14847  1.0000
  H   H153      1.0  0.18886  0.35103  0.13423  1.0000
  H   H154      1.0  0.17500  0.32678  0.11974  1.0000
  C   C155      1.0  0.21016  0.34010  0.31692  1.0000
  H   H155      1.0  0.21760  0.35148  0.28047  1.0000
  C   C156      1.0  0.68357  0.86024  0.32871  1.0000
  C   C157      1.0  0.68286  0.84855  0.25647  1.0000
  C   C158      1.0  0.68320  0.83205  0.27569  1.0000
  H   H156      1.0  0.68145  0.82327  0.22327  1.0000
  C   C159      1.0  0.68096  0.85225  0.15955  1.0000
  H   H157      1.0  0.68207  0.86566  0.14839  1.0000
  H   H158      1.0  0.66758  0.84159  0.13389  1.0000
  H   H159      1.0  0.69185  0.85200  0.11977  1.0000
  C   C160      1.0  0.67839  0.87377  0.31685  1.0000
  H   H160      1.0  0.66700  0.86981  0.28045  1.0000
  C   C161      1.0  0.15820  0.82700  0.32881  1.0000
  C   C162      1.0  0.16992  0.83796  0.25655  1.0000
  C   C163      1.0  0.18642  0.85480  0.27575  1.0000
  H   H161      1.0  0.19521  0.86180  0.22332  1.0000
  C   C164      1.0  0.16625  0.83233  0.15966  1.0000
  H   H162      1.0  0.15284  0.82004  0.14845  1.0000
  H   H163      1.0  0.17691  0.82959  0.13419  1.0000
  H   H164      1.0  0.16652  0.84346  0.11971  1.0000
  C   C165      1.0  0.14468  0.80829  0.31689  1.0000
  H   H165      1.0  0.14864  0.80085  0.28056  1.0000
  C   C166      1.0  0.83071  0.67988  0.32871  1.0000
  C   C167      1.0  0.84169  0.67917  0.25647  1.0000
  C   C168      1.0  0.85852  0.67950  0.27569  1.0000
  H   H166      1.0  0.86555  0.67775  0.22327  1.0000
  C   C169      1.0  0.83609  0.67727  0.15955  1.0000
  H   H167      1.0  0.82379  0.67838  0.14839  1.0000
  H   H168      1.0  0.83337  0.66389  0.13389  1.0000
  H   H169      1.0  0.84722  0.68815  0.11976  1.0000
  C   C170      1.0  0.81200  0.67470  0.31685  1.0000
  H   H170      1.0  0.80457  0.66331  0.28045  1.0000
  C   C171      1.0  0.33864  0.15455  0.32882  1.0000
  C   C172      1.0  0.33937  0.16625  0.25653  1.0000
  C   C173      1.0  0.33901  0.18274  0.27575  1.0000
  H   H171      1.0  0.34080  0.19154  0.22334  1.0000
  C   C174      1.0  0.34132  0.16258  0.15962  1.0000
  H   H172      1.0  0.34021  0.14917  0.14841  1.0000
  H   H173      1.0  0.35472  0.17325  0.13414  1.0000
  H   H174      1.0  0.33046  0.16284  0.11971  1.0000
  C   C175      1.0  0.34379  0.14101  0.31687  1.0000
  H   H175      1.0  0.35517  0.14495  0.28040  1.0000
  C   C176      1.0  0.86392  0.18774  0.32877  1.0000
  C   C177      1.0  0.85223  0.17675  0.25652  1.0000
  C   C178      1.0  0.83573  0.15992  0.27574  1.0000
  H   H176      1.0  0.82695  0.15289  0.22331  1.0000
  C   C179      1.0  0.85593  0.18236  0.15960  1.0000
  H   H177      1.0  0.86934  0.19465  0.14845  1.0000
  H   H178      1.0  0.84527  0.18507  0.13394  1.0000
  H   H179      1.0  0.85569  0.17123  0.11982  1.0000
  C   C180      1.0  0.87744  0.20645  0.31693  1.0000
  H   H180      1.0  0.87349  0.21388  0.28048  1.0000
  C   C181      1.0  0.20974  0.52457  0.34642  1.0000
  C   C182      1.0  0.20536  0.53879  0.34901  1.0000
  C   C183      1.0  0.18677  0.53485  0.35008  1.0000
  C   C184      1.0  0.17246  0.51612  0.35227  1.0000
  C   C185      1.0  0.17641  0.50151  0.34909  1.0000
  C   C186      1.0  0.19515  0.50607  0.34871  1.0000
  H   H181      1.0  0.15899  0.51307  0.35545  1.0000
  H   H182      1.0  0.19826  0.49569  0.35248  1.0000
  H   H183      1.0  0.21590  0.55223  0.35120  1.0000
  N   N1        1.0  0.22739  0.52883  0.34945  1.0000
  N   N2        1.0  0.18271  0.54843  0.35612  1.0000
  N   N3        1.0  0.16295  0.48376  0.35432  1.0000
  C   C187      1.0  0.49392  0.68888  0.34639  1.0000
  C   C188      1.0  0.47969  0.67027  0.34900  1.0000
  C   C189      1.0  0.48363  0.65563  0.35016  1.0000
  C   C190      1.0  0.50235  0.66004  0.35233  1.0000
  C   C191      1.0  0.51697  0.67860  0.34916  1.0000
  C   C192      1.0  0.51241  0.69278  0.34876  1.0000
  H   H184      1.0  0.50540  0.64961  0.35552  1.0000
  H   H185      1.0  0.52279  0.70626  0.35249  1.0000
  H   H186      1.0  0.46625  0.66738  0.35124  1.0000
  N   N4        1.0  0.48965  0.70225  0.34949  1.0000
  N   N5        1.0  0.47004  0.63799  0.35620  1.0000
  N   N6        1.0  0.53471  0.68288  0.35438  1.0000
  C   C193      1.0  0.32960  0.80872  0.34643  1.0000
  C   C194      1.0  0.34820  0.81311  0.34901  1.0000
  C   C195      1.0  0.36285  0.83169  0.35008  1.0000
  C   C196      1.0  0.35843  0.84600  0.35226  1.0000
  C   C197      1.0  0.33987  0.84205  0.34909  1.0000
  C   C198      1.0  0.32569  0.82332  0.34872  1.0000
  H   H187      1.0  0.36886  0.85948  0.35544  1.0000
  H   H188      1.0  0.31221  0.82020  0.35248  1.0000
  H   H189      1.0  0.35110  0.80257  0.35122  1.0000
  N   N7        1.0  0.31622  0.79108  0.34947  1.0000
  N   N8        1.0  0.38049  0.83575  0.35612  1.0000
  N   N9        1.0  0.33558  0.85551  0.35432  1.0000
  C   C199      1.0  0.81242  0.49022  0.34639  1.0000
  C   C200      1.0  0.81680  0.47599  0.34900  1.0000
  C   C201      1.0  0.83538  0.47992  0.35016  1.0000
  C   C202      1.0  0.84970  0.49865  0.35233  1.0000
  C   C203      1.0  0.84575  0.51327  0.34916  1.0000
  C   C204      1.0  0.82701  0.50871  0.34876  1.0000
  H   H190      1.0  0.86317  0.50170  0.35551  1.0000
  H   H191      1.0  0.82391  0.51909  0.35250  1.0000
  H   H192      1.0  0.80625  0.46255  0.35124  1.0000
  N   N10       1.0  0.79478  0.48595  0.34949  1.0000
  N   N11       1.0  0.83943  0.46633  0.35620  1.0000
  N   N12       1.0  0.85921  0.53101  0.35438  1.0000
  C   C205      1.0  0.52827  0.32591  0.34641  1.0000
  C   C206      1.0  0.54249  0.34452  0.34900  1.0000
  C   C207      1.0  0.53854  0.35916  0.35008  1.0000
  C   C208      1.0  0.51981  0.35474  0.35227  1.0000
  C   C209      1.0  0.50521  0.33618  0.34909  1.0000
  C   C210      1.0  0.50977  0.32200  0.34871  1.0000
  H   H193      1.0  0.51677  0.36517  0.35546  1.0000
  H   H194      1.0  0.49939  0.30852  0.35247  1.0000
  H   H195      1.0  0.55593  0.34742  0.35120  1.0000
  N   N13       1.0  0.53253  0.31253  0.34944  1.0000
  N   N14       1.0  0.55213  0.37680  0.35612  1.0000
  N   N15       1.0  0.48746  0.33189  0.35433  1.0000
  C   C211      1.0  0.69257  0.20604  0.34639  1.0000
  C   C212      1.0  0.67397  0.20167  0.34901  1.0000
  C   C213      1.0  0.65932  0.18308  0.35016  1.0000
  C   C214      1.0  0.66373  0.16876  0.35233  1.0000
  C   C215      1.0  0.68229  0.17271  0.34916  1.0000
  C   C216      1.0  0.69647  0.19144  0.34875  1.0000
  H   H196      1.0  0.65330  0.15529  0.35552  1.0000
  H   H197      1.0  0.70996  0.19455  0.35248  1.0000
  H   H198      1.0  0.67107  0.21221  0.35123  1.0000
  N   N16       1.0  0.70595  0.22368  0.34947  1.0000
  N   N17       1.0  0.64168  0.17904  0.35620  1.0000
  N   N18       1.0  0.68657  0.15925  0.35438  1.0000
  C   C217      1.0  0.52871  0.20660  0.34591  1.0000
  C   C218      1.0  0.54293  0.20221  0.34466  1.0000
  C   C219      1.0  0.53900  0.18363  0.34804  1.0000
  C   C220      1.0  0.52025  0.16933  0.34844  1.0000
  C   C221      1.0  0.50565  0.17331  0.34997  1.0000
  C   C222      1.0  0.51021  0.19204  0.34645  1.0000
  H   H199      1.0  0.51718  0.15584  0.34838  1.0000
  H   H200      1.0  0.49985  0.19516  0.34192  1.0000
  H   H201      1.0  0.55634  0.21274  0.34043  1.0000
  N   N19       1.0  0.53286  0.22416  0.33931  1.0000
  N   N20       1.0  0.55251  0.17942  0.34453  1.0000
  N   N21       1.0  0.48788  0.15983  0.34656  1.0000
  C   C223      1.0  0.69267  0.48977  0.34592  1.0000
  C   C224      1.0  0.67407  0.47555  0.34462  1.0000
  C   C225      1.0  0.65942  0.47948  0.34791  1.0000
  C   C226      1.0  0.66386  0.49823  0.34834  1.0000
  C   C227      1.0  0.68244  0.51284  0.34987  1.0000
  C   C228      1.0  0.69661  0.50827  0.34639  1.0000
  H   H202      1.0  0.65344  0.50130  0.34828  1.0000
  H   H203      1.0  0.71009  0.51863  0.34193  1.0000
  H   H204      1.0  0.67119  0.46214  0.34040  1.0000
  N   N22       1.0  0.70608  0.48562  0.33937  1.0000
  N   N23       1.0  0.64169  0.46596  0.34443  1.0000
  N   N24       1.0  0.68672  0.53060  0.34649  1.0000
  C   C229      1.0  0.81187  0.32581  0.34588  1.0000
  C   C230      1.0  0.81626  0.34441  0.34463  1.0000
  C   C231      1.0  0.83484  0.35906  0.34801  1.0000
  C   C232      1.0  0.84914  0.35461  0.34842  1.0000
  C   C233      1.0  0.84516  0.33603  0.34995  1.0000
  C   C234      1.0  0.82644  0.32187  0.34642  1.0000
  H   H205      1.0  0.86263  0.36503  0.34836  1.0000
  H   H206      1.0  0.82331  0.30838  0.34189  1.0000
  H   H207      1.0  0.80572  0.34729  0.34041  1.0000
  N   N25       1.0  0.79431  0.31239  0.33928  1.0000
  N   N26       1.0  0.83905  0.37678  0.34450  1.0000
  N   N27       1.0  0.85864  0.33175  0.34654  1.0000
  C   C235      1.0  0.49346  0.80817  0.34593  1.0000
  C   C236      1.0  0.47924  0.81256  0.34464  1.0000
  C   C237      1.0  0.48317  0.83114  0.34792  1.0000
  C   C238      1.0  0.50192  0.84544  0.34834  1.0000
  C   C239      1.0  0.51652  0.84147  0.34988  1.0000
  C   C240      1.0  0.51196  0.82274  0.34639  1.0000
  H   H208      1.0  0.50499  0.85894  0.34827  1.0000
  H   H209      1.0  0.52232  0.81962  0.34192  1.0000
  H   H210      1.0  0.46583  0.80202  0.34041  1.0000
  N   N28       1.0  0.48931  0.79062  0.33937  1.0000
  N   N29       1.0  0.46965  0.83534  0.34443  1.0000
  N   N30       1.0  0.53428  0.85495  0.34649  1.0000
  C   C241      1.0  0.32950  0.52502  0.34593  1.0000
  C   C242      1.0  0.34811  0.53924  0.34467  1.0000
  C   C243      1.0  0.36275  0.53530  0.34805  1.0000
  C   C244      1.0  0.35831  0.51655  0.34844  1.0000
  C   C245      1.0  0.33972  0.50195  0.34997  1.0000
  C   C246      1.0  0.32556  0.50651  0.34645  1.0000
  H   H211      1.0  0.36873  0.51348  0.34837  1.0000
  H   H212      1.0  0.31208  0.49615  0.34192  1.0000
  H   H213      1.0  0.35098  0.55265  0.34045  1.0000
  N   N31       1.0  0.31609  0.52916  0.33933  1.0000
  N   N32       1.0  0.38048  0.54882  0.34453  1.0000
  N   N33       1.0  0.33545  0.48419  0.34655  1.0000
  C   C247      1.0  0.21028  0.68897  0.34597  1.0000
  C   C248      1.0  0.20590  0.67037  0.34467  1.0000
  C   C249      1.0  0.18732  0.65572  0.34795  1.0000
  C   C250      1.0  0.17302  0.66017  0.34837  1.0000
  C   C251      1.0  0.17699  0.67875  0.34992  1.0000
  C   C252      1.0  0.19572  0.69291  0.34644  1.0000
  H   H214      1.0  0.15952  0.64974  0.34830  1.0000
  H   H215      1.0  0.19884  0.70640  0.34196  1.0000
  H   H216      1.0  0.21643  0.66750  0.34044  1.0000
  N   N34       1.0  0.22785  0.70238  0.33939  1.0000
  N   N35       1.0  0.18312  0.63799  0.34445  1.0000
  N   N36       1.0  0.16351  0.68303  0.34652  1.0000
  C   C253      1.0  0.10699  0.36246  0.34760  1.0000
  C   C254      1.0  0.08798  0.34917  0.34882  1.0000
  C   C255      1.0  0.08152  0.32989  0.34826  1.0000
  C   C256      1.0  0.09506  0.32427  0.34798  1.0000
  C   C257      1.0  0.11437  0.33719  0.34702  1.0000
  C   C258      1.0  0.11987  0.35620  0.34449  1.0000
  H   H217      1.0  0.09077  0.31046  0.34788  1.0000
  H   H218      1.0  0.13361  0.36576  0.33852  1.0000
  H   H219      1.0  0.07868  0.35372  0.35112  1.0000
  N   N37       1.0  0.11225  0.38044  0.34278  1.0000
  N   N38       1.0  0.06321  0.31714  0.35182  1.0000
  N   N39       1.0  0.12720  0.33181  0.34073  1.0000
  C   C259      1.0  0.65601  0.74823  0.34761  1.0000
  C   C260      1.0  0.66930  0.74252  0.34878  1.0000
  C   C261      1.0  0.68859  0.75534  0.34826  1.0000
  C   C262      1.0  0.69419  0.77449  0.34795  1.0000
  C   C263      1.0  0.68128  0.78088  0.34694  1.0000
  C   C264      1.0  0.66227  0.76738  0.34444  1.0000
  H   H220      1.0  0.70801  0.78402  0.34784  1.0000
  H   H221      1.0  0.65271  0.77156  0.33849  1.0000
  H   H222      1.0  0.66475  0.72866  0.35112  1.0000
  N   N40       1.0  0.63803  0.73550  0.34277  1.0000
  N   N41       1.0  0.70133  0.74978  0.35181  1.0000
  N   N42       1.0  0.68665  0.79909  0.34064  1.0000
  C   C265      1.0  0.27023  0.91146  0.34758  1.0000
  C   C266      1.0  0.27594  0.93047  0.34880  1.0000
  C   C267      1.0  0.26312  0.93692  0.34825  1.0000
  C   C268      1.0  0.24397  0.92338  0.34798  1.0000
  C   C269      1.0  0.23758  0.90408  0.34700  1.0000
  C   C270      1.0  0.25108  0.89857  0.34447  1.0000
  H   H223      1.0  0.23445  0.92768  0.34788  1.0000
  H   H224      1.0  0.24690  0.88484  0.33850  1.0000
  H   H225      1.0  0.28981  0.93977  0.35111  1.0000
  N   N43       1.0  0.28295  0.90620  0.34277  1.0000
  N   N44       1.0  0.26868  0.95523  0.35181  1.0000
  N   N45       1.0  0.21937  0.89125  0.34072  1.0000
  C   C271      1.0  0.91515  0.65231  0.34761  1.0000
  C   C272      1.0  0.93416  0.66560  0.34878  1.0000
  C   C273      1.0  0.94061  0.68488  0.34826  1.0000
  C   C274      1.0  0.92707  0.69049  0.34795  1.0000
  C   C275      1.0  0.90777  0.67758  0.34694  1.0000
  C   C276      1.0  0.90226  0.65857  0.34444  1.0000
  H   H226      1.0  0.93137  0.70431  0.34784  1.0000
  H   H227      1.0  0.88853  0.64901  0.33849  1.0000
  H   H228      1.0  0.94346  0.66104  0.35112  1.0000
  N   N46       1.0  0.90990  0.63433  0.34277  1.0000
  N   N47       1.0  0.95892  0.69763  0.35181  1.0000
  N   N48       1.0  0.89493  0.68295  0.34065  1.0000
  C   C277      1.0  0.36616  0.26654  0.34761  1.0000
  C   C278      1.0  0.35287  0.27226  0.34882  1.0000
  C   C279      1.0  0.33359  0.25944  0.34827  1.0000
  C   C280      1.0  0.32798  0.24029  0.34799  1.0000
  C   C281      1.0  0.34089  0.23389  0.34702  1.0000
  C   C282      1.0  0.35990  0.24740  0.34449  1.0000
  H   H229      1.0  0.31416  0.23077  0.34790  1.0000
  H   H230      1.0  0.36946  0.24322  0.33853  1.0000
  H   H231      1.0  0.35743  0.28612  0.35113  1.0000
  N   N49       1.0  0.38415  0.27927  0.34278  1.0000
  N   N50       1.0  0.32084  0.26500  0.35183  1.0000
  N   N51       1.0  0.33551  0.21569  0.34073  1.0000
  C   C283      1.0  0.75191  0.10329  0.34763  1.0000
  C   C284      1.0  0.74620  0.08428  0.34878  1.0000
  C   C285      1.0  0.75902  0.07783  0.34828  1.0000
  C   C286      1.0  0.77817  0.09137  0.34797  1.0000
  C   C287      1.0  0.78456  0.11067  0.34696  1.0000
  C   C288      1.0  0.77106  0.11618  0.34445  1.0000
  H   H232      1.0  0.78770  0.08707  0.34787  1.0000
  H   H233      1.0  0.77524  0.12991  0.33851  1.0000
  H   H234      1.0  0.73234  0.07498  0.35113  1.0000
  N   N52       1.0  0.73918  0.10854  0.34278  1.0000
  N   N53       1.0  0.75346  0.05952  0.35183  1.0000
  N   N54       1.0  0.80277  0.12351  0.34068  1.0000
  C   C289      1.0  0.36656  0.10418  0.35313  1.0000
  C   C290      1.0  0.35319  0.08520  0.35050  1.0000
  C   C291      1.0  0.33396  0.07891  0.34773  1.0000
  C   C292      1.0  0.32847  0.09253  0.34604  1.0000
  C   C293      1.0  0.34146  0.11180  0.34889  1.0000
  C   C294      1.0  0.36041  0.11716  0.35476  1.0000
  H   H235      1.0  0.31468  0.08831  0.34318  1.0000
  H   H236      1.0  0.37002  0.13085  0.36164  1.0000
  H   H237      1.0  0.35763  0.07579  0.34920  1.0000
  N   N55       1.0  0.38452  0.10935  0.35938  1.0000
  N   N56       1.0  0.32126  0.06064  0.34140  1.0000
  N   N57       1.0  0.33603  0.12463  0.35251  1.0000
  C   C295      1.0  0.75239  0.65191  0.35311  1.0000
  C   C296      1.0  0.74678  0.66528  0.35051  1.0000
  C   C297      1.0  0.75971  0.68451  0.34765  1.0000
  C   C298      1.0  0.77882  0.69001  0.34596  1.0000
  C   C299      1.0  0.78512  0.67703  0.34889  1.0000
  C   C300      1.0  0.77153  0.65807  0.35476  1.0000
  H   H238      1.0  0.78839  0.70380  0.34307  1.0000
  H   H239      1.0  0.77562  0.64846  0.36164  1.0000
  H   H240      1.0  0.73293  0.66084  0.34918  1.0000
  N   N58       1.0  0.73961  0.63396  0.35940  1.0000
  N   N59       1.0  0.75414  0.69720  0.34129  1.0000
  N   N60       1.0  0.80338  0.68246  0.35244  1.0000
  C   C301      1.0  0.91427  0.26606  0.35312  1.0000
  C   C302      1.0  0.93325  0.27167  0.35049  1.0000
  C   C303      1.0  0.93954  0.25873  0.34772  1.0000
  C   C304      1.0  0.92593  0.23962  0.34602  1.0000
  C   C305      1.0  0.90665  0.23333  0.34888  1.0000
  C   C306      1.0  0.90129  0.24693  0.35474  1.0000
  H   H241      1.0  0.93014  0.23005  0.34315  1.0000
  H   H242      1.0  0.88759  0.24284  0.36162  1.0000
  H   H243      1.0  0.94265  0.28551  0.34920  1.0000
  N   N61       1.0  0.90909  0.27884  0.35938  1.0000
  N   N62       1.0  0.95781  0.26430  0.34139  1.0000
  N   N63       1.0  0.89382  0.21507  0.35248  1.0000
  C   C307      1.0  0.65560  0.91059  0.35311  1.0000
  C   C308      1.0  0.66897  0.92957  0.35051  1.0000
  C   C309      1.0  0.68820  0.93587  0.34765  1.0000
  C   C310      1.0  0.69370  0.92225  0.34597  1.0000
  C   C311      1.0  0.68072  0.90298  0.34889  1.0000
  C   C312      1.0  0.66176  0.89761  0.35476  1.0000
  H   H244      1.0  0.70749  0.92647  0.34307  1.0000
  H   H245      1.0  0.65215  0.88391  0.36164  1.0000
  H   H246      1.0  0.66453  0.93897  0.34918  1.0000
  N   N64       1.0  0.63765  0.90542  0.35940  1.0000
  N   N65       1.0  0.70089  0.95413  0.34129  1.0000
  N   N66       1.0  0.68615  0.89015  0.35244  1.0000
  C   C313      1.0  0.26977  0.36288  0.35313  1.0000
  C   C314      1.0  0.27538  0.34951  0.35050  1.0000
  C   C315      1.0  0.26244  0.33027  0.34773  1.0000
  C   C316      1.0  0.24333  0.32478  0.34604  1.0000
  C   C317      1.0  0.23704  0.33776  0.34890  1.0000
  C   C318      1.0  0.25064  0.35672  0.35476  1.0000
  H   H247      1.0  0.23376  0.31100  0.34319  1.0000
  H   H248      1.0  0.24655  0.36633  0.36165  1.0000
  H   H249      1.0  0.28922  0.35394  0.34920  1.0000
  N   N67       1.0  0.28255  0.38083  0.35938  1.0000
  N   N68       1.0  0.26801  0.31757  0.34140  1.0000
  N   N69       1.0  0.21878  0.33233  0.35252  1.0000
  C   C319      1.0  0.10785  0.74868  0.35314  1.0000
  C   C320      1.0  0.08887  0.74307  0.35054  1.0000
  C   C321      1.0  0.08258  0.75601  0.34767  1.0000
  C   C322      1.0  0.09619  0.77512  0.34598  1.0000
  C   C323      1.0  0.11547  0.78141  0.34892  1.0000
  C   C324      1.0  0.12083  0.76782  0.35480  1.0000
  H   H250      1.0  0.09197  0.78469  0.34307  1.0000
  H   H251      1.0  0.13453  0.77191  0.36168  1.0000
  H   H252      1.0  0.07947  0.72923  0.34920  1.0000
  N   N70       1.0  0.11302  0.73590  0.35943  1.0000
  N   N71       1.0  0.06431  0.75043  0.34130  1.0000
  N   N72       1.0  0.12829  0.79967  0.35246  1.0000
  C   C325      1.0  0.13085  0.41268  0.36679  1.0000
  C   C326      1.0  0.13658  0.42596  0.43777  1.0000
  C   C327      1.0  0.14554  0.44500  0.41571  1.0000
  H   H253      1.0  0.15072  0.45444  0.46744  1.0000
  C   C328      1.0  0.13429  0.42110  0.53577  1.0000
  H   H254      1.0  0.12629  0.40628  0.54821  1.0000
  H   H255      1.0  0.12709  0.42734  0.56924  1.0000
  H   H256      1.0  0.14784  0.42641  0.56718  1.0000
  C   C329      1.0  0.12585  0.39429  0.38268  1.0000
  H   H257      1.0  0.13388  0.39198  0.42398  1.0000
  C   C330      1.0  0.60579  0.72186  0.36679  1.0000
  C   C331      1.0  0.59252  0.71429  0.43778  1.0000
  C   C332      1.0  0.57347  0.70422  0.41576  1.0000
  H   H258      1.0  0.56403  0.69993  0.46748  1.0000
  C   C333      1.0  0.59739  0.71685  0.53577  1.0000
  H   H259      1.0  0.61221  0.72367  0.54815  1.0000
  H   H260      1.0  0.59115  0.70341  0.56920  1.0000
  H   H261      1.0  0.59208  0.72509  0.56726  1.0000
  C   C334      1.0  0.62417  0.73525  0.38257  1.0000
  H   H262      1.0  0.62648  0.74559  0.42393  1.0000
  C   C335      1.0  0.29659  0.88760  0.36676  1.0000
  C   C336      1.0  0.30415  0.88188  0.43774  1.0000
  C   C337      1.0  0.31423  0.87292  0.41570  1.0000
  H   H263      1.0  0.31849  0.86774  0.46742  1.0000
  C   C338      1.0  0.30157  0.88416  0.53574  1.0000
  H   H264      1.0  0.29474  0.89216  0.54819  1.0000
  H   H265      1.0  0.31501  0.89137  0.56923  1.0000
  H   H266      1.0  0.29334  0.87062  0.56716  1.0000
  C   C339      1.0  0.28321  0.89260  0.38265  1.0000
  H   H267      1.0  0.27286  0.88457  0.42396  1.0000
  C   C340      1.0  0.89131  0.60209  0.36679  1.0000
  C   C341      1.0  0.88560  0.58881  0.43778  1.0000
  C   C342      1.0  0.87662  0.56977  0.41576  1.0000
  H   H268      1.0  0.87147  0.56033  0.46748  1.0000
  C   C343      1.0  0.88791  0.59369  0.53577  1.0000
  H   H269      1.0  0.89591  0.60851  0.54815  1.0000
  H   H270      1.0  0.89512  0.58745  0.56920  1.0000
  H   H271      1.0  0.87437  0.58838  0.56725  1.0000
  C   C344      1.0  0.89629  0.62047  0.38256  1.0000
  H   H272      1.0  0.88826  0.62278  0.42392  1.0000
  C   C345      1.0  0.41638  0.29289  0.36679  1.0000
  C   C346      1.0  0.42966  0.30046  0.43778  1.0000
  C   C347      1.0  0.44870  0.31054  0.41572  1.0000
  H   H273      1.0  0.45814  0.31481  0.46744  1.0000
  C   C348      1.0  0.42480  0.29789  0.53579  1.0000
  H   H274      1.0  0.40998  0.29106  0.54823  1.0000
  H   H275      1.0  0.43104  0.31133  0.56925  1.0000
  H   H276      1.0  0.43012  0.28965  0.56720  1.0000
  C   C349      1.0  0.39799  0.27952  0.38270  1.0000
  H   H277      1.0  0.39568  0.26918  0.42405  1.0000
  C   C350      1.0  0.72554  0.12713  0.36680  1.0000
  C   C351      1.0  0.71797  0.13284  0.43779  1.0000
  C   C352      1.0  0.70791  0.14183  0.41576  1.0000
  H   H278      1.0  0.70362  0.14698  0.46748  1.0000
  C   C353      1.0  0.72053  0.13053  0.53577  1.0000
  H   H279      1.0  0.72735  0.12253  0.54816  1.0000
  H   H280      1.0  0.70709  0.12333  0.56921  1.0000
  H   H281      1.0  0.72877  0.14407  0.56726  1.0000
  C   C354      1.0  0.73893  0.12215  0.38258  1.0000
  H   H282      1.0  0.74927  0.13018  0.42395  1.0000
  C   C355      1.0  0.45559  0.14600  0.37606  1.0000
  C   C356      1.0  0.44229  0.13981  0.44722  1.0000
  C   C357      1.0  0.42324  0.13095  0.42545  1.0000
  H   H283      1.0  0.41389  0.12761  0.47707  1.0000
  C   C358      1.0  0.44721  0.14275  0.54515  1.0000
  H   H284      1.0  0.46190  0.14828  0.55778  1.0000
  H   H285      1.0  0.43983  0.12961  0.58122  1.0000
  H   H286      1.0  0.44323  0.15230  0.57373  1.0000
  C   C359      1.0  0.47416  0.15896  0.39109  1.0000
  H   H287      1.0  0.47670  0.16918  0.43380  1.0000
  C   C360      1.0  0.70521  0.56290  0.37600  1.0000
  C   C361      1.0  0.71231  0.57618  0.44723  1.0000
  C   C362      1.0  0.72250  0.59523  0.42547  1.0000
  H   H288      1.0  0.72853  0.60458  0.47710  1.0000
  C   C363      1.0  0.71035  0.57126  0.54516  1.0000
  H   H289      1.0  0.70120  0.55657  0.55780  1.0000
  H   H290      1.0  0.70461  0.57865  0.58127  1.0000
  H   H291      1.0  0.72388  0.57524  0.57368  1.0000
  C   C364      1.0  0.69956  0.54431  0.39113  1.0000
  H   H292      1.0  0.70725  0.54178  0.43384  1.0000
  C   C365      1.0  0.87247  0.31328  0.37605  1.0000
  C   C366      1.0  0.87865  0.30617  0.44721  1.0000
  C   C367      1.0  0.88750  0.29596  0.42545  1.0000
  H   H293      1.0  0.89084  0.28995  0.47706  1.0000
  C   C368      1.0  0.87572  0.30815  0.54513  1.0000
  H   H294      1.0  0.87020  0.31731  0.55777  1.0000
  H   H295      1.0  0.88886  0.31390  0.58120  1.0000
  H   H296      1.0  0.86616  0.29462  0.57373  1.0000
  C   C369      1.0  0.85951  0.31889  0.39109  1.0000
  H   H297      1.0  0.84929  0.31121  0.43381  1.0000
  C   C370      1.0  0.56658  0.86875  0.37601  1.0000
  C   C371      1.0  0.57986  0.87494  0.44723  1.0000
  C   C372      1.0  0.59892  0.88380  0.42547  1.0000
  H   H298      1.0  0.60827  0.88712  0.47710  1.0000
  C   C373      1.0  0.57495  0.87198  0.54516  1.0000
  H   H299      1.0  0.56026  0.86645  0.55781  1.0000
  H   H300      1.0  0.58234  0.88511  0.58127  1.0000
  H   H301      1.0  0.57892  0.86242  0.57369  1.0000
  C   C374      1.0  0.54800  0.85582  0.39114  1.0000
  H   H302      1.0  0.54546  0.84560  0.43385  1.0000
  C   C375      1.0  0.31698  0.45189  0.37605  1.0000
  C   C376      1.0  0.30987  0.43860  0.44722  1.0000
  C   C377      1.0  0.29967  0.41955  0.42545  1.0000
  H   H303      1.0  0.29366  0.41019  0.47706  1.0000
  C   C378      1.0  0.31185  0.44351  0.54514  1.0000
  H   H304      1.0  0.32101  0.45820  0.55777  1.0000
  H   H305      1.0  0.31760  0.43612  0.58120  1.0000
  H   H306      1.0  0.29832  0.43954  0.57374  1.0000
  C   C379      1.0  0.32259  0.47047  0.39109  1.0000
  H   H307      1.0  0.31491  0.47300  0.43381  1.0000
  C   C380      1.0  0.14970  0.70151  0.37603  1.0000
  C   C381      1.0  0.14352  0.70861  0.44725  1.0000
  C   C382      1.0  0.13465  0.71880  0.42549  1.0000
  H   H308      1.0  0.13133  0.72483  0.47712  1.0000
  C   C383      1.0  0.14647  0.70665  0.54518  1.0000
  H   H309      1.0  0.15201  0.69750  0.55783  1.0000
  H   H310      1.0  0.13334  0.70091  0.58129  1.0000
  H   H311      1.0  0.15603  0.72019  0.57370  1.0000
  C   C384      1.0  0.16264  0.69587  0.39115  1.0000
  H   H312      1.0  0.17286  0.70356  0.43385  1.0000
  C   C385      1.0  0.28696  0.52609  0.36641  1.0000
  C   C386      1.0  0.27629  0.52794  0.43634  1.0000
  C   C387      1.0  0.25961  0.52741  0.41325  1.0000
  H   H313      1.0  0.25143  0.52758  0.46456  1.0000
  C   C388      1.0  0.28124  0.52980  0.53419  1.0000
  H   H314      1.0  0.29478  0.53133  0.54678  1.0000
  H   H315      1.0  0.27096  0.51765  0.57092  1.0000
  H   H316      1.0  0.28147  0.54202  0.56196  1.0000
  C   C389      1.0  0.30095  0.52220  0.38495  1.0000
  H   H317      1.0  0.29845  0.51263  0.43167  1.0000
  C   C390      1.0  0.49241  0.76458  0.36647  1.0000
  C   C391      1.0  0.49054  0.75205  0.43643  1.0000
  C   C392      1.0  0.49106  0.73590  0.41332  1.0000
  H   H318      1.0  0.49090  0.72755  0.46464  1.0000
  C   C393      1.0  0.48868  0.75514  0.53428  1.0000
  H   H319      1.0  0.48716  0.76716  0.54691  1.0000
  H   H320      1.0  0.50083  0.75699  0.57101  1.0000
  H   H321      1.0  0.47645  0.74315  0.56203  1.0000
  C   C394      1.0  0.49626  0.78244  0.38513  1.0000
  H   H322      1.0  0.50584  0.78952  0.43178  1.0000
  C   C395      1.0  0.25390  0.73151  0.36646  1.0000
  C   C396      1.0  0.26642  0.74218  0.43638  1.0000
  C   C397      1.0  0.28257  0.75886  0.41329  1.0000
  H   H323      1.0  0.29093  0.76705  0.46458  1.0000
  C   C398      1.0  0.26333  0.73724  0.53424  1.0000
  H   H324      1.0  0.25131  0.72370  0.54685  1.0000
  H   H325      1.0  0.26147  0.74753  0.57095  1.0000
  H   H326      1.0  0.27532  0.73701  0.56202  1.0000
  C   C399      1.0  0.23602  0.71752  0.38502  1.0000
  H   H327      1.0  0.22895  0.72003  0.43168  1.0000
  C   C400      1.0  0.73522  0.48872  0.36647  1.0000
  C   C401      1.0  0.74587  0.48685  0.43642  1.0000
  C   C402      1.0  0.76255  0.48737  0.41332  1.0000
  H   H328      1.0  0.77074  0.48721  0.46464  1.0000
  C   C403      1.0  0.74093  0.48499  0.53428  1.0000
  H   H329      1.0  0.72739  0.48348  0.54690  1.0000
  H   H330      1.0  0.75122  0.49714  0.57100  1.0000
  H   H331      1.0  0.74069  0.47276  0.56203  1.0000
  C   C404      1.0  0.72120  0.49257  0.38513  1.0000
  H   H332      1.0  0.72370  0.50215  0.43178  1.0000
  C   C405      1.0  0.52978  0.25022  0.36639  1.0000
  C   C406      1.0  0.53164  0.26273  0.43632  1.0000
  C   C407      1.0  0.53111  0.27888  0.41324  1.0000
  H   H333      1.0  0.53129  0.28724  0.46454  1.0000
  C   C408      1.0  0.53350  0.25965  0.53418  1.0000
  H   H334      1.0  0.53503  0.24763  0.54677  1.0000
  H   H335      1.0  0.52135  0.25778  0.57091  1.0000
  H   H336      1.0  0.54572  0.27164  0.56194  1.0000
  C   C409      1.0  0.52590  0.23233  0.38494  1.0000
  H   H337      1.0  0.51633  0.22527  0.43166  1.0000
  C   C410      1.0  0.76827  0.28325  0.36639  1.0000
  C   C411      1.0  0.75575  0.27260  0.43636  1.0000
  C   C412      1.0  0.73959  0.25592  0.41328  1.0000
  H   H338      1.0  0.73125  0.24773  0.46460  1.0000
  C   C413      1.0  0.75884  0.27755  0.53420  1.0000
  H   H339      1.0  0.77085  0.29109  0.54681  1.0000
  H   H340      1.0  0.76069  0.26726  0.57095  1.0000
  H   H341      1.0  0.74684  0.27778  0.56195  1.0000
  C   C414      1.0  0.78614  0.29726  0.38501  1.0000
  H   H342      1.0  0.79321  0.29477  0.43174  1.0000
  C   C415      1.0  0.18700  0.61203  0.36938  1.0000
  C   C416      1.0  0.18784  0.60102  0.44086  1.0000
  C   C417      1.0  0.18754  0.58434  0.41962  1.0000
  H   H343      1.0  0.18930  0.57712  0.47108  1.0000
  C   C418      1.0  0.18972  0.60627  0.53831  1.0000
  H   H344      1.0  0.18852  0.61848  0.55099  1.0000
  H   H345      1.0  0.20312  0.60898  0.56352  1.0000
  H   H346      1.0  0.17887  0.59497  0.57744  1.0000
  C   C419      1.0  0.19145  0.63033  0.38298  1.0000
  H   H347      1.0  0.20243  0.63808  0.42151  1.0000
  C   C420      1.0  0.40646  0.57866  0.36949  1.0000
  C   C421      1.0  0.41748  0.59051  0.44095  1.0000
  C   C422      1.0  0.43415  0.60689  0.41972  1.0000
  H   H348      1.0  0.44138  0.61586  0.47118  1.0000
  C   C423      1.0  0.41223  0.58710  0.53840  1.0000
  H   H349      1.0  0.40003  0.57370  0.55103  1.0000
  H   H350      1.0  0.40953  0.59780  0.56373  1.0000
  H   H351      1.0  0.42354  0.58755  0.57745  1.0000
  C   C424      1.0  0.38815  0.56483  0.38297  1.0000
  H   H352      1.0  0.38041  0.56806  0.42152  1.0000
  C   C425      1.0  0.43979  0.83146  0.36938  1.0000
  C   C426      1.0  0.42795  0.83062  0.44087  1.0000
  C   C427      1.0  0.41158  0.83093  0.41962  1.0000
  H   H353      1.0  0.40259  0.82917  0.47109  1.0000
  C   C428      1.0  0.43133  0.82875  0.53832  1.0000
  H   H354      1.0  0.44473  0.82994  0.55099  1.0000
  H   H355      1.0  0.42063  0.81534  0.56354  1.0000
  H   H356      1.0  0.43088  0.83960  0.57744  1.0000
  C   C429      1.0  0.45364  0.82700  0.38296  1.0000
  H   H357      1.0  0.45042  0.81603  0.42148  1.0000
  C   C430      1.0  0.83518  0.40276  0.36947  1.0000
  C   C431      1.0  0.83435  0.41377  0.44094  1.0000
  C   C432      1.0  0.83463  0.43044  0.41970  1.0000
  H   H358      1.0  0.83290  0.43768  0.47118  1.0000
  C   C433      1.0  0.83251  0.40853  0.53838  1.0000
  H   H359      1.0  0.83371  0.39633  0.55101  1.0000
  H   H360      1.0  0.81911  0.40583  0.56371  1.0000
  H   H361      1.0  0.84337  0.41984  0.57744  1.0000
  C   C434      1.0  0.83070  0.38445  0.38295  1.0000
  H   H362      1.0  0.81973  0.37671  0.42148  1.0000
  C   C435      1.0  0.61572  0.43611  0.36938  1.0000
  C   C436      1.0  0.60472  0.42426  0.44086  1.0000
  C   C437      1.0  0.58803  0.40789  0.41962  1.0000
  H   H363      1.0  0.58082  0.39890  0.47108  1.0000
  C   C438      1.0  0.60997  0.42764  0.53832  1.0000
  H   H364      1.0  0.62218  0.44104  0.55099  1.0000
  H   H365      1.0  0.61267  0.41694  0.56353  1.0000
  H   H366      1.0  0.59867  0.42719  0.57744  1.0000
  C   C439      1.0  0.63402  0.44995  0.38296  1.0000
  H   H367      1.0  0.64178  0.44673  0.42148  1.0000
  C   C440      1.0  0.58236  0.18329  0.36948  1.0000
  C   C441      1.0  0.59420  0.18412  0.44095  1.0000
  C   C442      1.0  0.61059  0.18383  0.41971  1.0000
  H   H368      1.0  0.61956  0.18557  0.47118  1.0000
  C   C443      1.0  0.59080  0.18595  0.53840  1.0000
  H   H369      1.0  0.57739  0.18475  0.55103  1.0000
  H   H370      1.0  0.60149  0.19935  0.56373  1.0000
  H   H371      1.0  0.59125  0.17509  0.57745  1.0000
  C   C444      1.0  0.56853  0.18777  0.38297  1.0000
  H   H372      1.0  0.57176  0.19874  0.42150  1.0000
  C   C445      1.0  0.99070  0.28390  0.36380  1.0000
  C   C446      1.0  0.00355  0.28871  0.43655  1.0000
  C   C447      1.0  0.02287  0.29868  0.41895  1.0000
  H   H373      1.0  0.03182  0.30289  0.47275  1.0000
  C   C448      1.0  0.99779  0.28436  0.53299  1.0000
  H   H374      1.0  0.98288  0.27587  0.54165  1.0000
  H   H375      1.0  0.00248  0.29716  0.57081  1.0000
  H   H376      1.0  0.00401  0.27679  0.56266  1.0000
  C   C449      1.0  0.97196  0.27834  0.37806  1.0000
  H   H377      1.0  0.96959  0.28641  0.41875  1.0000
  C   C450      1.0  0.73451  0.71047  0.36380  1.0000
  C   C451      1.0  0.72969  0.71850  0.43658  1.0000
  C   C452      1.0  0.71974  0.72787  0.41892  1.0000
  H   H378      1.0  0.71549  0.73257  0.47273  1.0000
  C   C453      1.0  0.73401  0.71706  0.53306  1.0000
  H   H379      1.0  0.74250  0.71065  0.54181  1.0000
  H   H380      1.0  0.72118  0.70893  0.57075  1.0000
  H   H381      1.0  0.74156  0.73085  0.56283  1.0000
  C   C454      1.0  0.74012  0.69732  0.37817  1.0000
  H   H382      1.0  0.73208  0.68690  0.41903  1.0000
  C   C455      1.0  0.30797  0.02775  0.36380  1.0000
  C   C456      1.0  0.29992  0.01490  0.43655  1.0000
  C   C457      1.0  0.29057  0.99557  0.41895  1.0000
  H   H383      1.0  0.28583  0.98663  0.47275  1.0000
  C   C458      1.0  0.30133  0.02066  0.53299  1.0000
  H   H384      1.0  0.30775  0.03557  0.54166  1.0000
  H   H385      1.0  0.30945  0.01597  0.57081  1.0000
  H   H386      1.0  0.28754  0.01444  0.56267  1.0000
  C   C459      1.0  0.32114  0.04649  0.37806  1.0000
  H   H387      1.0  0.33158  0.04886  0.41876  1.0000
  C   C460      1.0  0.03142  0.73081  0.36380  1.0000
  C   C461      1.0  0.01857  0.72599  0.43658  1.0000
  C   C462      1.0  0.99925  0.71604  0.41892  1.0000
  H   H388      1.0  0.99030  0.71178  0.47272  1.0000
  C   C463      1.0  0.02432  0.73030  0.53306  1.0000
  H   H389      1.0  0.03922  0.73879  0.54181  1.0000
  H   H390      1.0  0.01962  0.71748  0.57075  1.0000
  H   H391      1.0  0.01808  0.73785  0.56283  1.0000
  C   C464      1.0  0.05017  0.73641  0.37818  1.0000
  H   H392      1.0  0.05255  0.72837  0.41903  1.0000
  C   C465      1.0  0.28761  0.30429  0.36381  1.0000
  C   C466      1.0  0.29241  0.29624  0.43656  1.0000
  C   C467      1.0  0.30239  0.28689  0.41896  1.0000
  H   H393      1.0  0.30660  0.28216  0.47277  1.0000
  C   C468      1.0  0.28807  0.29765  0.53300  1.0000
  H   H394      1.0  0.27957  0.30407  0.54166  1.0000
  H   H395      1.0  0.30087  0.30577  0.57082  1.0000
  H   H396      1.0  0.28049  0.28386  0.56267  1.0000
  C   C469      1.0  0.28205  0.31746  0.37807  1.0000
  H   H397      1.0  0.29012  0.32790  0.41875  1.0000
  C   C470      1.0  0.71415  0.98702  0.36381  1.0000
  C   C471      1.0  0.72218  0.99987  0.43659  1.0000
  C   C472      1.0  0.73155  0.01919  0.41893  1.0000
  H   H398      1.0  0.73625  0.02814  0.47273  1.0000
  C   C473      1.0  0.72075  0.99413  0.53307  1.0000
  H   H399      1.0  0.71433  0.97922  0.54181  1.0000
  H   H400      1.0  0.71262  0.99882  0.57076  1.0000
  H   H401      1.0  0.73454  0.00036  0.56284  1.0000
  C   C474      1.0  0.70101  0.96827  0.37818  1.0000
  H   H402      1.0  0.69059  0.96589  0.41904  1.0000
  C   C475      1.0  0.15692  0.33412  0.36488  1.0000
  C   C476      1.0  0.16748  0.33257  0.43678  1.0000
  C   C477      1.0  0.18438  0.33301  0.41767  1.0000
  H   H403      1.0  0.19229  0.33305  0.47083  1.0000
  C   C478      1.0  0.16210  0.33121  0.53382  1.0000
  H   H404      1.0  0.14854  0.32982  0.54370  1.0000
  H   H405      1.0  0.17226  0.34353  0.57000  1.0000
  H   H406      1.0  0.16168  0.31911  0.56433  1.0000
  C   C479      1.0  0.14317  0.33884  0.38025  1.0000
  H   H407      1.0  0.14667  0.34938  0.42231  1.0000
  C   C480      1.0  0.68430  0.82649  0.36483  1.0000
  C   C481      1.0  0.68583  0.83858  0.43678  1.0000
  C   C482      1.0  0.68542  0.85505  0.41759  1.0000
  H   H408      1.0  0.68533  0.86290  0.47076  1.0000
  C   C483      1.0  0.68713  0.83455  0.53385  1.0000
  H   H409      1.0  0.68852  0.82238  0.54382  1.0000
  H   H410      1.0  0.67480  0.83239  0.56985  1.0000
  H   H411      1.0  0.69922  0.84623  0.56449  1.0000
  C   C484      1.0  0.67963  0.80802  0.38034  1.0000
  H   H412      1.0  0.66910  0.80098  0.42242  1.0000
  C   C485      1.0  0.19195  0.86152  0.36484  1.0000
  C   C486      1.0  0.17985  0.85096  0.43675  1.0000
  C   C487      1.0  0.16339  0.83407  0.41762  1.0000
  H   H413      1.0  0.15552  0.82616  0.47079  1.0000
  C   C488      1.0  0.18388  0.85633  0.53380  1.0000
  H   H414      1.0  0.19605  0.86989  0.54369  1.0000
  H   H415      1.0  0.18603  0.84616  0.56992  1.0000
  H   H416      1.0  0.17220  0.85675  0.56435  1.0000
  C   C489      1.0  0.21043  0.87528  0.38022  1.0000
  H   H417      1.0  0.21747  0.87177  0.42225  1.0000
  C   C490      1.0  0.86519  0.68061  0.36482  1.0000
  C   C491      1.0  0.85462  0.68214  0.43677  1.0000
  C   C492      1.0  0.83774  0.68172  0.41759  1.0000
  H   H418      1.0  0.82981  0.68164  0.47075  1.0000
  C   C493      1.0  0.85996  0.68343  0.53385  1.0000
  H   H419      1.0  0.87352  0.68482  0.54382  1.0000
  H   H420      1.0  0.84979  0.67110  0.56985  1.0000
  H   H421      1.0  0.86037  0.69553  0.56449  1.0000
  C   C494      1.0  0.87898  0.67593  0.38034  1.0000
  H   H422      1.0  0.87549  0.66540  0.42241  1.0000
  C   C495      1.0  0.33782  0.18827  0.36486  1.0000
  C   C496      1.0  0.33627  0.17616  0.43676  1.0000
  C   C497      1.0  0.33672  0.15971  0.41764  1.0000
  H   H423      1.0  0.33676  0.15183  0.47079  1.0000
  C   C498      1.0  0.33492  0.18018  0.53381  1.0000
  H   H424      1.0  0.33353  0.19235  0.54370  1.0000
  H   H425      1.0  0.34724  0.18234  0.56997  1.0000
  H   H426      1.0  0.32282  0.16850  0.56432  1.0000
  C   C499      1.0  0.34254  0.20675  0.38026  1.0000
  H   H427      1.0  0.35308  0.21379  0.42232  1.0000
  C   C500      1.0  0.83016  0.15325  0.36487  1.0000
  C   C501      1.0  0.84226  0.16382  0.43682  1.0000
  C   C502      1.0  0.85872  0.18070  0.41765  1.0000
  H   H428      1.0  0.86657  0.18864  0.47081  1.0000
  C   C503      1.0  0.83822  0.15848  0.53390  1.0000
  H   H429      1.0  0.82605  0.14492  0.54387  1.0000
  H   H430      1.0  0.83606  0.16865  0.56989  1.0000
  H   H431      1.0  0.84990  0.15807  0.56454  1.0000
  C   C504      1.0  0.81170  0.13946  0.38037  1.0000
  H   H432      1.0  0.80466  0.14295  0.42246  1.0000
