data_image0
_chemical_formula_structural       NCHNCHNCHNCHC2NCNO2C2NCNO2NCHNCHC2NCNO2C2NCNO2NCHNCHNCHNCHC2NCNO2C2NCNO2C2NCNO2C2NCNO2C6H3C6H3C6H3C6H3C6H3C6H3C6H3C6H3C6H3C6H3C6H3C6H3C2NCNO2C2NCNO2C2NCNO2C2NCNO2NCHNCHC2NCNO2C2NCNO2NCHNCHC2NCNO2C2NCNO2C2NCNO2C2NCNO2NCHNCHNCHNCHNCHNCHNCHNCHC2NCNO2C2NCNO2NCHNCHC2NCNO2C2NCNO2NCHNCHNCHNCHC2NCNO2C2NCNO2C2NCNO2C2NCNO2C6H3C6H3C6H3C6H3C6H3C6H3C6H3C6H3C6H3C6H3C6H3C6H3C2NCNO2C2NCNO2C2NCNO2C2NCNO2NCHNCHC2NCNO2C2NCNO2NCHNCHC2NCNO2C2NCNO2C2NCNO2C2NCNO2NCHNCHNCHNCH
_chemical_formula_sum              "N108 C288 H108 O72"
_cell_length_a       42.6874
_cell_length_b       55.3427
_cell_length_c       14.882
_cell_angle_alpha    90
_cell_angle_beta     90
_cell_angle_gamma    90

_space_group_name_H-M_alt    "P 1"
_space_group_IT_number       1

loop_
  _space_group_symop_operation_xyz
  'x, y, z'

loop_
  _atom_site_type_symbol
  _atom_site_label
  _atom_site_symmetry_multiplicity
  _atom_site_fract_x
  _atom_site_fract_y
  _atom_site_fract_z
  _atom_site_occupancy
  N   N1        1.0  0.23950  0.15369  0.32691  1.0000
  C   C1        1.0  0.27128  0.15153  0.33524  1.0000
  H   H1        1.0  0.28217  0.13696  0.30697  1.0000
  N   N2        1.0  0.27024  0.85387  0.32558  1.0000
  C   C2        1.0  0.23849  0.85619  0.33438  1.0000
  H   H2        1.0  0.22764  0.87083  0.30649  1.0000
  N   N3        1.0  0.48719  0.65336  0.33719  1.0000
  C   C3        1.0  0.01904  0.65099  0.34168  1.0000
  H   H3        1.0  0.02952  0.63688  0.30921  1.0000
  N   N4        1.0  0.02250  0.35420  0.33592  1.0000
  C   C4        1.0  0.49068  0.35681  0.34101  1.0000
  H   H4        1.0  0.48026  0.37081  0.30776  1.0000
  C   C5        1.0  0.06306  0.10837  0.29745  1.0000
  C   C6        1.0  0.11475  0.14092  0.29745  1.0000
  N   N5        1.0  0.08700  0.14576  0.25697  1.0000
  C   C7        1.0  0.06172  0.13105  0.25235  1.0000
  N   N6        1.0  0.03624  0.13847  0.19826  1.0000
  O   O1        1.0  0.02622  0.15882  0.22258  1.0000
  O   O2        1.0  0.04463  0.14018  0.11763  1.0000
  C   C8        1.0  0.44708  0.89827  0.29565  1.0000
  C   C9        1.0  0.39519  0.86590  0.29575  1.0000
  N   N7        1.0  0.42313  0.86076  0.25693  1.0000
  C   C10       1.0  0.44855  0.87534  0.25242  1.0000
  N   N8        1.0  0.47415  0.86754  0.19960  1.0000
  O   O3        1.0  0.48401  0.84732  0.22588  1.0000
  O   O4        1.0  0.46607  0.86540  0.11884  1.0000
  N   N9        1.0  0.42274  0.10290  0.34128  1.0000
  C   C11       1.0  0.39692  0.11755  0.34373  1.0000
  H   H5        1.0  0.37654  0.11135  0.31623  1.0000
  N   N10       1.0  0.08712  0.90526  0.34088  1.0000
  C   C12       1.0  0.11297  0.89065  0.34424  1.0000
  H   H6        1.0  0.13328  0.89668  0.31578  1.0000
  C   C13       1.0  0.31193  0.60877  0.29184  1.0000
  C   C14       1.0  0.36344  0.64141  0.29935  1.0000
  N   N11       1.0  0.33618  0.64648  0.25656  1.0000
  C   C15       1.0  0.31105  0.63168  0.24824  1.0000
  N   N12       1.0  0.28620  0.63928  0.19218  1.0000
  O   O5        1.0  0.27579  0.65949  0.21673  1.0000
  O   O6        1.0  0.29554  0.64136  0.11254  1.0000
  C   C16       1.0  0.19816  0.39788  0.29006  1.0000
  C   C17       1.0  0.14643  0.36542  0.29766  1.0000
  N   N13       1.0  0.17390  0.36006  0.25650  1.0000
  C   C18       1.0  0.19917  0.37472  0.24829  1.0000
  N   N14       1.0  0.22417  0.36674  0.19351  1.0000
  O   O7        1.0  0.23442  0.34667  0.22004  1.0000
  O   O8        1.0  0.21512  0.36423  0.11376  1.0000
  N   N15       1.0  0.17122  0.60223  0.33604  1.0000
  C   C19       1.0  0.14521  0.61665  0.34056  1.0000
  H   H7        1.0  0.12462  0.61029  0.31487  1.0000
  N   N16       1.0  0.33858  0.40595  0.33532  1.0000
  C   C20       1.0  0.36461  0.39155  0.34066  1.0000
  H   H8        1.0  0.38513  0.39776  0.31398  1.0000
  N   N17       1.0  0.13648  0.26878  0.23458  1.0000
  C   C21       1.0  0.14421  0.24512  0.22307  1.0000
  H   H9        1.0  0.15478  0.23972  0.16475  1.0000
  N   N18       1.0  0.37264  0.73809  0.23477  1.0000
  C   C22       1.0  0.36490  0.76173  0.22271  1.0000
  H   H10       1.0  0.35441  0.76705  0.16419  1.0000
  C   C23       1.0  0.38667  0.27965  0.38672  1.0000
  C   C24       1.0  0.37409  0.22946  0.38542  1.0000
  N   N19       1.0  0.35730  0.24564  0.33601  1.0000
  C   C25       1.0  0.36222  0.26996  0.33321  1.0000
  N   N20       1.0  0.34430  0.28433  0.27425  1.0000
  O   O9        1.0  0.31569  0.28260  0.29286  1.0000
  O   O10       1.0  0.34810  0.27755  0.19446  1.0000
  C   C26       1.0  0.12269  0.72852  0.38637  1.0000
  C   C27       1.0  0.13531  0.77870  0.38578  1.0000
  N   N21       1.0  0.15199  0.76258  0.33585  1.0000
  C   C28       1.0  0.14705  0.73827  0.33267  1.0000
  N   N22       1.0  0.16487  0.72397  0.27324  1.0000
  O   O11       1.0  0.19351  0.72566  0.29152  1.0000
  O   O12       1.0  0.16095  0.73084  0.19361  1.0000
  C   C29       1.0  0.00231  0.97828  0.32899  1.0000
  C   C30       1.0  0.50616  0.02972  0.33554  1.0000
  N   N23       1.0  0.48420  0.01786  0.28617  1.0000
  C   C31       1.0  0.48130  0.99329  0.27966  1.0000
  N   N24       1.0  0.45889  0.98384  0.21965  1.0000
  O   O13       1.0  0.93188  0.99093  0.24050  1.0000
  O   O14       1.0  0.46448  0.99062  0.14072  1.0000
  C   C32       1.0  0.25255  0.47826  0.32243  1.0000
  C   C33       1.0  0.25575  0.52972  0.32893  1.0000
  N   N25       1.0  0.23389  0.51769  0.27977  1.0000
  C   C34       1.0  0.23128  0.49311  0.27333  1.0000
  N   N26       1.0  0.20892  0.48349  0.21353  1.0000
  O   O15       1.0  0.18185  0.49037  0.23462  1.0000
  O   O16       1.0  0.21434  0.49030  0.13454  1.0000
  C   C35       1.0  0.14769  0.20413  0.29210  1.0000
  C   C36       1.0  0.17919  0.19954  0.31216  1.0000
  C   C37       1.0  0.19060  0.17607  0.33162  1.0000
  C   C38       1.0  0.16937  0.15645  0.32253  1.0000
  C   C39       1.0  0.13715  0.16002  0.30158  1.0000
  C   C40       1.0  0.12700  0.18436  0.28854  1.0000
  H   H11       1.0  0.17747  0.13936  0.33417  1.0000
  H   H12       1.0  0.10378  0.18817  0.27852  1.0000
  H   H13       1.0  0.19421  0.21393  0.31027  1.0000
  C   C41       1.0  0.36161  0.80287  0.29081  1.0000
  C   C42       1.0  0.33015  0.80766  0.31060  1.0000
  C   C43       1.0  0.31896  0.83121  0.32980  1.0000
  C   C44       1.0  0.34036  0.85070  0.32035  1.0000
  C   C45       1.0  0.37258  0.84693  0.29983  1.0000
  C   C46       1.0  0.38250  0.82252  0.28727  1.0000
  H   H14       1.0  0.33242  0.86785  0.33194  1.0000
  H   H15       1.0  0.40569  0.81856  0.27751  1.0000
  H   H16       1.0  0.31499  0.79335  0.30892  1.0000
  C   C47       1.0  0.36512  0.20453  0.38394  1.0000
  C   C48       1.0  0.33312  0.19871  0.37978  1.0000
  C   C49       1.0  0.32166  0.17474  0.37078  1.0000
  C   C50       1.0  0.34424  0.15605  0.36205  1.0000
  C   C51       1.0  0.37687  0.16050  0.37334  1.0000
  C   C52       1.0  0.38644  0.18506  0.38455  1.0000
  H   H17       1.0  0.33653  0.13863  0.35700  1.0000
  H   H18       1.0  0.40977  0.18925  0.38706  1.0000
  H   H19       1.0  0.31764  0.21284  0.38111  1.0000
  C   C53       1.0  0.14438  0.80361  0.38473  1.0000
  C   C54       1.0  0.17640  0.80934  0.38031  1.0000
  C   C55       1.0  0.18799  0.83326  0.37119  1.0000
  C   C56       1.0  0.16551  0.85203  0.36279  1.0000
  C   C57       1.0  0.13288  0.84769  0.37451  1.0000
  C   C58       1.0  0.12318  0.82316  0.38578  1.0000
  H   H20       1.0  0.17333  0.86942  0.35746  1.0000
  H   H21       1.0  0.09983  0.81904  0.38850  1.0000
  H   H22       1.0  0.19181  0.79515  0.38132  1.0000
  C   C59       1.0  0.39584  0.70472  0.31561  1.0000
  C   C60       1.0  0.42706  0.69958  0.33829  1.0000
  C   C61       1.0  0.43859  0.67581  0.35041  1.0000
  C   C62       1.0  0.41747  0.65651  0.33384  1.0000
  C   C63       1.0  0.38565  0.66049  0.30928  1.0000
  C   C64       1.0  0.37579  0.68500  0.29871  1.0000
  H   H23       1.0  0.42553  0.63923  0.34105  1.0000
  H   H24       1.0  0.35291  0.68891  0.28403  1.0000
  H   H25       1.0  0.44223  0.71386  0.33945  1.0000
  C   C65       1.0  0.11339  0.30232  0.31466  1.0000
  C   C66       1.0  0.08222  0.30765  0.33729  1.0000
  C   C67       1.0  0.07092  0.33150  0.34897  1.0000
  C   C68       1.0  0.09220  0.35066  0.33191  1.0000
  C   C69       1.0  0.12401  0.34648  0.30764  1.0000
  C   C70       1.0  0.13364  0.32190  0.29757  1.0000
  H   H26       1.0  0.08430  0.36799  0.33887  1.0000
  H   H27       1.0  0.15648  0.31783  0.28304  1.0000
  H   H28       1.0  0.06693  0.29345  0.33885  1.0000
  C   C71       1.0  0.11333  0.70360  0.38514  1.0000
  C   C72       1.0  0.08131  0.69773  0.38506  1.0000
  C   C73       1.0  0.06987  0.67374  0.37574  1.0000
  C   C74       1.0  0.09229  0.65508  0.36340  1.0000
  C   C75       1.0  0.12498  0.65952  0.37192  1.0000
  C   C76       1.0  0.13454  0.68406  0.38283  1.0000
  H   H29       1.0  0.08453  0.63767  0.35806  1.0000
  H   H30       1.0  0.15784  0.68816  0.38741  1.0000
  H   H31       1.0  0.06580  0.71186  0.38580  1.0000
  C   C77       1.0  0.39613  0.30455  0.38547  1.0000
  C   C78       1.0  0.42817  0.31032  0.38495  1.0000
  C   C79       1.0  0.43973  0.33427  0.37564  1.0000
  C   C80       1.0  0.41740  0.35301  0.36358  1.0000
  C   C81       1.0  0.38470  0.34868  0.37255  1.0000
  C   C82       1.0  0.37501  0.32416  0.38352  1.0000
  H   H32       1.0  0.42524  0.37040  0.35820  1.0000
  H   H33       1.0  0.35171  0.32014  0.38838  1.0000
  H   H34       1.0  0.44363  0.29616  0.38544  1.0000
  C   C83       1.0  0.03595  0.09413  0.31610  1.0000
  C   C84       1.0  0.50741  0.10614  0.33389  1.0000
  C   C85       1.0  0.47863  0.09470  0.35341  1.0000
  C   C86       1.0  0.47856  0.06914  0.34624  1.0000
  C   C87       1.0  0.00686  0.05567  0.33649  1.0000
  C   C88       1.0  0.03549  0.06863  0.32573  1.0000
  H   H35       1.0  0.45794  0.06009  0.35665  1.0000
  H   H36       1.0  0.05582  0.05925  0.31490  1.0000
  H   H37       1.0  0.50761  0.12441  0.33247  1.0000
  C   C89       1.0  0.47404  0.91284  0.31274  1.0000
  C   C90       1.0  0.00283  0.90131  0.33072  1.0000
  C   C91       1.0  0.03114  0.91325  0.35172  1.0000
  C   C92       1.0  0.03061  0.93880  0.34374  1.0000
  C   C93       1.0  0.50221  0.95205  0.33039  1.0000
  C   C94       1.0  0.47401  0.93834  0.32140  1.0000
  H   H38       1.0  0.05114  0.94798  0.35360  1.0000
  H   H39       1.0  0.45298  0.94700  0.31621  1.0000
  H   H40       1.0  0.00311  0.88303  0.32981  1.0000
  C   C95       1.0  0.28478  0.59433  0.30804  1.0000
  C   C96       1.0  0.25596  0.60613  0.32382  1.0000
  C   C97       1.0  0.22740  0.59450  0.34452  1.0000
  C   C98       1.0  0.22764  0.56892  0.33844  1.0000
  C   C99       1.0  0.25613  0.55568  0.32932  1.0000
  C   C100      1.0  0.28461  0.56886  0.31876  1.0000
  H   H41       1.0  0.20719  0.55974  0.34981  1.0000
  H   H42       1.0  0.30512  0.55961  0.30923  1.0000
  H   H43       1.0  0.25579  0.62438  0.32111  1.0000
  C   C101      1.0  0.22514  0.41263  0.30470  1.0000
  C   C102      1.0  0.25424  0.40133  0.32047  1.0000
  C   C103      1.0  0.28230  0.41345  0.34268  1.0000
  C   C104      1.0  0.28142  0.43902  0.33608  1.0000
  C   C105      1.0  0.25284  0.45204  0.32326  1.0000
  C   C106      1.0  0.22482  0.43811  0.31449  1.0000
  H   H44       1.0  0.30181  0.44834  0.34656  1.0000
  H   H45       1.0  0.20365  0.44661  0.31068  1.0000
  H   H46       1.0  0.25490  0.38307  0.31816  1.0000
  C   C107      1.0  0.22258  0.17321  0.35566  1.0000
  C   C108      1.0  0.28864  0.17127  0.36946  1.0000
  N   N27       1.0  0.27097  0.18925  0.40501  1.0000
  C   C109      1.0  0.23950  0.19124  0.40307  1.0000
  N   N28       1.0  0.22544  0.21026  0.45204  1.0000
  O   O17       1.0  0.23603  0.23042  0.42748  1.0000
  O   O18       1.0  0.23107  0.20797  0.53442  1.0000
  C   C110      1.0  0.28704  0.83427  0.35417  1.0000
  C   C111      1.0  0.22104  0.83658  0.36927  1.0000
  N   N29       1.0  0.23864  0.81855  0.40472  1.0000
  C   C112      1.0  0.27008  0.81638  0.40218  1.0000
  N   N30       1.0  0.28408  0.79734  0.45119  1.0000
  O   O19       1.0  0.27325  0.77722  0.42715  1.0000
  O   O20       1.0  0.27865  0.79975  0.53365  1.0000
  C   C113      1.0  0.47073  0.67242  0.37195  1.0000
  C   C114      1.0  0.03691  0.67017  0.37796  1.0000
  N   N31       1.0  0.01988  0.68755  0.41947  1.0000
  C   C115      1.0  0.48841  0.68957  0.42158  1.0000
  N   N32       1.0  0.47531  0.70797  0.47555  1.0000
  O   O21       1.0  0.48662  0.72823  0.45495  1.0000
  O   O22       1.0  0.48144  0.70420  0.55687  1.0000
  C   C116      1.0  0.03885  0.33512  0.37092  1.0000
  C   C117      1.0  0.47272  0.33772  0.37764  1.0000
  N   N33       1.0  0.48965  0.32032  0.41933  1.0000
  C   C118      1.0  0.02110  0.31814  0.42115  1.0000
  N   N34       1.0  0.03412  0.29976  0.47535  1.0000
  O   O23       1.0  0.02261  0.27953  0.45530  1.0000
  O   O24       1.0  0.02814  0.30369  0.55665  1.0000
  N   N35       1.0  0.09164  0.10230  0.33223  1.0000
  C   C119      1.0  0.11742  0.11700  0.33089  1.0000
  H   H47       1.0  0.13722  0.11126  0.36287  1.0000
  N   N36       1.0  0.41835  0.90462  0.32861  1.0000
  C   C120      1.0  0.39253  0.88997  0.32760  1.0000
  H   H48       1.0  0.37253  0.89599  0.35781  1.0000
  C   C121      1.0  0.45182  0.10942  0.37111  1.0000
  C   C122      1.0  0.39985  0.14177  0.37381  1.0000
  N   N37       1.0  0.42822  0.14714  0.40950  1.0000
  C   C123      1.0  0.45371  0.13260  0.41246  1.0000
  N   N38       1.0  0.47973  0.14060  0.46318  1.0000
  O   O25       1.0  0.48931  0.16076  0.43544  1.0000
  O   O26       1.0  0.47236  0.14293  0.54444  1.0000
  C   C124      1.0  0.05807  0.89882  0.37115  1.0000
  C   C125      1.0  0.11000  0.86649  0.37504  1.0000
  N   N39       1.0  0.08168  0.86125  0.41134  1.0000
  C   C126      1.0  0.05623  0.87582  0.41393  1.0000
  N   N40       1.0  0.03014  0.86800  0.46476  1.0000
  O   O27       1.0  0.02058  0.84775  0.43791  1.0000
  O   O28       1.0  0.03744  0.86592  0.54615  1.0000
  N   N41       1.0  0.34008  0.60259  0.32900  1.0000
  C   C127      1.0  0.36580  0.61731  0.33117  1.0000
  H   H49       1.0  0.38511  0.61144  0.36520  1.0000
  N   N42       1.0  0.16984  0.40431  0.32545  1.0000
  C   C128      1.0  0.14408  0.38965  0.32794  1.0000
  H   H50       1.0  0.12454  0.39580  0.36022  1.0000
  C   C129      1.0  0.20051  0.60901  0.36341  1.0000
  C   C130      1.0  0.14810  0.64089  0.37038  1.0000
  N   N43       1.0  0.17674  0.64646  0.40373  1.0000
  C   C131      1.0  0.20247  0.63220  0.40465  1.0000
  N   N44       1.0  0.22880  0.64052  0.45329  1.0000
  O   O29       1.0  0.23778  0.66075  0.42452  1.0000
  O   O30       1.0  0.22217  0.64287  0.53505  1.0000
  C   C132      1.0  0.30931  0.39923  0.36316  1.0000
  C   C133      1.0  0.36168  0.36738  0.37118  1.0000
  N   N45       1.0  0.33310  0.36193  0.40519  1.0000
  C   C134      1.0  0.30741  0.37623  0.40581  1.0000
  N   N46       1.0  0.28100  0.36808  0.45460  1.0000
  O   O31       1.0  0.27204  0.34775  0.42674  1.0000
  O   O32       1.0  0.28759  0.36598  0.53648  1.0000
  C   C135      1.0  0.12304  0.27763  0.31081  1.0000
  C   C136      1.0  0.13720  0.22841  0.29180  1.0000
  N   N47       1.0  0.12515  0.23741  0.36920  1.0000
  C   C137      1.0  0.11750  0.26107  0.38203  1.0000
  N   N48       1.0  0.10621  0.26875  0.46644  1.0000
  O   O33       1.0  0.08273  0.25651  0.48905  1.0000
  O   O34       1.0  0.12687  0.26569  0.52538  1.0000
  C   C138      1.0  0.38602  0.72936  0.31130  1.0000
  C   C139      1.0  0.37192  0.77855  0.29107  1.0000
  N   N49       1.0  0.38390  0.76967  0.36877  1.0000
  C   C140      1.0  0.39150  0.74604  0.38219  1.0000
  N   N50       1.0  0.40276  0.73851  0.46682  1.0000
  O   O35       1.0  0.42623  0.75077  0.48920  1.0000
  O   O36       1.0  0.38207  0.74167  0.52562  1.0000
  N   N51       1.0  0.40388  0.26339  0.43514  1.0000
  C   C141      1.0  0.39882  0.23914  0.43681  1.0000
  H   H51       1.0  0.41252  0.22843  0.47666  1.0000
  N   N52       1.0  0.10556  0.74472  0.43531  1.0000
  C   C142      1.0  0.11063  0.76897  0.43725  1.0000
  H   H52       1.0  0.09704  0.77964  0.47759  1.0000
  N   N53       1.0  0.52463  0.99038  0.37707  1.0000
  C   C143      1.0  0.52769  0.01485  0.38172  1.0000
  H   H53       1.0  0.04502  0.02210  0.42071  1.0000
  N   N54       1.0  0.27477  0.49053  0.37031  1.0000
  C   C144      1.0  0.27750  0.51502  0.37500  1.0000
  H   H54       1.0  0.29481  0.52241  0.41370  1.0000
  N   N55       1.0  0.73950  0.15369  0.32691  1.0000
  C   C145      1.0  0.77128  0.15153  0.33524  1.0000
  H   H55       1.0  0.78217  0.13696  0.30697  1.0000
  N   N56       1.0  0.77024  0.85387  0.32558  1.0000
  C   C146      1.0  0.73849  0.85619  0.33438  1.0000
  H   H56       1.0  0.72764  0.87083  0.30649  1.0000
  N   N57       1.0  0.98718  0.65336  0.33719  1.0000
  C   C147      1.0  0.51904  0.65099  0.34168  1.0000
  H   H57       1.0  0.52953  0.63688  0.30921  1.0000
  N   N58       1.0  0.52250  0.35420  0.33592  1.0000
  C   C148      1.0  0.99068  0.35681  0.34101  1.0000
  H   H58       1.0  0.98027  0.37081  0.30776  1.0000
  C   C149      1.0  0.56306  0.10837  0.29745  1.0000
  C   C150      1.0  0.61475  0.14092  0.29745  1.0000
  N   N59       1.0  0.58700  0.14576  0.25697  1.0000
  C   C151      1.0  0.56172  0.13105  0.25235  1.0000
  N   N60       1.0  0.53624  0.13847  0.19826  1.0000
  O   O37       1.0  0.52622  0.15882  0.22258  1.0000
  O   O38       1.0  0.54463  0.14018  0.11763  1.0000
  C   C152      1.0  0.94708  0.89827  0.29565  1.0000
  C   C153      1.0  0.89518  0.86590  0.29575  1.0000
  N   N61       1.0  0.92313  0.86076  0.25693  1.0000
  C   C154      1.0  0.94855  0.87534  0.25242  1.0000
  N   N62       1.0  0.97415  0.86754  0.19960  1.0000
  O   O39       1.0  0.98401  0.84732  0.22588  1.0000
  O   O40       1.0  0.96607  0.86540  0.11884  1.0000
  N   N63       1.0  0.92274  0.10290  0.34128  1.0000
  C   C155      1.0  0.89692  0.11755  0.34373  1.0000
  H   H59       1.0  0.87654  0.11135  0.31623  1.0000
  N   N64       1.0  0.58713  0.90526  0.34088  1.0000
  C   C156      1.0  0.61297  0.89065  0.34424  1.0000
  H   H60       1.0  0.63328  0.89668  0.31578  1.0000
  C   C157      1.0  0.81193  0.60877  0.29184  1.0000
  C   C158      1.0  0.86343  0.64141  0.29935  1.0000
  N   N65       1.0  0.83618  0.64648  0.25656  1.0000
  C   C159      1.0  0.81105  0.63168  0.24824  1.0000
  N   N66       1.0  0.78620  0.63928  0.19218  1.0000
  O   O41       1.0  0.77579  0.65949  0.21673  1.0000
  O   O42       1.0  0.79554  0.64136  0.11254  1.0000
  C   C160      1.0  0.69816  0.39788  0.29006  1.0000
  C   C161      1.0  0.64643  0.36542  0.29766  1.0000
  N   N67       1.0  0.67390  0.36006  0.25650  1.0000
  C   C162      1.0  0.69917  0.37472  0.24829  1.0000
  N   N68       1.0  0.72417  0.36674  0.19351  1.0000
  O   O43       1.0  0.73442  0.34667  0.22004  1.0000
  O   O44       1.0  0.71512  0.36423  0.11376  1.0000
  N   N69       1.0  0.67122  0.60223  0.33604  1.0000
  C   C163      1.0  0.64521  0.61665  0.34056  1.0000
  H   H61       1.0  0.62462  0.61029  0.31487  1.0000
  N   N70       1.0  0.83858  0.40595  0.33532  1.0000
  C   C164      1.0  0.86461  0.39155  0.34066  1.0000
  H   H62       1.0  0.88513  0.39776  0.31398  1.0000
  N   N71       1.0  0.63647  0.26878  0.23458  1.0000
  C   C165      1.0  0.64421  0.24512  0.22307  1.0000
  H   H63       1.0  0.65478  0.23972  0.16475  1.0000
  N   N72       1.0  0.87264  0.73809  0.23477  1.0000
  C   C166      1.0  0.86491  0.76173  0.22271  1.0000
  H   H64       1.0  0.85441  0.76705  0.16419  1.0000
  C   C167      1.0  0.88667  0.27965  0.38672  1.0000
  C   C168      1.0  0.87409  0.22946  0.38542  1.0000
  N   N73       1.0  0.85730  0.24564  0.33601  1.0000
  C   C169      1.0  0.86222  0.26996  0.33321  1.0000
  N   N74       1.0  0.84430  0.28433  0.27425  1.0000
  O   O45       1.0  0.81569  0.28260  0.29286  1.0000
  O   O46       1.0  0.84810  0.27755  0.19446  1.0000
  C   C170      1.0  0.62269  0.72852  0.38637  1.0000
  C   C171      1.0  0.63531  0.77870  0.38578  1.0000
  N   N75       1.0  0.65199  0.76258  0.33585  1.0000
  C   C172      1.0  0.64705  0.73827  0.33267  1.0000
  N   N76       1.0  0.66487  0.72397  0.27324  1.0000
  O   O47       1.0  0.69351  0.72566  0.29152  1.0000
  O   O48       1.0  0.66095  0.73084  0.19361  1.0000
  C   C173      1.0  0.50231  0.97828  0.32899  1.0000
  C   C174      1.0  0.00616  0.02972  0.33554  1.0000
  N   N77       1.0  0.98420  0.01786  0.28617  1.0000
  C   C175      1.0  0.98130  0.99329  0.27966  1.0000
  N   N78       1.0  0.95889  0.98384  0.21965  1.0000
  O   O49       1.0  0.43188  0.99093  0.24050  1.0000
  O   O50       1.0  0.96448  0.99062  0.14072  1.0000
  C   C176      1.0  0.75255  0.47826  0.32243  1.0000
  C   C177      1.0  0.75575  0.52972  0.32893  1.0000
  N   N79       1.0  0.73389  0.51769  0.27977  1.0000
  C   C178      1.0  0.73128  0.49311  0.27333  1.0000
  N   N80       1.0  0.70892  0.48349  0.21353  1.0000
  O   O51       1.0  0.68185  0.49037  0.23462  1.0000
  O   O52       1.0  0.71434  0.49030  0.13454  1.0000
  C   C179      1.0  0.64769  0.20413  0.29210  1.0000
  C   C180      1.0  0.67919  0.19954  0.31216  1.0000
  C   C181      1.0  0.69060  0.17607  0.33162  1.0000
  C   C182      1.0  0.66937  0.15645  0.32253  1.0000
  C   C183      1.0  0.63715  0.16002  0.30158  1.0000
  C   C184      1.0  0.62700  0.18436  0.28854  1.0000
  H   H65       1.0  0.67748  0.13936  0.33417  1.0000
  H   H66       1.0  0.60378  0.18817  0.27852  1.0000
  H   H67       1.0  0.69421  0.21393  0.31027  1.0000
  C   C185      1.0  0.86161  0.80287  0.29081  1.0000
  C   C186      1.0  0.83015  0.80766  0.31060  1.0000
  C   C187      1.0  0.81896  0.83121  0.32980  1.0000
  C   C188      1.0  0.84036  0.85070  0.32035  1.0000
  C   C189      1.0  0.87258  0.84693  0.29983  1.0000
  C   C190      1.0  0.88250  0.82252  0.28727  1.0000
  H   H68       1.0  0.83242  0.86785  0.33194  1.0000
  H   H69       1.0  0.90569  0.81856  0.27751  1.0000
  H   H70       1.0  0.81499  0.79335  0.30892  1.0000
  C   C191      1.0  0.86512  0.20453  0.38394  1.0000
  C   C192      1.0  0.83312  0.19871  0.37978  1.0000
  C   C193      1.0  0.82167  0.17474  0.37078  1.0000
  C   C194      1.0  0.84424  0.15605  0.36205  1.0000
  C   C195      1.0  0.87686  0.16050  0.37334  1.0000
  C   C196      1.0  0.88644  0.18506  0.38455  1.0000
  H   H71       1.0  0.83652  0.13863  0.35700  1.0000
  H   H72       1.0  0.90977  0.18925  0.38706  1.0000
  H   H73       1.0  0.81764  0.21284  0.38111  1.0000
  C   C197      1.0  0.64438  0.80361  0.38473  1.0000
  C   C198      1.0  0.67640  0.80934  0.38031  1.0000
  C   C199      1.0  0.68799  0.83326  0.37119  1.0000
  C   C200      1.0  0.66551  0.85203  0.36279  1.0000
  C   C201      1.0  0.63288  0.84769  0.37451  1.0000
  C   C202      1.0  0.62318  0.82316  0.38578  1.0000
  H   H74       1.0  0.67333  0.86942  0.35746  1.0000
  H   H75       1.0  0.59982  0.81904  0.38850  1.0000
  H   H76       1.0  0.69181  0.79515  0.38132  1.0000
  C   C203      1.0  0.89584  0.70472  0.31561  1.0000
  C   C204      1.0  0.92706  0.69958  0.33829  1.0000
  C   C205      1.0  0.93859  0.67581  0.35041  1.0000
  C   C206      1.0  0.91747  0.65651  0.33384  1.0000
  C   C207      1.0  0.88565  0.66049  0.30928  1.0000
  C   C208      1.0  0.87579  0.68500  0.29871  1.0000
  H   H77       1.0  0.92553  0.63923  0.34105  1.0000
  H   H78       1.0  0.85291  0.68891  0.28403  1.0000
  H   H79       1.0  0.94224  0.71386  0.33945  1.0000
  C   C209      1.0  0.61339  0.30232  0.31466  1.0000
  C   C210      1.0  0.58222  0.30765  0.33729  1.0000
  C   C211      1.0  0.57092  0.33150  0.34897  1.0000
  C   C212      1.0  0.59220  0.35066  0.33191  1.0000
  C   C213      1.0  0.62401  0.34648  0.30764  1.0000
  C   C214      1.0  0.63364  0.32190  0.29757  1.0000
  H   H80       1.0  0.58430  0.36799  0.33887  1.0000
  H   H81       1.0  0.65648  0.31783  0.28304  1.0000
  H   H82       1.0  0.56693  0.29345  0.33885  1.0000
  C   C215      1.0  0.61333  0.70360  0.38514  1.0000
  C   C216      1.0  0.58131  0.69773  0.38506  1.0000
  C   C217      1.0  0.56987  0.67374  0.37574  1.0000
  C   C218      1.0  0.59229  0.65508  0.36340  1.0000
  C   C219      1.0  0.62498  0.65952  0.37192  1.0000
  C   C220      1.0  0.63454  0.68406  0.38283  1.0000
  H   H83       1.0  0.58453  0.63767  0.35806  1.0000
  H   H84       1.0  0.65784  0.68816  0.38741  1.0000
  H   H85       1.0  0.56580  0.71186  0.38580  1.0000
  C   C221      1.0  0.89613  0.30455  0.38547  1.0000
  C   C222      1.0  0.92817  0.31032  0.38495  1.0000
  C   C223      1.0  0.93973  0.33427  0.37564  1.0000
  C   C224      1.0  0.91740  0.35301  0.36358  1.0000
  C   C225      1.0  0.88470  0.34868  0.37255  1.0000
  C   C226      1.0  0.87502  0.32416  0.38352  1.0000
  H   H86       1.0  0.92525  0.37040  0.35820  1.0000
  H   H87       1.0  0.85170  0.32014  0.38838  1.0000
  H   H88       1.0  0.94362  0.29616  0.38544  1.0000
  C   C227      1.0  0.53595  0.09413  0.31610  1.0000
  C   C228      1.0  0.00741  0.10614  0.33389  1.0000
  C   C229      1.0  0.97863  0.09470  0.35341  1.0000
  C   C230      1.0  0.97856  0.06914  0.34624  1.0000
  C   C231      1.0  0.50686  0.05567  0.33649  1.0000
  C   C232      1.0  0.53549  0.06863  0.32573  1.0000
  H   H89       1.0  0.95794  0.06009  0.35665  1.0000
  H   H90       1.0  0.55582  0.05925  0.31490  1.0000
  H   H91       1.0  0.00761  0.12441  0.33247  1.0000
  C   C233      1.0  0.97404  0.91284  0.31274  1.0000
  C   C234      1.0  0.50284  0.90131  0.33072  1.0000
  C   C235      1.0  0.53114  0.91325  0.35172  1.0000
  C   C236      1.0  0.53061  0.93880  0.34374  1.0000
  C   C237      1.0  0.00221  0.95205  0.33039  1.0000
  C   C238      1.0  0.97401  0.93834  0.32140  1.0000
  H   H92       1.0  0.55114  0.94798  0.35360  1.0000
  H   H93       1.0  0.95298  0.94700  0.31621  1.0000
  H   H94       1.0  0.50311  0.88303  0.32981  1.0000
  C   C239      1.0  0.78478  0.59433  0.30804  1.0000
  C   C240      1.0  0.75596  0.60613  0.32382  1.0000
  C   C241      1.0  0.72740  0.59450  0.34452  1.0000
  C   C242      1.0  0.72764  0.56892  0.33844  1.0000
  C   C243      1.0  0.75613  0.55568  0.32932  1.0000
  C   C244      1.0  0.78461  0.56886  0.31876  1.0000
  H   H95       1.0  0.70719  0.55974  0.34981  1.0000
  H   H96       1.0  0.80512  0.55961  0.30923  1.0000
  H   H97       1.0  0.75579  0.62438  0.32111  1.0000
  C   C245      1.0  0.72514  0.41263  0.30470  1.0000
  C   C246      1.0  0.75424  0.40133  0.32047  1.0000
  C   C247      1.0  0.78230  0.41345  0.34268  1.0000
  C   C248      1.0  0.78143  0.43902  0.33608  1.0000
  C   C249      1.0  0.75284  0.45204  0.32326  1.0000
  C   C250      1.0  0.72482  0.43811  0.31449  1.0000
  H   H98       1.0  0.80181  0.44834  0.34656  1.0000
  H   H99       1.0  0.70365  0.44661  0.31068  1.0000
  H   H100      1.0  0.75490  0.38307  0.31816  1.0000
  C   C251      1.0  0.72258  0.17321  0.35566  1.0000
  C   C252      1.0  0.78864  0.17127  0.36946  1.0000
  N   N81       1.0  0.77096  0.18925  0.40501  1.0000
  C   C253      1.0  0.73950  0.19124  0.40307  1.0000
  N   N82       1.0  0.72544  0.21026  0.45204  1.0000
  O   O53       1.0  0.73602  0.23042  0.42748  1.0000
  O   O54       1.0  0.73107  0.20797  0.53442  1.0000
  C   C254      1.0  0.78704  0.83427  0.35417  1.0000
  C   C255      1.0  0.72104  0.83658  0.36927  1.0000
  N   N83       1.0  0.73864  0.81855  0.40472  1.0000
  C   C256      1.0  0.77008  0.81638  0.40218  1.0000
  N   N84       1.0  0.78407  0.79734  0.45119  1.0000
  O   O55       1.0  0.77325  0.77722  0.42715  1.0000
  O   O56       1.0  0.77865  0.79975  0.53365  1.0000
  C   C257      1.0  0.97073  0.67242  0.37195  1.0000
  C   C258      1.0  0.53691  0.67017  0.37796  1.0000
  N   N85       1.0  0.51987  0.68755  0.41947  1.0000
  C   C259      1.0  0.98841  0.68957  0.42158  1.0000
  N   N86       1.0  0.97531  0.70797  0.47555  1.0000
  O   O57       1.0  0.98661  0.72823  0.45495  1.0000
  O   O58       1.0  0.98144  0.70420  0.55687  1.0000
  C   C260      1.0  0.53885  0.33512  0.37092  1.0000
  C   C261      1.0  0.97272  0.33772  0.37764  1.0000
  N   N87       1.0  0.98965  0.32032  0.41933  1.0000
  C   C262      1.0  0.52110  0.31814  0.42115  1.0000
  N   N88       1.0  0.53412  0.29976  0.47535  1.0000
  O   O59       1.0  0.52261  0.27953  0.45530  1.0000
  O   O60       1.0  0.52814  0.30369  0.55665  1.0000
  N   N89       1.0  0.59163  0.10230  0.33223  1.0000
  C   C263      1.0  0.61742  0.11700  0.33089  1.0000
  H   H101      1.0  0.63722  0.11126  0.36287  1.0000
  N   N90       1.0  0.91835  0.90462  0.32861  1.0000
  C   C264      1.0  0.89253  0.88997  0.32760  1.0000
  H   H102      1.0  0.87253  0.89599  0.35781  1.0000
  C   C265      1.0  0.95183  0.10942  0.37111  1.0000
  C   C266      1.0  0.89985  0.14177  0.37381  1.0000
  N   N91       1.0  0.92821  0.14714  0.40950  1.0000
  C   C267      1.0  0.95371  0.13260  0.41246  1.0000
  N   N92       1.0  0.97973  0.14060  0.46318  1.0000
  O   O61       1.0  0.98931  0.16076  0.43544  1.0000
  O   O62       1.0  0.97236  0.14293  0.54444  1.0000
  C   C268      1.0  0.55807  0.89882  0.37115  1.0000
  C   C269      1.0  0.61000  0.86649  0.37504  1.0000
  N   N93       1.0  0.58168  0.86125  0.41134  1.0000
  C   C270      1.0  0.55623  0.87582  0.41393  1.0000
  N   N94       1.0  0.53014  0.86800  0.46476  1.0000
  O   O63       1.0  0.52058  0.84775  0.43791  1.0000
  O   O64       1.0  0.53744  0.86592  0.54615  1.0000
  N   N95       1.0  0.84008  0.60259  0.32900  1.0000
  C   C271      1.0  0.86579  0.61731  0.33117  1.0000
  H   H103      1.0  0.88512  0.61144  0.36520  1.0000
  N   N96       1.0  0.66984  0.40431  0.32545  1.0000
  C   C272      1.0  0.64408  0.38965  0.32794  1.0000
  H   H104      1.0  0.62454  0.39580  0.36022  1.0000
  C   C273      1.0  0.70051  0.60901  0.36341  1.0000
  C   C274      1.0  0.64810  0.64089  0.37038  1.0000
  N   N97       1.0  0.67673  0.64646  0.40373  1.0000
  C   C275      1.0  0.70247  0.63220  0.40465  1.0000
  N   N98       1.0  0.72880  0.64052  0.45329  1.0000
  O   O65       1.0  0.73778  0.66075  0.42452  1.0000
  O   O66       1.0  0.72217  0.64287  0.53505  1.0000
  C   C276      1.0  0.80932  0.39923  0.36316  1.0000
  C   C277      1.0  0.86167  0.36738  0.37118  1.0000
  N   N99       1.0  0.83310  0.36193  0.40519  1.0000
  C   C278      1.0  0.80740  0.37623  0.40581  1.0000
  N   N100      1.0  0.78100  0.36808  0.45460  1.0000
  O   O67       1.0  0.77204  0.34775  0.42674  1.0000
  O   O68       1.0  0.78759  0.36598  0.53648  1.0000
  C   C279      1.0  0.62304  0.27763  0.31081  1.0000
  C   C280      1.0  0.63720  0.22841  0.29180  1.0000
  N   N101      1.0  0.62515  0.23741  0.36920  1.0000
  C   C281      1.0  0.61750  0.26107  0.38203  1.0000
  N   N102      1.0  0.60620  0.26875  0.46644  1.0000
  O   O69       1.0  0.58273  0.25651  0.48905  1.0000
  O   O70       1.0  0.62687  0.26569  0.52538  1.0000
  C   C282      1.0  0.88602  0.72936  0.31130  1.0000
  C   C283      1.0  0.87192  0.77855  0.29107  1.0000
  N   N103      1.0  0.88390  0.76967  0.36877  1.0000
  C   C284      1.0  0.89150  0.74604  0.38219  1.0000
  N   N104      1.0  0.90276  0.73851  0.46682  1.0000
  O   O71       1.0  0.92623  0.75077  0.48920  1.0000
  O   O72       1.0  0.88207  0.74167  0.52562  1.0000
  N   N105      1.0  0.90388  0.26339  0.43514  1.0000
  C   C285      1.0  0.89881  0.23914  0.43681  1.0000
  H   H105      1.0  0.91252  0.22843  0.47666  1.0000
  N   N106      1.0  0.60556  0.74472  0.43531  1.0000
  C   C286      1.0  0.61062  0.76897  0.43725  1.0000
  H   H106      1.0  0.59704  0.77964  0.47759  1.0000
  N   N107      1.0  0.02463  0.99038  0.37707  1.0000
  C   C287      1.0  0.02769  0.01485  0.38172  1.0000
  H   H107      1.0  0.54502  0.02210  0.42071  1.0000
  N   N108      1.0  0.77477  0.49053  0.37031  1.0000
  C   C288      1.0  0.77750  0.51502  0.37500  1.0000
  H   H108      1.0  0.79481  0.52241  0.41370  1.0000
