data_image0
_chemical_formula_structural       CNCHNHCNCHNHCNCHNHCNCHNHC4HC6HO2C4HC6HO2C4HC6HO2C4HC6HO2C4HC6HO2C4HC6HO2C4HC6HO2C4HC6HO2CNCHNHCNCHNHCNCHNHCNCHNHC4HC6HO2C4HC6HO2C4HC6HO2C4HC6HO2CNCHNHCNCHNHCNCHNHCNCHNHC4HC6HO2C4HC6HO2CNCHNHCNCHNHCNCHNHCNCHNHC4HC6HO2C4HC6HO2C4HC6HO2C4HC6HO2C4HC6HO2C4HC6HO2C4HC6HO2C4HC6HO2CNCHNHCNCHNHCNCHNHCNCHNHCNCNCNCNCNCNCNCNCNCNCNCNCNCNCNCNCNCNCNCNCNCNCNCNCNCNCNCNCNCNCNCNCNCNCNCNCNCNCNCNCNCNCNCNCNCNCNCNCNCNCNCNCNCNCNCNCNCNCNCNCNCNCNCNCNCNCNCNCNCNCNCNCNCNCNCNCNCNCNCNCNCNCNCNC4HC6HO2C4HC6HO2C4HC6HO2C4HC6HO2CNCHNHCNCHNHCNCHNHCNCHNHCNCHNHCNCHNHCNCHNHCNCHNHC4HC6HO2C4HC6HO2C4HC6HO2C4HC6HO2CNCHNHCNCHNHCNCHNHCNCHNHC4HC6HO2C4HC6HO2C4HC6HO2C4HC6HO2CNCHNHCNCHNHC4HC6HO2C4HC6HO2C4HC6HO2C4HC6HO2CNCHNHCNCHNHCNCHNHCNCHNHCNCHNHCNCHNHCNCHNHCNCHNHC4HC6HO2C4HC6HO2C4HC6HO2C4HC6HO2
_chemical_formula_sum              "C588 N168 H168 O84"
_cell_length_a       77.3758
_cell_length_b       77.3758
_cell_length_c       14.8989
_cell_angle_alpha    90
_cell_angle_beta     90
_cell_angle_gamma    90

_space_group_name_H-M_alt    "P 1"
_space_group_IT_number       1

loop_
  _space_group_symop_operation_xyz
  'x, y, z'

loop_
  _atom_site_type_symbol
  _atom_site_label
  _atom_site_symmetry_multiplicity
  _atom_site_fract_x
  _atom_site_fract_y
  _atom_site_fract_z
  _atom_site_occupancy
  C   C1        1.0  0.10309  0.12703  0.35755  1.0000
  N   N1        1.0  0.11606  0.13872  0.36229  1.0000
  C   C2        1.0  0.15362  0.17653  0.35885  1.0000
  H   H1        1.0  0.09112  0.13138  0.33930  1.0000
  N   N2        1.0  0.14167  0.16379  0.36253  1.0000
  H   H2        1.0  0.14952  0.18869  0.34231  1.0000
  C   C3        1.0  0.90390  0.87985  0.35795  1.0000
  N   N3        1.0  0.89094  0.86816  0.36266  1.0000
  C   C4        1.0  0.85340  0.83035  0.35916  1.0000
  H   H3        1.0  0.91586  0.87551  0.33933  1.0000
  N   N4        1.0  0.86534  0.84309  0.36287  1.0000
  H   H4        1.0  0.85749  0.81820  0.34246  1.0000
  C   C5        1.0  0.87984  0.10294  0.35789  1.0000
  N   N5        1.0  0.86812  0.11587  0.36272  1.0000
  C   C6        1.0  0.83020  0.15331  0.35956  1.0000
  H   H5        1.0  0.87551  0.09095  0.33982  1.0000
  N   N6        1.0  0.84298  0.14141  0.36313  1.0000
  H   H6        1.0  0.81805  0.14918  0.34312  1.0000
  C   C7        1.0  0.12702  0.90375  0.35772  1.0000
  N   N7        1.0  0.13868  0.89076  0.36238  1.0000
  C   C8        1.0  0.17639  0.85311  0.35880  1.0000
  H   H7        1.0  0.13139  0.91570  0.33915  1.0000
  N   N8        1.0  0.16368  0.86509  0.36252  1.0000
  H   H8        1.0  0.18855  0.85718  0.34214  1.0000
  C   C9        1.0  0.09069  0.05011  0.30388  1.0000
  C   C10       1.0  0.09434  0.01407  0.28910  1.0000
  C   C11       1.0  0.08389  0.02297  0.22572  1.0000
  C   C12       1.0  0.08229  0.04102  0.23419  1.0000
  H   H9        1.0  0.07434  0.04759  0.19093  1.0000
  C   C13       1.0  0.09487  0.99584  0.28828  1.0000
  C   C14       1.0  0.09308  0.95965  0.30060  1.0000
  C   C15       1.0  0.08436  0.96844  0.23094  1.0000
  C   C16       1.0  0.08496  0.98657  0.22398  1.0000
  C   C17       1.0  0.07523  0.99554  0.15861  1.0000
  C   C18       1.0  0.07469  0.01368  0.15950  1.0000
  H   H10       1.0  0.07669  0.96159  0.18752  1.0000
  O   O1        1.0  0.06559  0.98699  0.09693  1.0000
  O   O2        1.0  0.06457  0.02186  0.09860  1.0000
  C   C19       1.0  0.91622  0.95675  0.30351  1.0000
  C   C20       1.0  0.91257  0.99278  0.28878  1.0000
  C   C21       1.0  0.92300  0.98388  0.22529  1.0000
  C   C22       1.0  0.92459  0.96583  0.23369  1.0000
  H   H11       1.0  0.93254  0.95927  0.19046  1.0000
  C   C23       1.0  0.91206  0.01100  0.28809  1.0000
  C   C24       1.0  0.91389  0.04719  0.30064  1.0000
  C   C25       1.0  0.92260  0.03841  0.23094  1.0000
  C   C26       1.0  0.92196  0.02028  0.22379  1.0000
  C   C27       1.0  0.93167  0.01132  0.15829  1.0000
  C   C28       1.0  0.93219  0.99317  0.15905  1.0000
  H   H12       1.0  0.93025  0.04527  0.18748  1.0000
  O   O3        1.0  0.94130  0.01987  0.09662  1.0000
  O   O4        1.0  0.94229  0.98500  0.09804  1.0000
  C   C29       1.0  0.95679  0.09066  0.30373  1.0000
  C   C30       1.0  0.99283  0.09430  0.28907  1.0000
  C   C31       1.0  0.98393  0.08385  0.22566  1.0000
  C   C32       1.0  0.96588  0.08225  0.23406  1.0000
  H   H13       1.0  0.95932  0.07431  0.19080  1.0000
  C   C33       1.0  0.01106  0.09482  0.28832  1.0000
  C   C34       1.0  0.04725  0.09304  0.30070  1.0000
  C   C35       1.0  0.03846  0.08430  0.23108  1.0000
  C   C36       1.0  0.02033  0.08491  0.22406  1.0000
  C   C37       1.0  0.01137  0.07518  0.15867  1.0000
  C   C38       1.0  0.99323  0.07464  0.15949  1.0000
  H   H14       1.0  0.04532  0.07663  0.18769  1.0000
  O   O5        1.0  0.01992  0.06554  0.09702  1.0000
  O   O6        1.0  0.98505  0.06452  0.09856  1.0000
  C   C39       1.0  0.05014  0.91622  0.30351  1.0000
  C   C40       1.0  0.01411  0.91256  0.28873  1.0000
  C   C41       1.0  0.02301  0.92302  0.22535  1.0000
  C   C42       1.0  0.04106  0.92461  0.23377  1.0000
  H   H15       1.0  0.04762  0.93258  0.19061  1.0000
  C   C43       1.0  0.99589  0.91205  0.28800  1.0000
  C   C44       1.0  0.95970  0.91386  0.30053  1.0000
  C   C45       1.0  0.96848  0.92259  0.23088  1.0000
  C   C46       1.0  0.98661  0.92197  0.22376  1.0000
  C   C47       1.0  0.99557  0.93170  0.15835  1.0000
  C   C48       1.0  0.01371  0.93222  0.15916  1.0000
  H   H16       1.0  0.96162  0.93025  0.18745  1.0000
  O   O7        1.0  0.98702  0.94134  0.09675  1.0000
  O   O8        1.0  0.02189  0.94235  0.09825  1.0000
  C   C49       1.0  0.16030  0.32064  0.32474  1.0000
  C   C50       1.0  0.17081  0.28553  0.32797  1.0000
  C   C51       1.0  0.18277  0.29835  0.30007  1.0000
  C   C52       1.0  0.17718  0.31567  0.29800  1.0000
  H   H17       1.0  0.18584  0.32495  0.27842  1.0000
  C   C53       1.0  0.17624  0.26810  0.33366  1.0000
  C   C54       1.0  0.18680  0.23315  0.34882  1.0000
  C   C55       1.0  0.19860  0.24602  0.32081  1.0000
  C   C56       1.0  0.19357  0.26350  0.31232  1.0000
  C   C57       1.0  0.20529  0.27638  0.28385  1.0000
  C   C58       1.0  0.19991  0.29370  0.27755  1.0000
  H   H18       1.0  0.21102  0.24258  0.30525  1.0000
  O   O9        1.0  0.22187  0.27246  0.26289  1.0000
  O   O10       1.0  0.21163  0.30572  0.25148  1.0000
  C   C59       1.0  0.84620  0.68614  0.32601  1.0000
  C   C60       1.0  0.83589  0.72130  0.32827  1.0000
  C   C61       1.0  0.82389  0.70853  0.30021  1.0000
  C   C62       1.0  0.82938  0.69117  0.29861  1.0000
  H   H19       1.0  0.82069  0.68193  0.27907  1.0000
  C   C63       1.0  0.83056  0.73875  0.33368  1.0000
  C   C64       1.0  0.82016  0.77374  0.34868  1.0000
  C   C65       1.0  0.80833  0.76093  0.32029  1.0000
  C   C66       1.0  0.81327  0.74343  0.31188  1.0000
  C   C67       1.0  0.80151  0.73060  0.28318  1.0000
  C   C68       1.0  0.80680  0.71326  0.27716  1.0000
  H   H20       1.0  0.79593  0.76443  0.30449  1.0000
  O   O11       1.0  0.78497  0.73461  0.26181  1.0000
  O   O12       1.0  0.79505  0.70129  0.25091  1.0000
  C   C69       1.0  0.68596  0.16016  0.32472  1.0000
  C   C70       1.0  0.72110  0.17059  0.32787  1.0000
  C   C71       1.0  0.70831  0.18258  0.29994  1.0000
  C   C72       1.0  0.69097  0.17703  0.29792  1.0000
  H   H21       1.0  0.68172  0.18571  0.27832  1.0000
  C   C73       1.0  0.73854  0.17597  0.33355  1.0000
  C   C74       1.0  0.77351  0.18646  0.34880  1.0000
  C   C75       1.0  0.76067  0.19827  0.32069  1.0000
  C   C76       1.0  0.74318  0.19329  0.31215  1.0000
  C   C77       1.0  0.73033  0.20503  0.28363  1.0000
  C   C78       1.0  0.71300  0.19970  0.27734  1.0000
  H   H22       1.0  0.76413  0.21069  0.30512  1.0000
  O   O13       1.0  0.73429  0.22161  0.26263  1.0000
  O   O14       1.0  0.70101  0.21144  0.25124  1.0000
  C   C79       1.0  0.32048  0.84611  0.32619  1.0000
  C   C80       1.0  0.28535  0.83571  0.32851  1.0000
  C   C81       1.0  0.29814  0.82374  0.30041  1.0000
  C   C82       1.0  0.31548  0.82928  0.29877  1.0000
  H   H23       1.0  0.32475  0.82061  0.27920  1.0000
  C   C83       1.0  0.26790  0.83032  0.33394  1.0000
  C   C84       1.0  0.23294  0.81984  0.34884  1.0000
  C   C85       1.0  0.24577  0.80804  0.32050  1.0000
  C   C86       1.0  0.26326  0.81303  0.31214  1.0000
  C   C87       1.0  0.27612  0.80130  0.28341  1.0000
  C   C88       1.0  0.29345  0.80663  0.27737  1.0000
  H   H24       1.0  0.24230  0.79563  0.30467  1.0000
  O   O15       1.0  0.27216  0.78475  0.26203  1.0000
  O   O16       1.0  0.30545  0.79492  0.25110  1.0000
  C   C89       1.0  0.85609  0.30507  0.34455  1.0000
  N   N9        1.0  0.85048  0.28837  0.34577  1.0000
  C   C90       1.0  0.83507  0.23636  0.33988  1.0000
  H   H25       1.0  0.86830  0.30760  0.32180  1.0000
  N   N10       1.0  0.83969  0.25327  0.34342  1.0000
  H   H26       1.0  0.84417  0.22759  0.31980  1.0000
  C   C91       1.0  0.15017  0.70135  0.34227  1.0000
  N   N11       1.0  0.15580  0.71804  0.34380  1.0000
  C   C92       1.0  0.17129  0.77005  0.33880  1.0000
  H   H27       1.0  0.13800  0.69883  0.31896  1.0000
  N   N12       1.0  0.16664  0.75314  0.34209  1.0000
  H   H28       1.0  0.16222  0.77883  0.31852  1.0000
  C   C93       1.0  0.30530  0.15026  0.34211  1.0000
  N   N13       1.0  0.28862  0.15592  0.34363  1.0000
  C   C94       1.0  0.23664  0.17150  0.33858  1.0000
  H   H29       1.0  0.30780  0.13808  0.31897  1.0000
  N   N14       1.0  0.25353  0.16682  0.34185  1.0000
  H   H30       1.0  0.22784  0.16245  0.31827  1.0000
  C   C95       1.0  0.70157  0.85621  0.34466  1.0000
  N   N15       1.0  0.71827  0.85063  0.34590  1.0000
  C   C96       1.0  0.77031  0.83531  0.34010  1.0000
  H   H31       1.0  0.69901  0.86840  0.32171  1.0000
  N   N16       1.0  0.75339  0.83990  0.34362  1.0000
  H   H32       1.0  0.77906  0.84442  0.31996  1.0000
  C   C97       1.0  0.40462  0.03634  0.32296  1.0000
  C   C98       1.0  0.39009  0.07046  0.32429  1.0000
  C   C99       1.0  0.40790  0.06818  0.30429  1.0000
  C   C100      1.0  0.41473  0.05122  0.30364  1.0000
  H   H33       1.0  0.42758  0.04977  0.28930  1.0000
  C   C101      1.0  0.38301  0.08745  0.32670  1.0000
  C   C102      1.0  0.36867  0.12155  0.33431  1.0000
  C   C103      1.0  0.38635  0.11883  0.31420  1.0000
  C   C104      1.0  0.39371  0.10207  0.30976  1.0000
  C   C105      1.0  0.41137  0.09953  0.28951  1.0000
  C   C106      1.0  0.41839  0.08277  0.28663  1.0000
  H   H34       1.0  0.39408  0.12933  0.30229  1.0000
  O   O17       1.0  0.42197  0.11311  0.27282  1.0000
  O   O18       1.0  0.43543  0.08103  0.26750  1.0000
  C   C107      1.0  0.60178  0.96969  0.33172  1.0000
  C   C108      1.0  0.61649  0.93566  0.33211  1.0000
  C   C109      1.0  0.59858  0.93783  0.31426  1.0000
  C   C110      1.0  0.59166  0.95474  0.31426  1.0000
  H   H35       1.0  0.57876  0.95609  0.30098  1.0000
  C   C111      1.0  0.62366  0.91872  0.33355  1.0000
  C   C112      1.0  0.63817  0.88470  0.33901  1.0000
  C   C113      1.0  0.62041  0.88733  0.32077  1.0000
  C   C114      1.0  0.61296  0.90406  0.31752  1.0000
  C   C115      1.0  0.59520  0.90648  0.29924  1.0000
  C   C116      1.0  0.58809  0.92320  0.29753  1.0000
  H   H36       1.0  0.61268  0.87682  0.30951  1.0000
  O   O19       1.0  0.58462  0.89286  0.28331  1.0000
  O   O20       1.0  0.57097  0.92486  0.28013  1.0000
  C   C117      1.0  0.96970  0.40481  0.33135  1.0000
  C   C118      1.0  0.93565  0.39012  0.33203  1.0000
  C   C119      1.0  0.93782  0.40804  0.31440  1.0000
  C   C120      1.0  0.95474  0.41494  0.31425  1.0000
  H   H37       1.0  0.95609  0.42785  0.30112  1.0000
  C   C121      1.0  0.91870  0.38296  0.33356  1.0000
  C   C122      1.0  0.88467  0.36847  0.33911  1.0000
  C   C123      1.0  0.88732  0.38624  0.32111  1.0000
  C   C124      1.0  0.90405  0.39368  0.31782  1.0000
  C   C125      1.0  0.90648  0.41144  0.29978  1.0000
  C   C126      1.0  0.92320  0.41855  0.29799  1.0000
  H   H38       1.0  0.87680  0.39398  0.31007  1.0000
  O   O21       1.0  0.89286  0.42204  0.28414  1.0000
  O   O22       1.0  0.92485  0.43567  0.28080  1.0000
  C   C127      1.0  0.03635  0.60204  0.32285  1.0000
  C   C128      1.0  0.07047  0.61657  0.32419  1.0000
  C   C129      1.0  0.06819  0.59876  0.30414  1.0000
  C   C130      1.0  0.05123  0.59193  0.30349  1.0000
  H   H39       1.0  0.04978  0.57908  0.28912  1.0000
  C   C131      1.0  0.08745  0.62365  0.32661  1.0000
  C   C132      1.0  0.12154  0.63799  0.33423  1.0000
  C   C133      1.0  0.11883  0.62030  0.31407  1.0000
  C   C134      1.0  0.10207  0.61295  0.30963  1.0000
  C   C135      1.0  0.09954  0.59528  0.28932  1.0000
  C   C136      1.0  0.08278  0.58827  0.28643  1.0000
  H   H40       1.0  0.12933  0.61258  0.30213  1.0000
  O   O23       1.0  0.11312  0.58469  0.27259  1.0000
  O   O24       1.0  0.08104  0.57123  0.26725  1.0000
  C   C137      1.0  0.61909  0.03825  0.32572  1.0000
  N   N17       1.0  0.62529  0.05479  0.32765  1.0000
  C   C138      1.0  0.64635  0.10543  0.32794  1.0000
  H   H41       1.0  0.62747  0.02843  0.31109  1.0000
  N   N18       1.0  0.63926  0.08933  0.32856  1.0000
  H   H42       1.0  0.65927  0.10643  0.31439  1.0000
  C   C139      1.0  0.38719  0.96799  0.33264  1.0000
  N   N19       1.0  0.38101  0.95145  0.33401  1.0000
  C   C140      1.0  0.36008  0.90082  0.33084  1.0000
  H   H43       1.0  0.37896  0.97773  0.31469  1.0000
  N   N20       1.0  0.36712  0.91694  0.33291  1.0000
  H   H44       1.0  0.34729  0.89979  0.31455  1.0000
  C   C141      1.0  0.03828  0.38744  0.32557  1.0000
  N   N21       1.0  0.05481  0.38125  0.32751  1.0000
  C   C142      1.0  0.10548  0.36020  0.32790  1.0000
  H   H45       1.0  0.02846  0.37905  0.31109  1.0000
  N   N22       1.0  0.08937  0.36729  0.32846  1.0000
  H   H46       1.0  0.10648  0.34728  0.31453  1.0000
  C   C143      1.0  0.96799  0.61944  0.33211  1.0000
  N   N23       1.0  0.95145  0.62561  0.33362  1.0000
  C   C144      1.0  0.90083  0.64652  0.33062  1.0000
  H   H47       1.0  0.97773  0.62766  0.31400  1.0000
  N   N24       1.0  0.91695  0.63948  0.33266  1.0000
  H   H48       1.0  0.89980  0.65930  0.31417  1.0000
  C   C145      1.0  0.45753  0.00356  0.32570  1.0000
  C   C146      1.0  0.49406  0.00291  0.31980  1.0000
  C   C147      1.0  0.48496  0.01494  0.26529  1.0000
  C   C148      1.0  0.46669  0.01521  0.27012  1.0000
  H   H49       1.0  0.45991  0.02381  0.23147  1.0000
  C   C149      1.0  0.51233  0.00260  0.31935  1.0000
  C   C150      1.0  0.54883  0.00213  0.32388  1.0000
  C   C151      1.0  0.53997  0.01410  0.26890  1.0000
  C   C152      1.0  0.52170  0.01436  0.26456  1.0000
  C   C153      1.0  0.51258  0.02589  0.20813  1.0000
  C   C154      1.0  0.49437  0.02616  0.20843  1.0000
  H   H50       1.0  0.54697  0.02256  0.23044  1.0000
  O   O25       1.0  0.52109  0.03683  0.15258  1.0000
  O   O26       1.0  0.48612  0.03736  0.15314  1.0000
  C   C155      1.0  0.00222  0.45775  0.32292  1.0000
  C   C156      1.0  0.00273  0.49427  0.31847  1.0000
  C   C157      1.0  0.01507  0.48489  0.26725  1.0000
  C   C158      1.0  0.01475  0.46663  0.27146  1.0000
  H   H51       1.0  0.02362  0.45964  0.23553  1.0000
  C   C159      1.0  0.00304  0.51255  0.31898  1.0000
  C   C160      1.0  0.00361  0.54909  0.32488  1.0000
  C   C161      1.0  0.01583  0.53991  0.27278  1.0000
  C   C162      1.0  0.01564  0.52164  0.26802  1.0000
  C   C163      1.0  0.02748  0.51223  0.21468  1.0000
  C   C164      1.0  0.02721  0.49402  0.21438  1.0000
  H   H52       1.0  0.02483  0.54667  0.23659  1.0000
  O   O27       1.0  0.03928  0.52047  0.16291  1.0000
  O   O28       1.0  0.03877  0.48550  0.16231  1.0000
  C   C165      1.0  0.18824  0.39212  0.33660  1.0000
  N   N25       1.0  0.20477  0.39833  0.33733  1.0000
  C   C166      1.0  0.25560  0.41854  0.32500  1.0000
  H   H53       1.0  0.17879  0.39932  0.30655  1.0000
  N   N26       1.0  0.23937  0.41186  0.33130  1.0000
  H   H54       1.0  0.25701  0.43051  0.29679  1.0000
  C   C167      1.0  0.81821  0.61464  0.33929  1.0000
  N   N27       1.0  0.80169  0.60841  0.33970  1.0000
  C   C168      1.0  0.75093  0.58807  0.32647  1.0000
  H   H55       1.0  0.82770  0.60745  0.30955  1.0000
  N   N28       1.0  0.76714  0.59480  0.33303  1.0000
  H   H56       1.0  0.74958  0.57607  0.29856  1.0000
  C   C169      1.0  0.61449  0.18819  0.33682  1.0000
  N   N29       1.0  0.60827  0.20472  0.33756  1.0000
  C   C170      1.0  0.58803  0.25554  0.32528  1.0000
  H   H57       1.0  0.60727  0.17873  0.30701  1.0000
  N   N30       1.0  0.59473  0.23931  0.33154  1.0000
  H   H58       1.0  0.57605  0.25694  0.29727  1.0000
  C   C171      1.0  0.39197  0.81818  0.33918  1.0000
  N   N31       1.0  0.39821  0.80166  0.33956  1.0000
  C   C172      1.0  0.41850  0.75088  0.32624  1.0000
  H   H59       1.0  0.39915  0.82766  0.30924  1.0000
  N   N32       1.0  0.41179  0.76710  0.33284  1.0000
  H   H60       1.0  0.43049  0.74952  0.29816  1.0000
  C   C173      1.0  0.82061  0.37416  0.35297  1.0000
  C   C174      1.0  0.78716  0.38916  0.34558  1.0000
  C   C175      1.0  0.80151  0.39859  0.31153  1.0000
  C   C176      1.0  0.81819  0.39086  0.31608  1.0000
  H   H61       1.0  0.82862  0.39719  0.28950  1.0000
  C   C177      1.0  0.77018  0.39583  0.34071  1.0000
  C   C178      1.0  0.73583  0.40848  0.33248  1.0000
  C   C179      1.0  0.74991  0.41853  0.30048  1.0000
  C   C180      1.0  0.76718  0.41239  0.30302  1.0000
  C   C181      1.0  0.78145  0.42192  0.26979  1.0000
  C   C182      1.0  0.79838  0.41506  0.27350  1.0000
  H   H62       1.0  0.74752  0.43047  0.27355  1.0000
  O   O29       1.0  0.77911  0.43774  0.23276  1.0000
  O   O30       1.0  0.81158  0.42455  0.23986  1.0000
  C   C183      1.0  0.18565  0.63226  0.35047  1.0000
  C   C184      1.0  0.21915  0.61732  0.34386  1.0000
  C   C185      1.0  0.20485  0.60786  0.30962  1.0000
  C   C186      1.0  0.18814  0.61555  0.31381  1.0000
  H   H63       1.0  0.17774  0.60919  0.28702  1.0000
  C   C187      1.0  0.23615  0.61069  0.33934  1.0000
  C   C188      1.0  0.27054  0.59809  0.33176  1.0000
  C   C189      1.0  0.25649  0.58801  0.29963  1.0000
  C   C190      1.0  0.23921  0.59412  0.30185  1.0000
  C   C191      1.0  0.22498  0.58455  0.26848  1.0000
  C   C192      1.0  0.20803  0.59138  0.27183  1.0000
  H   H64       1.0  0.25891  0.57607  0.27287  1.0000
  O   O31       1.0  0.22737  0.56872  0.23167  1.0000
  O   O32       1.0  0.19487  0.58185  0.23807  1.0000
  C   C193      1.0  0.37441  0.18566  0.35068  1.0000
  C   C194      1.0  0.38932  0.21918  0.34403  1.0000
  C   C195      1.0  0.39878  0.20488  0.30953  1.0000
  C   C196      1.0  0.39110  0.18817  0.31371  1.0000
  H   H65       1.0  0.39745  0.17779  0.28676  1.0000
  C   C197      1.0  0.39593  0.23618  0.33948  1.0000
  C   C198      1.0  0.40849  0.27058  0.33181  1.0000
  C   C199      1.0  0.41857  0.25655  0.29947  1.0000
  C   C200      1.0  0.41248  0.23926  0.30171  1.0000
  C   C201      1.0  0.42204  0.22505  0.26809  1.0000
  C   C202      1.0  0.41523  0.20810  0.27146  1.0000
  H   H66       1.0  0.43049  0.25899  0.27249  1.0000
  O   O33       1.0  0.43784  0.22747  0.23102  1.0000
  O   O34       1.0  0.42475  0.19495  0.23743  1.0000
  C   C203      1.0  0.63252  0.82063  0.35263  1.0000
  C   C204      1.0  0.61749  0.78719  0.34529  1.0000
  C   C205      1.0  0.60804  0.80156  0.31153  1.0000
  C   C206      1.0  0.61578  0.81823  0.31609  1.0000
  H   H67       1.0  0.60944  0.82868  0.28969  1.0000
  C   C207      1.0  0.61080  0.77022  0.34047  1.0000
  C   C208      1.0  0.59811  0.73589  0.33235  1.0000
  C   C209      1.0  0.58805  0.74998  0.30059  1.0000
  C   C210      1.0  0.59421  0.76724  0.30310  1.0000
  C   C211      1.0  0.58467  0.78153  0.27013  1.0000
  C   C212      1.0  0.59154  0.79845  0.27382  1.0000
  H   H68       1.0  0.57609  0.74761  0.27391  1.0000
  O   O35       1.0  0.56882  0.77921  0.23342  1.0000
  O   O36       1.0  0.58204  0.81167  0.24047  1.0000
  C   C213      1.0  0.30866  0.45752  0.31791  1.0000
  C   C214      1.0  0.30961  0.49437  0.30800  1.0000
  C   C215      1.0  0.29497  0.48526  0.27480  1.0000
  C   C216      1.0  0.29482  0.46704  0.28021  1.0000
  H   H69       1.0  0.28420  0.46055  0.25672  1.0000
  C   C217      1.0  0.30971  0.51276  0.30651  1.0000
  C   C218      1.0  0.30913  0.54967  0.31057  1.0000
  C   C219      1.0  0.29526  0.54004  0.27379  1.0000
  C   C220      1.0  0.29520  0.52181  0.27156  1.0000
  C   C221      1.0  0.28087  0.51258  0.23738  1.0000
  C   C222      1.0  0.28075  0.49444  0.23907  1.0000
  H   H70       1.0  0.28472  0.54647  0.24895  1.0000
  O   O37       1.0  0.26682  0.52085  0.20416  1.0000
  O   O38       1.0  0.26660  0.48611  0.20735  1.0000
  C   C223      1.0  0.69787  0.54904  0.31811  1.0000
  C   C224      1.0  0.69688  0.51221  0.30806  1.0000
  C   C225      1.0  0.71154  0.52130  0.27496  1.0000
  C   C226      1.0  0.71172  0.53952  0.28046  1.0000
  H   H71       1.0  0.72235  0.54600  0.25711  1.0000
  C   C227      1.0  0.69676  0.49382  0.30651  1.0000
  C   C228      1.0  0.69728  0.45691  0.31049  1.0000
  C   C229      1.0  0.71118  0.46652  0.27379  1.0000
  C   C230      1.0  0.71127  0.48476  0.27158  1.0000
  C   C231      1.0  0.72561  0.49397  0.23749  1.0000
  C   C232      1.0  0.72575  0.51211  0.23925  1.0000
  H   H72       1.0  0.72170  0.46008  0.24894  1.0000
  O   O39       1.0  0.73966  0.48568  0.20432  1.0000
  O   O40       1.0  0.73993  0.52042  0.20765  1.0000
  C   C233      1.0  0.54904  0.30860  0.31814  1.0000
  C   C234      1.0  0.51219  0.30960  0.30812  1.0000
  C   C235      1.0  0.52129  0.29494  0.27499  1.0000
  C   C236      1.0  0.53950  0.29476  0.28046  1.0000
  H   H73       1.0  0.54598  0.28414  0.25703  1.0000
  C   C237      1.0  0.49381  0.30972  0.30659  1.0000
  C   C238      1.0  0.45689  0.30918  0.31061  1.0000
  C   C239      1.0  0.46651  0.29529  0.27383  1.0000
  C   C240      1.0  0.48474  0.29521  0.27164  1.0000
  C   C241      1.0  0.49396  0.28087  0.23752  1.0000
  C   C242      1.0  0.51210  0.28073  0.23927  1.0000
  H   H74       1.0  0.46007  0.28476  0.24897  1.0000
  O   O41       1.0  0.48567  0.26682  0.20431  1.0000
  O   O42       1.0  0.52041  0.26656  0.20762  1.0000
  C   C243      1.0  0.45752  0.69783  0.31801  1.0000
  C   C244      1.0  0.49436  0.69688  0.30800  1.0000
  C   C245      1.0  0.48525  0.71153  0.27491  1.0000
  C   C246      1.0  0.46703  0.71169  0.28035  1.0000
  H   H75       1.0  0.46054  0.72231  0.25699  1.0000
  C   C247      1.0  0.51274  0.69678  0.30651  1.0000
  C   C248      1.0  0.54965  0.69735  0.31063  1.0000
  C   C249      1.0  0.54003  0.71124  0.27392  1.0000
  C   C250      1.0  0.52179  0.71130  0.27166  1.0000
  C   C251      1.0  0.51256  0.72564  0.23756  1.0000
  C   C252      1.0  0.49442  0.72576  0.23925  1.0000
  H   H76       1.0  0.54646  0.72177  0.24913  1.0000
  O   O43       1.0  0.52084  0.73970  0.20445  1.0000
  O   O44       1.0  0.48610  0.73992  0.20765  1.0000
  C   C253      1.0  0.40065  0.34984  0.32538  1.0000
  N   N33       1.0  0.38795  0.36209  0.32878  1.0000
  C   C254      1.0  0.34929  0.40137  0.33031  1.0000
  H   H77       1.0  0.41272  0.35354  0.30513  1.0000
  N   N34       1.0  0.36150  0.38861  0.33125  1.0000
  H   H78       1.0  0.35295  0.41349  0.31080  1.0000
  C   C255      1.0  0.60586  0.65666  0.32547  1.0000
  N   N35       1.0  0.61858  0.64442  0.32885  1.0000
  C   C256      1.0  0.65723  0.60516  0.33043  1.0000
  H   H79       1.0  0.59381  0.65296  0.30505  1.0000
  N   N36       1.0  0.64502  0.61791  0.33135  1.0000
  H   H80       1.0  0.65357  0.59304  0.31084  1.0000
  C   C257      1.0  0.65660  0.40066  0.32545  1.0000
  N   N37       1.0  0.64438  0.38794  0.32884  1.0000
  C   C258      1.0  0.60515  0.34924  0.33039  1.0000
  H   H81       1.0  0.65289  0.41272  0.30512  1.0000
  N   N38       1.0  0.61789  0.36146  0.33131  1.0000
  H   H82       1.0  0.59302  0.35289  0.31074  1.0000
  C   C259      1.0  0.34980  0.60588  0.32539  1.0000
  N   N39       1.0  0.36204  0.61857  0.32878  1.0000
  C   C260      1.0  0.40135  0.65719  0.33038  1.0000
  H   H83       1.0  0.35348  0.59381  0.30502  1.0000
  N   N40       1.0  0.38859  0.64499  0.33128  1.0000
  H   H84       1.0  0.41347  0.65352  0.31080  1.0000
  C   C261      1.0  0.06478  0.08923  0.31710  1.0000
  N   N41       1.0  0.07672  0.10111  0.34205  1.0000
  C   C262      1.0  0.09355  0.09658  0.35596  1.0000
  N   N42       1.0  0.09817  0.07971  0.34427  1.0000
  C   C263      1.0  0.08650  0.06758  0.31934  1.0000
  N   N43       1.0  0.07000  0.07269  0.30602  1.0000
  C   C264      1.0  0.94217  0.91766  0.31688  1.0000
  N   N44       1.0  0.93025  0.90577  0.34209  1.0000
  C   C265      1.0  0.91342  0.91030  0.35608  1.0000
  N   N45       1.0  0.90878  0.92716  0.34423  1.0000
  C   C266      1.0  0.92043  0.93928  0.31904  1.0000
  N   N46       1.0  0.93693  0.93419  0.30566  1.0000
  C   C267      1.0  0.91769  0.06471  0.31700  1.0000
  N   N47       1.0  0.90580  0.07665  0.34200  1.0000
  C   C268      1.0  0.91032  0.09348  0.35589  1.0000
  N   N48       1.0  0.92718  0.09811  0.34417  1.0000
  C   C269      1.0  0.93932  0.08646  0.31921  1.0000
  N   N49       1.0  0.93422  0.06995  0.30589  1.0000
  C   C270      1.0  0.08927  0.94212  0.31690  1.0000
  N   N50       1.0  0.10114  0.93017  0.34203  1.0000
  C   C271      1.0  0.09659  0.91335  0.35596  1.0000
  N   N51       1.0  0.07973  0.90874  0.34411  1.0000
  C   C272      1.0  0.06761  0.92041  0.31900  1.0000
  N   N52       1.0  0.07273  0.93690  0.30571  1.0000
  C   C273      1.0  0.21379  0.19369  0.35985  1.0000
  N   N53       1.0  0.20885  0.21057  0.35492  1.0000
  C   C274      1.0  0.19193  0.21551  0.35580  1.0000
  N   N54       1.0  0.17986  0.20285  0.36240  1.0000
  C   C275      1.0  0.18410  0.18586  0.36799  1.0000
  N   N55       1.0  0.20112  0.18167  0.36636  1.0000
  C   C276      1.0  0.79323  0.81318  0.36056  1.0000
  N   N56       1.0  0.79818  0.79631  0.35529  1.0000
  C   C277      1.0  0.81509  0.79137  0.35585  1.0000
  N   N57       1.0  0.82717  0.80403  0.36250  1.0000
  C   C278      1.0  0.82293  0.82102  0.36838  1.0000
  N   N58       1.0  0.80590  0.82521  0.36707  1.0000
  C   C279      1.0  0.81292  0.21346  0.36048  1.0000
  N   N59       1.0  0.79606  0.20849  0.35531  1.0000
  C   C280      1.0  0.79114  0.19157  0.35597  1.0000
  N   N60       1.0  0.80382  0.17951  0.36262  1.0000
  C   C281      1.0  0.82080  0.18377  0.36843  1.0000
  N   N61       1.0  0.82496  0.20081  0.36700  1.0000
  C   C282      1.0  0.19346  0.79291  0.36000  1.0000
  N   N62       1.0  0.21034  0.79784  0.35500  1.0000
  C   C283      1.0  0.21530  0.81475  0.35581  1.0000
  N   N63       1.0  0.20265  0.82683  0.36238  1.0000
  C   C284      1.0  0.18566  0.82262  0.36801  1.0000
  N   N64       1.0  0.18144  0.80559  0.36647  1.0000
  C   C285      1.0  0.41247  0.98843  0.34385  1.0000
  N   N65       1.0  0.40388  0.00394  0.33709  1.0000
  C   C286      1.0  0.41246  0.01941  0.32707  1.0000
  N   N66       1.0  0.43004  0.01860  0.32337  1.0000
  C   C287      1.0  0.43920  0.00378  0.32991  1.0000
  N   N67       1.0  0.43004  0.98907  0.34018  1.0000
  C   C288      1.0  0.59377  0.01776  0.33580  1.0000
  N   N68       1.0  0.60243  0.00222  0.33625  1.0000
  C   C289      1.0  0.59390  0.98660  0.33322  1.0000
  N   N69       1.0  0.57631  0.98725  0.33058  1.0000
  C   C290      1.0  0.56713  0.00208  0.32859  1.0000
  N   N70       1.0  0.57622  0.01697  0.33068  1.0000
  C   C291      1.0  0.01778  0.41277  0.33540  1.0000
  N   N71       1.0  0.00223  0.40413  0.33586  1.0000
  C   C292      1.0  0.98662  0.41267  0.33264  1.0000
  N   N72       1.0  0.98729  0.43026  0.32972  1.0000
  C   C293      1.0  0.00212  0.43944  0.32770  1.0000
  N   N73       1.0  0.01699  0.43032  0.33010  1.0000
  C   C294      1.0  0.98844  0.59416  0.34322  1.0000
  N   N74       1.0  0.00395  0.60277  0.33676  1.0000
  C   C295      1.0  0.01942  0.59420  0.32684  1.0000
  N   N75       1.0  0.01862  0.57661  0.32303  1.0000
  C   C296      1.0  0.00380  0.56743  0.32919  1.0000
  N   N76       1.0  0.98908  0.57660  0.33933  1.0000
  C   C297      1.0  0.31820  0.41049  0.34814  1.0000
  N   N77       1.0  0.32066  0.42790  0.33639  1.0000
  C   C298      1.0  0.30708  0.43920  0.32960  1.0000
  N   N78       1.0  0.29084  0.43248  0.33543  1.0000
  C   C299      1.0  0.28748  0.41547  0.34744  1.0000
  N   N79       1.0  0.30149  0.40496  0.35341  1.0000
  C   C300      1.0  0.68831  0.59605  0.34838  1.0000
  N   N80       1.0  0.68586  0.57865  0.33655  1.0000
  C   C301      1.0  0.69945  0.56736  0.32991  1.0000
  N   N81       1.0  0.71570  0.57408  0.33596  1.0000
  C   C302      1.0  0.71903  0.59109  0.34808  1.0000
  N   N82       1.0  0.70502  0.60159  0.35387  1.0000
  C   C303      1.0  0.59606  0.31815  0.34819  1.0000
  N   N83       1.0  0.57865  0.32060  0.33652  1.0000
  C   C304      1.0  0.56736  0.30702  0.32979  1.0000
  N   N84       1.0  0.57408  0.29077  0.33558  1.0000
  C   C305      1.0  0.59110  0.28742  0.34752  1.0000
  N   N85       1.0  0.60160  0.30144  0.35344  1.0000
  C   C306      1.0  0.41050  0.68827  0.34830  1.0000
  N   N86       1.0  0.42790  0.68581  0.33645  1.0000
  C   C307      1.0  0.43920  0.69940  0.32978  1.0000
  N   N87       1.0  0.43248  0.71565  0.33585  1.0000
  C   C308      1.0  0.41547  0.71899  0.34799  1.0000
  N   N88       1.0  0.40497  0.70498  0.35381  1.0000
  C   C309      1.0  0.68777  0.40974  0.33884  1.0000
  N   N89       1.0  0.68521  0.42719  0.32900  1.0000
  C   C310      1.0  0.69872  0.43850  0.31975  1.0000
  N   N90       1.0  0.71493  0.43168  0.32117  1.0000
  C   C311      1.0  0.71842  0.41465  0.33078  1.0000
  N   N91       1.0  0.70450  0.40411  0.33958  1.0000
  C   C312      1.0  0.31861  0.59685  0.33864  1.0000
  N   N92       1.0  0.32117  0.57940  0.32896  1.0000
  C   C313      1.0  0.30767  0.56808  0.31971  1.0000
  N   N93       1.0  0.29146  0.57490  0.32092  1.0000
  C   C314      1.0  0.28797  0.59193  0.33037  1.0000
  N   N94       1.0  0.30188  0.60249  0.33919  1.0000
  C   C315      1.0  0.40970  0.31866  0.33868  1.0000
  N   N95       1.0  0.42715  0.32123  0.32900  1.0000
  C   C316      1.0  0.43848  0.30773  0.31975  1.0000
  N   N96       1.0  0.43166  0.29152  0.32097  1.0000
  C   C317      1.0  0.41463  0.28802  0.33041  1.0000
  N   N97       1.0  0.40407  0.30193  0.33925  1.0000
  C   C318      1.0  0.59681  0.68783  0.33876  1.0000
  N   N98       1.0  0.57936  0.68528  0.32900  1.0000
  C   C319      1.0  0.56806  0.69879  0.31977  1.0000
  N   N99       1.0  0.57488  0.71501  0.32115  1.0000
  C   C320      1.0  0.59191  0.71848  0.33069  1.0000
  N   N100      1.0  0.60245  0.70456  0.33945  1.0000
  C   C321      1.0  0.16838  0.36669  0.35767  1.0000
  N   N101      1.0  0.15206  0.37341  0.35544  1.0000
  C   C322      1.0  0.13761  0.36321  0.34452  1.0000
  N   N102      1.0  0.14009  0.34577  0.33455  1.0000
  C   C323      1.0  0.15613  0.33853  0.33354  1.0000
  N   N103      1.0  0.16951  0.34944  0.34589  1.0000
  C   C324      1.0  0.83797  0.64015  0.35996  1.0000
  N   N104      1.0  0.85428  0.63341  0.35891  1.0000
  C   C325      1.0  0.86874  0.64359  0.34825  1.0000
  N   N105      1.0  0.86630  0.66101  0.33748  1.0000
  C   C326      1.0  0.85028  0.66825  0.33541  1.0000
  N   N106      1.0  0.83685  0.65738  0.34748  1.0000
  C   C327      1.0  0.63993  0.16834  0.35768  1.0000
  N   N107      1.0  0.63319  0.15202  0.35554  1.0000
  C   C328      1.0  0.64336  0.13756  0.34467  1.0000
  N   N108      1.0  0.66081  0.14001  0.33466  1.0000
  C   C329      1.0  0.66807  0.15604  0.33358  1.0000
  N   N109      1.0  0.65718  0.16944  0.34587  1.0000
  C   C330      1.0  0.36648  0.83795  0.36005  1.0000
  N   N110      1.0  0.37320  0.85427  0.35895  1.0000
  C   C331      1.0  0.36301  0.86872  0.34829  1.0000
  N   N111      1.0  0.34559  0.86626  0.33758  1.0000
  C   C332      1.0  0.33836  0.85023  0.33559  1.0000
  N   N112      1.0  0.34925  0.83681  0.34762  1.0000
  C   C333      1.0  0.83675  0.36502  0.35153  1.0000
  N   N113      1.0  0.85307  0.37154  0.34356  1.0000
  C   C334      1.0  0.86757  0.36122  0.34429  1.0000
  N   N114      1.0  0.86517  0.34372  0.35278  1.0000
  C   C335      1.0  0.84915  0.33655  0.36064  1.0000
  N   N115      1.0  0.83574  0.34769  0.35892  1.0000
  C   C336      1.0  0.16949  0.64137  0.34869  1.0000
  N   N116      1.0  0.15316  0.63486  0.33991  1.0000
  C   C337      1.0  0.13867  0.64519  0.34035  1.0000
  N   N117      1.0  0.14106  0.66268  0.34933  1.0000
  C   C338      1.0  0.15707  0.66984  0.35797  1.0000
  N   N118      1.0  0.17047  0.65869  0.35651  1.0000
  C   C339      1.0  0.36530  0.16949  0.34885  1.0000
  N   N119      1.0  0.37181  0.15317  0.34005  1.0000
  C   C340      1.0  0.36147  0.13868  0.34044  1.0000
  N   N120      1.0  0.34398  0.14109  0.34938  1.0000
  C   C341      1.0  0.33683  0.15710  0.35805  1.0000
  N   N121      1.0  0.34799  0.17049  0.35663  1.0000
  C   C342      1.0  0.64165  0.83677  0.35125  1.0000
  N   N122      1.0  0.63511  0.85309  0.34333  1.0000
  C   C343      1.0  0.64543  0.86760  0.34414  1.0000
  N   N123      1.0  0.66292  0.86522  0.35267  1.0000
  C   C344      1.0  0.67010  0.84920  0.36048  1.0000
  N   N124      1.0  0.65898  0.83579  0.35869  1.0000
  C   C345      1.0  0.10641  0.10927  0.37197  1.0000
  C   C346      1.0  0.13261  0.13441  0.38244  1.0000
  C   C347      1.0  0.13686  0.11691  0.40057  1.0000
  C   C348      1.0  0.12351  0.10453  0.39521  1.0000
  H   H85       1.0  0.12644  0.09180  0.40625  1.0000
  C   C349      1.0  0.14561  0.14713  0.38238  1.0000
  C   C350      1.0  0.17126  0.17286  0.37473  1.0000
  C   C351      1.0  0.17565  0.15560  0.39651  1.0000
  C   C352      1.0  0.16301  0.14250  0.40067  1.0000
  C   C353      1.0  0.16714  0.12512  0.42077  1.0000
  C   C354      1.0  0.15414  0.11239  0.42064  1.0000
  H   H86       1.0  0.18828  0.15245  0.40912  1.0000
  O   O45       1.0  0.18361  0.12029  0.43881  1.0000
  O   O46       1.0  0.15861  0.09581  0.43828  1.0000
  C   C355      1.0  0.90058  0.89761  0.37238  1.0000
  C   C356      1.0  0.87439  0.87246  0.38297  1.0000
  C   C357      1.0  0.87015  0.88996  0.40123  1.0000
  C   C358      1.0  0.88349  0.90234  0.39582  1.0000
  H   H87       1.0  0.88056  0.91507  0.40685  1.0000
  C   C359      1.0  0.86139  0.85975  0.38290  1.0000
  C   C360      1.0  0.83576  0.83401  0.37519  1.0000
  C   C361      1.0  0.83136  0.85126  0.39714  1.0000
  C   C362      1.0  0.84400  0.86437  0.40134  1.0000
  C   C363      1.0  0.83987  0.88174  0.42158  1.0000
  C   C364      1.0  0.85287  0.89447  0.42144  1.0000
  H   H88       1.0  0.81874  0.85441  0.40985  1.0000
  O   O47       1.0  0.82340  0.88656  0.43973  1.0000
  O   O48       1.0  0.84840  0.91105  0.43920  1.0000
  C   C365      1.0  0.89760  0.10631  0.37197  1.0000
  C   C366      1.0  0.87239  0.13244  0.38267  1.0000
  C   C367      1.0  0.88989  0.13674  0.40047  1.0000
  C   C368      1.0  0.90231  0.12343  0.39500  1.0000
  H   H89       1.0  0.91504  0.12640  0.40580  1.0000
  C   C369      1.0  0.85964  0.14540  0.38271  1.0000
  C   C370      1.0  0.83383  0.17097  0.37521  1.0000
  C   C371      1.0  0.85109  0.17542  0.39673  1.0000
  C   C372      1.0  0.86423  0.16281  0.40079  1.0000
  C   C373      1.0  0.88161  0.16701  0.42056  1.0000
  C   C374      1.0  0.89437  0.15404  0.42032  1.0000
  H   H90       1.0  0.85422  0.18805  0.40915  1.0000
  O   O49       1.0  0.88640  0.18350  0.43838  1.0000
  O   O50       1.0  0.91096  0.15857  0.43764  1.0000
  C   C375      1.0  0.10925  0.90047  0.37215  1.0000
  C   C376      1.0  0.13434  0.87422  0.38263  1.0000
  C   C377      1.0  0.11683  0.87002  0.40090  1.0000
  C   C378      1.0  0.10448  0.88339  0.39556  1.0000
  H   H91       1.0  0.09174  0.88049  0.40661  1.0000
  C   C379      1.0  0.14702  0.86118  0.38252  1.0000
  C   C380      1.0  0.17269  0.83548  0.37476  1.0000
  C   C381      1.0  0.15542  0.83113  0.39667  1.0000
  C   C382      1.0  0.14235  0.84380  0.40090  1.0000
  C   C383      1.0  0.12497  0.83971  0.42114  1.0000
  C   C384      1.0  0.11228  0.85275  0.42107  1.0000
  H   H92       1.0  0.15225  0.81851  0.40935  1.0000
  O   O51       1.0  0.12011  0.82326  0.43925  1.0000
  O   O52       1.0  0.09568  0.84832  0.43882  1.0000
  C   C385      1.0  0.10163  0.04070  0.36176  1.0000
  N   N125      1.0  0.10279  0.02326  0.35353  1.0000
  C   C386      1.0  0.10349  0.96945  0.35932  1.0000
  H   H93       1.0  0.10775  0.04658  0.41437  1.0000
  N   N126      1.0  0.10373  0.98694  0.35227  1.0000
  H   H94       1.0  0.10972  0.96378  0.41225  1.0000
  C   C387      1.0  0.90526  0.96615  0.36134  1.0000
  N   N127      1.0  0.90414  0.98359  0.35323  1.0000
  C   C388      1.0  0.90348  0.03738  0.35935  1.0000
  H   H95       1.0  0.89921  0.96027  0.41421  1.0000
  N   N128      1.0  0.90322  0.01990  0.35219  1.0000
  H   H96       1.0  0.89726  0.04306  0.41228  1.0000
  C   C389      1.0  0.96620  0.10159  0.36164  1.0000
  N   N129      1.0  0.98363  0.10274  0.35348  1.0000
  C   C390      1.0  0.03744  0.10344  0.35940  1.0000
  H   H97       1.0  0.96031  0.10771  0.41426  1.0000
  N   N130      1.0  0.01995  0.10368  0.35233  1.0000
  H   H98       1.0  0.04310  0.10967  0.41235  1.0000
  C   C391      1.0  0.04074  0.90524  0.36122  1.0000
  N   N131      1.0  0.02330  0.90411  0.35309  1.0000
  C   C392      1.0  0.96950  0.90344  0.35916  1.0000
  H   H99       1.0  0.04662  0.89916  0.41402  1.0000
  N   N132      1.0  0.98699  0.90318  0.35202  1.0000
  H   H100      1.0  0.96383  0.89720  0.41204  1.0000
  C   C393      1.0  0.14889  0.30719  0.34907  1.0000
  N   N133      1.0  0.15447  0.29050  0.35056  1.0000
  C   C394      1.0  0.16973  0.23863  0.36802  1.0000
  H   H101      1.0  0.13659  0.30984  0.37010  1.0000
  N   N134      1.0  0.16517  0.25550  0.36052  1.0000
  H   H102      1.0  0.16051  0.23007  0.38906  1.0000
  C   C395      1.0  0.85768  0.69954  0.35024  1.0000
  N   N135      1.0  0.85219  0.71626  0.35138  1.0000
  C   C396      1.0  0.83719  0.76818  0.36819  1.0000
  H   H103      1.0  0.86992  0.69683  0.37191  1.0000
  N   N136      1.0  0.84168  0.75129  0.36079  1.0000
  H   H104      1.0  0.84643  0.77670  0.38949  1.0000
  C   C397      1.0  0.69939  0.14872  0.34909  1.0000
  N   N137      1.0  0.71609  0.15426  0.35054  1.0000
  C   C398      1.0  0.76799  0.16939  0.36801  1.0000
  H   H105      1.0  0.69670  0.13644  0.37018  1.0000
  N   N138      1.0  0.75112  0.16487  0.36046  1.0000
  H   H106      1.0  0.77653  0.16016  0.38909  1.0000
  C   C399      1.0  0.30704  0.85755  0.35044  1.0000
  N   N139      1.0  0.29034  0.85201  0.35161  1.0000
  C   C400      1.0  0.23845  0.83688  0.36842  1.0000
  H   H107      1.0  0.30972  0.86980  0.37211  1.0000
  N   N140      1.0  0.25533  0.84141  0.36105  1.0000
  H   H108      1.0  0.22992  0.84610  0.38969  1.0000
  C   C401      1.0  0.84489  0.31865  0.36961  1.0000
  C   C402      1.0  0.83426  0.28352  0.37138  1.0000
  C   C403      1.0  0.82249  0.29648  0.39967  1.0000
  C   C404      1.0  0.82817  0.31376  0.39951  1.0000
  H   H109      1.0  0.81965  0.32304  0.42029  1.0000
  C   C405      1.0  0.82874  0.26608  0.36903  1.0000
  C   C406      1.0  0.81805  0.23110  0.36189  1.0000
  C   C407      1.0  0.80637  0.24417  0.38830  1.0000
  C   C408      1.0  0.81150  0.26167  0.39327  1.0000
  C   C409      1.0  0.79997  0.27472  0.42159  1.0000
  C   C410      1.0  0.80546  0.29202  0.42526  1.0000
  H   H110      1.0  0.79404  0.24084  0.40634  1.0000
  O   O53       1.0  0.78349  0.27098  0.44550  1.0000
  O   O54       1.0  0.79395  0.30419  0.45185  1.0000
  C   C411      1.0  0.16134  0.68774  0.36736  1.0000
  C   C412      1.0  0.17200  0.72287  0.36991  1.0000
  C   C413      1.0  0.18372  0.70989  0.39841  1.0000
  C   C414      1.0  0.17802  0.69261  0.39787  1.0000
  H   H111      1.0  0.18652  0.68331  0.41873  1.0000
  C   C415      1.0  0.17754  0.74030  0.36789  1.0000
  C   C416      1.0  0.18829  0.77527  0.36124  1.0000
  C   C417      1.0  0.19992  0.76218  0.38793  1.0000
  C   C418      1.0  0.19476  0.74469  0.39263  1.0000
  C   C419      1.0  0.20625  0.73161  0.42116  1.0000
  C   C420      1.0  0.20073  0.71432  0.42452  1.0000
  H   H112      1.0  0.21225  0.76549  0.40625  1.0000
  O   O55       1.0  0.22270  0.73533  0.44556  1.0000
  O   O56       1.0  0.21220  0.70212  0.45132  1.0000
  C   C421      1.0  0.31893  0.16139  0.36740  1.0000
  C   C422      1.0  0.28381  0.17213  0.36973  1.0000
  C   C423      1.0  0.29681  0.18383  0.39827  1.0000
  C   C424      1.0  0.31408  0.17809  0.39782  1.0000
  H   H113      1.0  0.32340  0.18657  0.41876  1.0000
  C   C425      1.0  0.26639  0.17770  0.36767  1.0000
  C   C426      1.0  0.23143  0.18851  0.36101  1.0000
  C   C427      1.0  0.24454  0.20012  0.38764  1.0000
  C   C428      1.0  0.26203  0.19493  0.39239  1.0000
  C   C429      1.0  0.27513  0.20639  0.42093  1.0000
  C   C430      1.0  0.29241  0.20085  0.42435  1.0000
  H   H114      1.0  0.24125  0.21245  0.40600  1.0000
  O   O57       1.0  0.27144  0.22286  0.44531  1.0000
  O   O58       1.0  0.30462  0.21230  0.45117  1.0000
  C   C431      1.0  0.68800  0.84498  0.36953  1.0000
  C   C432      1.0  0.72315  0.83441  0.37154  1.0000
  C   C433      1.0  0.71021  0.82263  0.39983  1.0000
  C   C434      1.0  0.69292  0.82827  0.39956  1.0000
  H   H115      1.0  0.68364  0.81973  0.42027  1.0000
  C   C435      1.0  0.74060  0.82894  0.36926  1.0000
  C   C436      1.0  0.77559  0.81830  0.36211  1.0000
  C   C437      1.0  0.76254  0.80660  0.38860  1.0000
  C   C438      1.0  0.74504  0.81170  0.39355  1.0000
  C   C439      1.0  0.73200  0.80015  0.42186  1.0000
  C   C440      1.0  0.71470  0.80560  0.42547  1.0000
  H   H116      1.0  0.76589  0.79427  0.40659  1.0000
  O   O59       1.0  0.73578  0.78368  0.44582  1.0000
  O   O60       1.0  0.70254  0.79407  0.45205  1.0000
  C   C441      1.0  0.38695  0.03957  0.34112  1.0000
  N   N141      1.0  0.38051  0.05602  0.34147  1.0000
  C   C442      1.0  0.35876  0.10640  0.34936  1.0000
  H   H117      1.0  0.37877  0.02961  0.35621  1.0000
  N   N142      1.0  0.36605  0.09038  0.34562  1.0000
  H   H118      1.0  0.34592  0.10718  0.36487  1.0000
  C   C443      1.0  0.61955  0.96659  0.34769  1.0000
  N   N143      1.0  0.62607  0.95017  0.34774  1.0000
  C   C444      1.0  0.64807  0.89988  0.35329  1.0000
  H   H119      1.0  0.62775  0.97663  0.36094  1.0000
  N   N144      1.0  0.64071  0.91587  0.35056  1.0000
  H   H120      1.0  0.66098  0.89914  0.36736  1.0000
  C   C445      1.0  0.96659  0.38704  0.34721  1.0000
  N   N145      1.0  0.95017  0.38053  0.34737  1.0000
  C   C446      1.0  0.89985  0.35855  0.35313  1.0000
  H   H121      1.0  0.97663  0.37882  0.36015  1.0000
  N   N146      1.0  0.91585  0.36590  0.35036  1.0000
  H   H122      1.0  0.89911  0.34563  0.36702  1.0000
  C   C447      1.0  0.03957  0.61971  0.34099  1.0000
  N   N147      1.0  0.05602  0.62614  0.34138  1.0000
  C   C448      1.0  0.10639  0.64789  0.34934  1.0000
  H   H123      1.0  0.02961  0.62788  0.35615  1.0000
  N   N148      1.0  0.09037  0.64061  0.34558  1.0000
  H   H124      1.0  0.10717  0.66073  0.36485  1.0000
  C   C449      1.0  0.60138  0.03476  0.34082  1.0000
  C   C450      1.0  0.61542  0.06904  0.34485  1.0000
  C   C451      1.0  0.59757  0.06646  0.36242  1.0000
  C   C452      1.0  0.59097  0.04943  0.36023  1.0000
  H   H125      1.0  0.57810  0.04775  0.37336  1.0000
  C   C453      1.0  0.62227  0.08612  0.34536  1.0000
  C   C454      1.0  0.63623  0.12038  0.34484  1.0000
  C   C455      1.0  0.61851  0.11737  0.36262  1.0000
  C   C456      1.0  0.61133  0.10051  0.36336  1.0000
  C   C457      1.0  0.59363  0.09767  0.38138  1.0000
  C   C458      1.0  0.58681  0.08082  0.38093  1.0000
  H   H126      1.0  0.61063  0.12770  0.37567  1.0000
  O   O61       1.0  0.58282  0.11102  0.39916  1.0000
  O   O62       1.0  0.56973  0.07878  0.39806  1.0000
  C   C459      1.0  0.40475  0.97153  0.35162  1.0000
  C   C460      1.0  0.39075  0.93726  0.35420  1.0000
  C   C461      1.0  0.40844  0.93990  0.37582  1.0000
  C   C462      1.0  0.41500  0.95695  0.37460  1.0000
  H   H127      1.0  0.42777  0.95869  0.39020  1.0000
  C   C463      1.0  0.38395  0.92017  0.35335  1.0000
  C   C464      1.0  0.37011  0.88590  0.34978  1.0000
  C   C465      1.0  0.38767  0.88894  0.37124  1.0000
  C   C466      1.0  0.39479  0.90582  0.37365  1.0000
  C   C467      1.0  0.41233  0.90870  0.39547  1.0000
  C   C468      1.0  0.41908  0.92558  0.39665  1.0000
  H   H128      1.0  0.39546  0.87863  0.38600  1.0000
  O   O63       1.0  0.42304  0.89538  0.41529  1.0000
  O   O64       1.0  0.43602  0.92768  0.41719  1.0000
  C   C469      1.0  0.03478  0.40516  0.34050  1.0000
  C   C470      1.0  0.06907  0.39113  0.34453  1.0000
  C   C471      1.0  0.06649  0.40899  0.36188  1.0000
  C   C472      1.0  0.04945  0.41558  0.35970  1.0000
  H   H129      1.0  0.04777  0.42846  0.37268  1.0000
  C   C473      1.0  0.08615  0.38428  0.34505  1.0000
  C   C474      1.0  0.12042  0.37034  0.34462  1.0000
  C   C475      1.0  0.11740  0.38806  0.36216  1.0000
  C   C476      1.0  0.10054  0.39523  0.36286  1.0000
  C   C477      1.0  0.09770  0.41295  0.38064  1.0000
  C   C478      1.0  0.08085  0.41976  0.38016  1.0000
  H   H130      1.0  0.12773  0.39596  0.37507  1.0000
  O   O65       1.0  0.11105  0.42378  0.39820  1.0000
  O   O66       1.0  0.07880  0.43685  0.39706  1.0000
  C   C479      1.0  0.97154  0.60188  0.35112  1.0000
  C   C480      1.0  0.93728  0.61586  0.35402  1.0000
  C   C481      1.0  0.93993  0.59819  0.37577  1.0000
  C   C482      1.0  0.95698  0.59162  0.37438  1.0000
  H   H131      1.0  0.95873  0.57887  0.39005  1.0000
  C   C483      1.0  0.92019  0.62266  0.35325  1.0000
  C   C484      1.0  0.88592  0.63650  0.34975  1.0000
  C   C485      1.0  0.88897  0.61894  0.37139  1.0000
  C   C486      1.0  0.90584  0.61183  0.37378  1.0000
  C   C487      1.0  0.90874  0.59430  0.39577  1.0000
  C   C488      1.0  0.92562  0.58755  0.39686  1.0000
  H   H132      1.0  0.87866  0.61116  0.38630  1.0000
  O   O67       1.0  0.89543  0.58359  0.41582  1.0000
  O   O68       1.0  0.92773  0.57062  0.41755  1.0000
  C   C489      1.0  0.46737  0.99162  0.37613  1.0000
  N   N149      1.0  0.48490  0.99183  0.37234  1.0000
  C   C490      1.0  0.53875  0.99040  0.37418  1.0000
  H   H133      1.0  0.46153  0.98294  0.41811  1.0000
  N   N150      1.0  0.52123  0.99118  0.37119  1.0000
  H   H134      1.0  0.54442  0.98154  0.41581  1.0000
  C   C491      1.0  0.98996  0.46785  0.36969  1.0000
  N   N151      1.0  0.99077  0.48537  0.36693  1.0000
  C   C492      1.0  0.99117  0.53923  0.37191  1.0000
  H   H135      1.0  0.98069  0.46220  0.40886  1.0000
  N   N152      1.0  0.99142  0.52171  0.36822  1.0000
  H   H136      1.0  0.98206  0.54506  0.41138  1.0000
  C   C493      1.0  0.18455  0.37544  0.37011  1.0000
  C   C494      1.0  0.21864  0.38951  0.37077  1.0000
  C   C495      1.0  0.21568  0.37291  0.40847  1.0000
  C   C496      1.0  0.19866  0.36636  0.40855  1.0000
  H   H137      1.0  0.19660  0.35430  0.43496  1.0000
  C   C497      1.0  0.23579  0.39605  0.36676  1.0000
  C   C498      1.0  0.27019  0.40902  0.35421  1.0000
  C   C499      1.0  0.26683  0.39255  0.39151  1.0000
  C   C500      1.0  0.24985  0.38593  0.39905  1.0000
  C   C501      1.0  0.24662  0.36951  0.43705  1.0000
  C   C502      1.0  0.22967  0.36308  0.44209  1.0000
  H   H138      1.0  0.27697  0.38529  0.41467  1.0000
  O   O69       1.0  0.25969  0.35954  0.46855  1.0000
  O   O70       1.0  0.22721  0.34713  0.47749  1.0000
  C   C503      1.0  0.82180  0.63140  0.37208  1.0000
  C   C504      1.0  0.78777  0.61724  0.37244  1.0000
  C   C505      1.0  0.79065  0.63390  0.40971  1.0000
  C   C506      1.0  0.80765  0.64050  0.40998  1.0000
  H   H139      1.0  0.80966  0.65259  0.43597  1.0000
  C   C507      1.0  0.77065  0.61065  0.36819  1.0000
  C   C508      1.0  0.73630  0.59759  0.35513  1.0000
  C   C509      1.0  0.73958  0.61409  0.39214  1.0000
  C   C510      1.0  0.75653  0.62077  0.39988  1.0000
  C   C511      1.0  0.75968  0.63724  0.43752  1.0000
  C   C512      1.0  0.77661  0.64372  0.44274  1.0000
  H   H140      1.0  0.72941  0.62135  0.41486  1.0000
  O   O71       1.0  0.74656  0.64721  0.46844  1.0000
  O   O72       1.0  0.77899  0.65972  0.47775  1.0000
  C   C513      1.0  0.63119  0.18451  0.37003  1.0000
  C   C514      1.0  0.61712  0.21860  0.37072  1.0000
  C   C515      1.0  0.63375  0.21565  0.40812  1.0000
  C   C516      1.0  0.64031  0.19864  0.40820  1.0000
  H   H141      1.0  0.65237  0.19659  0.43442  1.0000
  C   C517      1.0  0.61056  0.23575  0.36674  1.0000
  C   C518      1.0  0.59757  0.27014  0.35426  1.0000
  C   C519      1.0  0.61406  0.26680  0.39129  1.0000
  C   C520      1.0  0.62070  0.24982  0.39878  1.0000
  C   C521      1.0  0.63715  0.24661  0.43650  1.0000
  C   C522      1.0  0.64359  0.22965  0.44150  1.0000
  H   H142      1.0  0.62133  0.27694  0.41427  1.0000
  O   O73       1.0  0.64713  0.25968  0.46776  1.0000
  O   O74       1.0  0.65956  0.22722  0.47663  1.0000
  C   C523      1.0  0.37524  0.82179  0.37223  1.0000
  C   C524      1.0  0.38938  0.78775  0.37252  1.0000
  C   C525      1.0  0.37275  0.79065  0.41003  1.0000
  C   C526      1.0  0.36616  0.80765  0.41035  1.0000
  H   H143      1.0  0.35408  0.80966  0.43649  1.0000
  C   C527      1.0  0.39596  0.77062  0.36822  1.0000
  C   C528      1.0  0.40899  0.73626  0.35508  1.0000
  C   C529      1.0  0.39251  0.73955  0.39230  1.0000
  C   C530      1.0  0.38584  0.75652  0.40010  1.0000
  C   C531      1.0  0.36940  0.75968  0.43798  1.0000
  C   C532      1.0  0.36294  0.77662  0.44325  1.0000
  H   H144      1.0  0.38526  0.72939  0.41517  1.0000
  O   O75       1.0  0.35944  0.74657  0.46908  1.0000
  O   O76       1.0  0.34696  0.77901  0.47849  1.0000
  C   C533      1.0  0.80560  0.36599  0.38802  1.0000
  N   N153      1.0  0.78986  0.37344  0.38273  1.0000
  C   C534      1.0  0.73990  0.39199  0.36752  1.0000
  H   H145      1.0  0.80612  0.35406  0.41735  1.0000
  N   N154      1.0  0.75651  0.38644  0.37094  1.0000
  H   H146      1.0  0.73050  0.38405  0.39263  1.0000
  C   C535      1.0  0.20062  0.64046  0.38581  1.0000
  N   N155      1.0  0.21638  0.63305  0.38085  1.0000
  C   C536      1.0  0.26642  0.61458  0.36659  1.0000
  H   H147      1.0  0.20007  0.65239  0.41502  1.0000
  N   N156      1.0  0.24980  0.62011  0.36969  1.0000
  H   H148      1.0  0.27579  0.62254  0.39174  1.0000
  C   C537      1.0  0.36624  0.20061  0.38630  1.0000
  N   N157      1.0  0.37363  0.21638  0.38132  1.0000
  C   C538      1.0  0.39203  0.26644  0.36690  1.0000
  H   H149      1.0  0.35433  0.20004  0.41579  1.0000
  N   N158      1.0  0.38652  0.24981  0.37004  1.0000
  H   H150      1.0  0.38407  0.27580  0.39224  1.0000
  C   C539      1.0  0.64070  0.80561  0.38738  1.0000
  N   N159      1.0  0.63324  0.78988  0.38211  1.0000
  C   C540      1.0  0.61462  0.73994  0.36710  1.0000
  H   H151      1.0  0.65266  0.80611  0.41641  1.0000
  N   N160      1.0  0.62020  0.75654  0.37046  1.0000
  H   H152      1.0  0.62257  0.73053  0.39199  1.0000
  C   C541      1.0  0.32306  0.46729  0.34711  1.0000
  N   N161      1.0  0.32296  0.48491  0.34219  1.0000
  C   C542      1.0  0.32340  0.53994  0.34172  1.0000
  H   H153      1.0  0.33346  0.46132  0.37596  1.0000
  N   N162      1.0  0.32313  0.52229  0.33950  1.0000
  H   H154      1.0  0.33382  0.54596  0.37005  1.0000
  C   C543      1.0  0.68345  0.53929  0.34711  1.0000
  N   N163      1.0  0.68354  0.52167  0.34219  1.0000
  C   C544      1.0  0.68302  0.46666  0.34165  1.0000
  H   H155      1.0  0.67306  0.54526  0.37607  1.0000
  N   N164      1.0  0.68333  0.48431  0.33946  1.0000
  H   H156      1.0  0.67260  0.46065  0.36995  1.0000
  C   C545      1.0  0.53929  0.32302  0.34723  1.0000
  N   N165      1.0  0.52167  0.32294  0.34226  1.0000
  C   C546      1.0  0.46664  0.32344  0.34176  1.0000
  H   H157      1.0  0.54526  0.33342  0.37602  1.0000
  N   N166      1.0  0.48428  0.32315  0.33953  1.0000
  H   H158      1.0  0.46062  0.33387  0.36999  1.0000
  C   C547      1.0  0.46727  0.68341  0.34697  1.0000
  N   N167      1.0  0.48490  0.68353  0.34209  1.0000
  C   C548      1.0  0.53991  0.68307  0.34165  1.0000
  H   H159      1.0  0.46132  0.67302  0.37591  1.0000
  N   N168      1.0  0.52227  0.68335  0.33941  1.0000
  H   H160      1.0  0.54593  0.67264  0.36989  1.0000
  C   C549      1.0  0.39714  0.33233  0.34625  1.0000
  C   C550      1.0  0.37126  0.35881  0.35295  1.0000
  C   C551      1.0  0.36693  0.34152  0.37646  1.0000
  C   C552      1.0  0.37992  0.32868  0.37269  1.0000
  H   H161      1.0  0.37666  0.31627  0.38951  1.0000
  C   C553      1.0  0.35826  0.37185  0.35426  1.0000
  C   C554      1.0  0.33186  0.39786  0.35293  1.0000
  C   C555      1.0  0.32826  0.38055  0.37823  1.0000
  C   C556      1.0  0.34106  0.36750  0.37923  1.0000
  C   C557      1.0  0.33700  0.35030  0.40340  1.0000
  C   C558      1.0  0.34981  0.33743  0.40198  1.0000
  H   H162      1.0  0.31592  0.37726  0.39606  1.0000
  O   O77       1.0  0.32073  0.34572  0.42748  1.0000
  O   O78       1.0  0.34525  0.32109  0.42474  1.0000
  C   C559      1.0  0.60937  0.67417  0.34636  1.0000
  C   C560      1.0  0.63526  0.64771  0.35310  1.0000
  C   C561      1.0  0.63958  0.66500  0.37671  1.0000
  C   C562      1.0  0.62658  0.67783  0.37293  1.0000
  H   H163      1.0  0.62983  0.69023  0.38981  1.0000
  C   C563      1.0  0.64826  0.63467  0.35443  1.0000
  C   C564      1.0  0.67466  0.60868  0.35310  1.0000
  C   C565      1.0  0.67825  0.62598  0.37850  1.0000
  C   C566      1.0  0.66545  0.63903  0.37949  1.0000
  C   C567      1.0  0.66951  0.65623  0.40373  1.0000
  C   C568      1.0  0.65670  0.66909  0.40231  1.0000
  H   H164      1.0  0.69059  0.62927  0.39642  1.0000
  O   O79       1.0  0.68577  0.66081  0.42786  1.0000
  O   O80       1.0  0.66124  0.68543  0.42512  1.0000
  C   C569      1.0  0.67411  0.39717  0.34644  1.0000
  C   C570      1.0  0.64767  0.37126  0.35309  1.0000
  C   C571      1.0  0.66496  0.36695  0.37670  1.0000
  C   C572      1.0  0.67778  0.37996  0.37297  1.0000
  H   H165      1.0  0.69019  0.37672  0.38987  1.0000
  C   C573      1.0  0.63465  0.35824  0.35438  1.0000
  C   C574      1.0  0.60868  0.33181  0.35298  1.0000
  C   C575      1.0  0.62598  0.32824  0.37836  1.0000
  C   C576      1.0  0.63902  0.34105  0.37940  1.0000
  C   C577      1.0  0.65622  0.33701  0.40365  1.0000
  C   C578      1.0  0.66907  0.34984  0.40228  1.0000
  H   H166      1.0  0.62928  0.31590  0.39622  1.0000
  O   O81       1.0  0.66082  0.32075  0.42777  1.0000
  O   O82       1.0  0.68541  0.34530  0.42511  1.0000
  C   C579      1.0  0.33229  0.60940  0.34620  1.0000
  C   C580      1.0  0.35878  0.63526  0.35297  1.0000
  C   C581      1.0  0.34149  0.63961  0.37651  1.0000
  C   C582      1.0  0.32864  0.62662  0.37271  1.0000
  H   H167      1.0  0.31624  0.62989  0.38953  1.0000
  C   C583      1.0  0.37183  0.64825  0.35432  1.0000
  C   C584      1.0  0.39786  0.67462  0.35307  1.0000
  C   C585      1.0  0.38056  0.67823  0.37840  1.0000
  C   C586      1.0  0.36749  0.66545  0.37936  1.0000
  C   C587      1.0  0.35029  0.66952  0.40355  1.0000
  C   C588      1.0  0.33741  0.65673  0.40209  1.0000
  H   H168      1.0  0.37728  0.69057  0.39630  1.0000
  O   O83       1.0  0.34573  0.68579  0.42767  1.0000
  O   O84       1.0  0.32108  0.66129  0.42486  1.0000
