data_image0
_chemical_formula_structural       C3H2C2H2C2HC3NH2C4H3C3HCH2C3H2C2H2C2HC3NH2C4H3C3HCH2C4H2C3HC3HC2H3C2H2C5NH2C3NH2CHC4HCH2CHC4HCH3C4H2C3HC3HC2H3C2H2C5NH2C3NH2CHC4HCH2CHC4HCH3C2H6CNH2C3NH3CHC2H2C2H6CNH2C3NH3CHC2H2C3H2C2HC2HC3NH2C4H3C3H2C3H2C2HC2HC3NH2C4H3C3H2C3HC3H3C3HC3H3C3HC3H3C2H2C2H2C2H2C2H2C2H2C2H2C3NC3NH4C3NC3NH4C3NC3NH4C4HCH3C4HCH3C4HCH3C4HCH3C4HCH3C4HCH3C3HC3H3C3HC3H3C3HC3H3C2H2C2H2C2H2C2H2C2H2C2H2C3NC3NH4C3NC3NH4C3NC3NH4C4HCH3C4HCH3C4HCH3C4HCH3C4HCH3C4HCH3
_chemical_formula_sum              "C312 H240 N24"
_cell_length_a       46.4659
_cell_length_b       46.4659
_cell_length_c       14.7716
_cell_angle_alpha    90
_cell_angle_beta     90
_cell_angle_gamma    120

_space_group_name_H-M_alt    "P 1"
_space_group_IT_number       1

loop_
  _space_group_symop_operation_xyz
  'x, y, z'

loop_
  _atom_site_type_symbol
  _atom_site_label
  _atom_site_symmetry_multiplicity
  _atom_site_fract_x
  _atom_site_fract_y
  _atom_site_fract_z
  _atom_site_occupancy
  C   C1        1.0  0.02924  0.26656  0.34825  1.0000
  C   C2        1.0  0.08402  0.32036  0.34516  1.0000
  C   C3        1.0  0.04876  0.30212  0.34700  1.0000
  H   H1        1.0  0.03743  0.31599  0.34266  1.0000
  H   H2        1.0  0.14855  0.34220  0.33457  1.0000
  C   C4        1.0  0.11230  0.24534  0.26567  1.0000
  C   C5        1.0  0.14254  0.24549  0.25359  1.0000
  H   H3        1.0  0.10081  0.24743  0.20889  1.0000
  H   H4        1.0  0.15145  0.24782  0.18902  1.0000
  C   C6        1.0  0.15196  0.40342  0.28389  1.0000
  C   C7        1.0  0.12123  0.37384  0.27234  1.0000
  H   H5        1.0  0.11633  0.36246  0.21034  1.0000
  C   C8        1.0  0.04854  0.25028  0.35075  1.0000
  C   C9        1.0  0.08377  0.26704  0.35509  1.0000
  C   C10       1.0  0.10161  0.30250  0.35062  1.0000
  N   N1        1.0  0.13553  0.31930  0.35163  1.0000
  H   H6        1.0  0.14833  0.30907  0.36804  1.0000
  H   H7        1.0  0.03707  0.22504  0.35114  1.0000
  C   C11       1.0  0.15118  0.25005  0.41503  1.0000
  C   C12       1.0  0.12037  0.24915  0.42844  1.0000
  C   C13       1.0  0.10126  0.24895  0.35231  1.0000
  C   C14       1.0  0.11059  0.25297  0.52172  1.0000
  H   H8        1.0  0.12628  0.25102  0.57357  1.0000
  H   H9        1.0  0.08502  0.23349  0.53463  1.0000
  H   H10       1.0  0.11225  0.27712  0.52930  1.0000
  C   C15       1.0  0.10152  0.35588  0.34761  1.0000
  C   C16       1.0  0.11171  0.37154  0.43331  1.0000
  C   C17       1.0  0.14215  0.40188  0.44586  1.0000
  H   H11       1.0  0.09884  0.35851  0.48943  1.0000
  C   C18       1.0  0.15252  0.41567  0.53874  1.0000
  H   H12       1.0  0.13308  0.40218  0.58892  1.0000
  H   H13       1.0  0.15834  0.44152  0.53939  1.0000
  C   C19       1.0  0.02924  0.76656  0.34825  1.0000
  C   C20       1.0  0.08402  0.82036  0.34516  1.0000
  C   C21       1.0  0.04876  0.80211  0.34700  1.0000
  H   H14       1.0  0.03743  0.81599  0.34266  1.0000
  H   H15       1.0  0.14855  0.84220  0.33457  1.0000
  C   C22       1.0  0.11230  0.74534  0.26567  1.0000
  C   C23       1.0  0.14254  0.74549  0.25359  1.0000
  H   H16       1.0  0.10081  0.74743  0.20889  1.0000
  H   H17       1.0  0.15145  0.74782  0.18902  1.0000
  C   C24       1.0  0.15196  0.90342  0.28389  1.0000
  C   C25       1.0  0.12123  0.87384  0.27234  1.0000
  H   H18       1.0  0.11633  0.86246  0.21034  1.0000
  C   C26       1.0  0.04853  0.75028  0.35075  1.0000
  C   C27       1.0  0.08377  0.76704  0.35509  1.0000
  C   C28       1.0  0.10160  0.80250  0.35062  1.0000
  N   N2        1.0  0.13553  0.81930  0.35163  1.0000
  H   H19       1.0  0.14833  0.80907  0.36804  1.0000
  H   H20       1.0  0.03707  0.72503  0.35114  1.0000
  C   C29       1.0  0.15118  0.75005  0.41503  1.0000
  C   C30       1.0  0.12037  0.74915  0.42844  1.0000
  C   C31       1.0  0.10126  0.74895  0.35231  1.0000
  C   C32       1.0  0.11059  0.75297  0.52172  1.0000
  H   H21       1.0  0.12628  0.75102  0.57357  1.0000
  H   H22       1.0  0.08502  0.73349  0.53463  1.0000
  H   H23       1.0  0.11225  0.77712  0.52930  1.0000
  C   C33       1.0  0.10152  0.85588  0.34761  1.0000
  C   C34       1.0  0.11171  0.87154  0.43331  1.0000
  C   C35       1.0  0.14215  0.90188  0.44586  1.0000
  H   H24       1.0  0.09884  0.85850  0.48943  1.0000
  C   C36       1.0  0.15252  0.91567  0.53874  1.0000
  H   H25       1.0  0.13307  0.90218  0.58892  1.0000
  H   H26       1.0  0.15834  0.94152  0.53939  1.0000
  C   C37       1.0  0.27030  0.24854  0.35495  1.0000
  C   C38       1.0  0.25240  0.26657  0.34326  1.0000
  C   C39       1.0  0.19926  0.26745  0.31574  1.0000
  C   C40       1.0  0.21698  0.25073  0.33697  1.0000
  H   H27       1.0  0.20283  0.22574  0.34633  1.0000
  H   H28       1.0  0.18012  0.30793  0.24924  1.0000
  C   C41       1.0  0.27034  0.02556  0.34809  1.0000
  C   C42       1.0  0.25422  0.04504  0.34690  1.0000
  C   C43       1.0  0.27107  0.08028  0.34149  1.0000
  H   H29       1.0  0.22898  0.03367  0.34826  1.0000
  C   C44       1.0  0.25240  0.48943  0.35392  1.0000
  C   C45       1.0  0.25233  0.43536  0.37176  1.0000
  C   C46       1.0  0.26837  0.46986  0.35160  1.0000
  H   H30       1.0  0.21130  0.37213  0.42079  1.0000
  C   C47       1.0  0.27373  0.37691  0.26489  1.0000
  C   C48       1.0  0.27325  0.40686  0.27650  1.0000
  H   H31       1.0  0.27078  0.36769  0.20044  1.0000
  H   H32       1.0  0.26964  0.41750  0.22013  1.0000
  H   H33       1.0  0.16751  0.41226  0.22905  1.0000
  C   C49       1.0  0.25580  0.14843  0.28410  1.0000
  C   C50       1.0  0.25473  0.11778  0.27110  1.0000
  H   H34       1.0  0.26259  0.16427  0.22989  1.0000
  H   H35       1.0  0.26149  0.11334  0.20894  1.0000
  C   C51       1.0  0.27082  0.19533  0.38388  1.0000
  C   C52       1.0  0.25425  0.21313  0.36196  1.0000
  C   C53       1.0  0.26850  0.30208  0.34386  1.0000
  C   C54       1.0  0.25238  0.32061  0.32554  1.0000
  C   C55       1.0  0.21763  0.30281  0.30463  1.0000
  N   N3        1.0  0.20146  0.31928  0.27869  1.0000
  H   H36       1.0  0.21179  0.34310  0.27673  1.0000
  H   H37       1.0  0.22928  0.19904  0.35212  1.0000
  C   C56       1.0  0.21700  0.46996  0.36112  1.0000
  C   C57       1.0  0.19934  0.43552  0.38186  1.0000
  C   C58       1.0  0.21766  0.41853  0.39327  1.0000
  N   N4        1.0  0.20137  0.38599  0.42007  1.0000
  H   H38       1.0  0.17999  0.37619  0.44942  1.0000
  H   H39       1.0  0.20281  0.48082  0.35340  1.0000
  C   C59       1.0  0.16395  0.25056  0.32749  1.0000
  H   H40       1.0  0.16660  0.25499  0.46954  1.0000
  C   C60       1.0  0.27006  0.41768  0.36348  1.0000
  C   C61       1.0  0.27298  0.40020  0.43827  1.0000
  C   C62       1.0  0.27180  0.36917  0.42795  1.0000
  C   C63       1.0  0.26964  0.35585  0.33933  1.0000
  H   H41       1.0  0.26995  0.40722  0.50169  1.0000
  C   C64       1.0  0.26824  0.34928  0.51068  1.0000
  H   H42       1.0  0.27055  0.36283  0.57319  1.0000
  H   H43       1.0  0.24398  0.32666  0.51133  1.0000
  C   C65       1.0  0.16399  0.41705  0.37089  1.0000
  H   H44       1.0  0.17453  0.41472  0.55978  1.0000
  C   C66       1.0  0.25309  0.09783  0.34572  1.0000
  C   C67       1.0  0.24728  0.10742  0.43182  1.0000
  C   C68       1.0  0.24720  0.13773  0.44562  1.0000
  C   C69       1.0  0.25400  0.16001  0.37160  1.0000
  H   H45       1.0  0.24737  0.09424  0.48731  1.0000
  C   C70       1.0  0.24350  0.14757  0.53891  1.0000
  H   H46       1.0  0.23748  0.12787  0.58829  1.0000
  H   H47       1.0  0.22340  0.15330  0.53981  1.0000
  H   H48       1.0  0.26637  0.16951  0.56081  1.0000
  C   C71       1.0  0.27030  0.74854  0.35495  1.0000
  C   C72       1.0  0.25240  0.76657  0.34326  1.0000
  C   C73       1.0  0.19926  0.76745  0.31574  1.0000
  C   C74       1.0  0.21698  0.75073  0.33697  1.0000
  H   H49       1.0  0.20283  0.72574  0.34633  1.0000
  H   H50       1.0  0.18012  0.80793  0.24924  1.0000
  C   C75       1.0  0.27033  0.52556  0.34809  1.0000
  C   C76       1.0  0.25422  0.54504  0.34690  1.0000
  C   C77       1.0  0.27106  0.58028  0.34149  1.0000
  H   H51       1.0  0.22898  0.53367  0.34826  1.0000
  C   C78       1.0  0.25240  0.98943  0.35392  1.0000
  C   C79       1.0  0.25233  0.93536  0.37176  1.0000
  C   C80       1.0  0.26837  0.96986  0.35160  1.0000
  H   H52       1.0  0.21130  0.87213  0.42079  1.0000
  C   C81       1.0  0.27373  0.87691  0.26489  1.0000
  C   C82       1.0  0.27325  0.90686  0.27650  1.0000
  H   H53       1.0  0.27078  0.86769  0.20044  1.0000
  H   H54       1.0  0.26964  0.91750  0.22013  1.0000
  H   H55       1.0  0.16750  0.91226  0.22905  1.0000
  C   C83       1.0  0.25580  0.64843  0.28410  1.0000
  C   C84       1.0  0.25473  0.61778  0.27110  1.0000
  H   H56       1.0  0.26259  0.66427  0.22989  1.0000
  H   H57       1.0  0.26149  0.61334  0.20894  1.0000
  C   C85       1.0  0.27082  0.69533  0.38388  1.0000
  C   C86       1.0  0.25425  0.71313  0.36195  1.0000
  C   C87       1.0  0.26850  0.80208  0.34386  1.0000
  C   C88       1.0  0.25238  0.82061  0.32554  1.0000
  C   C89       1.0  0.21763  0.80280  0.30463  1.0000
  N   N5        1.0  0.20146  0.81927  0.27869  1.0000
  H   H58       1.0  0.21179  0.84310  0.27673  1.0000
  H   H59       1.0  0.22927  0.69904  0.35212  1.0000
  C   C90       1.0  0.21700  0.96995  0.36112  1.0000
  C   C91       1.0  0.19934  0.93552  0.38186  1.0000
  C   C92       1.0  0.21766  0.91853  0.39327  1.0000
  N   N6        1.0  0.20137  0.88599  0.42007  1.0000
  H   H60       1.0  0.17999  0.87619  0.44942  1.0000
  H   H61       1.0  0.20281  0.98082  0.35340  1.0000
  C   C93       1.0  0.16395  0.75056  0.32749  1.0000
  H   H62       1.0  0.16660  0.75499  0.46954  1.0000
  C   C94       1.0  0.27006  0.91768  0.36348  1.0000
  C   C95       1.0  0.27298  0.90020  0.43827  1.0000
  C   C96       1.0  0.27180  0.86917  0.42795  1.0000
  C   C97       1.0  0.26964  0.85585  0.33933  1.0000
  H   H63       1.0  0.26994  0.90722  0.50169  1.0000
  C   C98       1.0  0.26824  0.84928  0.51068  1.0000
  H   H64       1.0  0.27055  0.86283  0.57319  1.0000
  H   H65       1.0  0.24398  0.82666  0.51133  1.0000
  C   C99       1.0  0.16399  0.91705  0.37089  1.0000
  H   H66       1.0  0.17453  0.91472  0.55978  1.0000
  C   C100      1.0  0.25309  0.59783  0.34572  1.0000
  C   C101      1.0  0.24728  0.60742  0.43182  1.0000
  C   C102      1.0  0.24720  0.63773  0.44562  1.0000
  C   C103      1.0  0.25400  0.66001  0.37160  1.0000
  H   H67       1.0  0.24737  0.59424  0.48731  1.0000
  C   C104      1.0  0.24350  0.64757  0.53891  1.0000
  H   H68       1.0  0.23748  0.62787  0.58829  1.0000
  H   H69       1.0  0.22340  0.65330  0.53981  1.0000
  H   H70       1.0  0.26637  0.66951  0.56081  1.0000
  C   C105      1.0  0.30582  0.26447  0.35467  1.0000
  C   C106      1.0  0.32411  0.24834  0.37597  1.0000
  H   H71       1.0  0.31958  0.28910  0.33921  1.0000
  H   H72       1.0  0.34600  0.20687  0.42302  1.0000
  H   H73       1.0  0.29302  0.48081  0.33675  1.0000
  H   H74       1.0  0.31369  0.14503  0.33200  1.0000
  H   H75       1.0  0.35976  0.26703  0.22495  1.0000
  H   H76       1.0  0.36088  0.09810  0.20265  1.0000
  C   C107      1.0  0.30610  0.21356  0.39643  1.0000
  N   N7        1.0  0.32222  0.19705  0.42249  1.0000
  H   H77       1.0  0.31057  0.17535  0.45003  1.0000
  H   H78       1.0  0.29314  0.31569  0.35926  1.0000
  C   C108      1.0  0.30655  0.09794  0.34475  1.0000
  C   C109      1.0  0.32425  0.08018  0.34912  1.0000
  C   C110      1.0  0.30589  0.04494  0.34823  1.0000
  N   N8        1.0  0.32371  0.13187  0.34581  1.0000
  H   H79       1.0  0.34665  0.14452  0.36328  1.0000
  H   H80       1.0  0.31973  0.03355  0.35143  1.0000
  H   H81       1.0  0.28761  0.34254  0.51146  1.0000
  C   C111      1.0  0.35954  0.26599  0.36828  1.0000
  H   H82       1.0  0.36949  0.26473  0.50636  1.0000
  C   C112      1.0  0.35980  0.09764  0.34606  1.0000
  C   C113      1.0  0.36488  0.10574  0.51617  1.0000
  H   H83       1.0  0.35884  0.08011  0.52764  1.0000
  H   H84       1.0  0.34236  0.10730  0.52443  1.0000
  C   C114      1.0  0.30581  0.76447  0.35467  1.0000
  C   C115      1.0  0.32411  0.74834  0.37597  1.0000
  H   H85       1.0  0.31958  0.78909  0.33921  1.0000
  H   H86       1.0  0.34600  0.70687  0.42302  1.0000
  H   H87       1.0  0.29302  0.98081  0.33676  1.0000
  H   H88       1.0  0.31369  0.64503  0.33200  1.0000
  H   H89       1.0  0.35976  0.76703  0.22495  1.0000
  H   H90       1.0  0.36088  0.59810  0.20265  1.0000
  C   C116      1.0  0.30610  0.71356  0.39643  1.0000
  N   N9        1.0  0.32222  0.69705  0.42249  1.0000
  H   H91       1.0  0.31057  0.67535  0.45003  1.0000
  H   H92       1.0  0.29314  0.81569  0.35926  1.0000
  C   C117      1.0  0.30655  0.59794  0.34475  1.0000
  C   C118      1.0  0.32425  0.58018  0.34912  1.0000
  C   C119      1.0  0.30589  0.54494  0.34823  1.0000
  N   N10       1.0  0.32371  0.63187  0.34581  1.0000
  H   H93       1.0  0.34665  0.64452  0.36328  1.0000
  H   H94       1.0  0.31973  0.53355  0.35143  1.0000
  H   H95       1.0  0.28761  0.84254  0.51146  1.0000
  C   C120      1.0  0.35954  0.76599  0.36828  1.0000
  H   H96       1.0  0.36949  0.76473  0.50636  1.0000
  C   C121      1.0  0.35980  0.59764  0.34606  1.0000
  C   C122      1.0  0.36488  0.60574  0.51617  1.0000
  H   H97       1.0  0.35884  0.58011  0.52764  1.0000
  H   H98       1.0  0.34236  0.60730  0.52443  1.0000
  C   C123      1.0  0.49312  0.24874  0.34234  1.0000
  C   C124      1.0  0.47350  0.21337  0.33438  1.0000
  C   C125      1.0  0.43902  0.19584  0.31397  1.0000
  H   H99       1.0  0.48436  0.19912  0.34040  1.0000
  H   H100      1.0  0.37973  0.17750  0.24683  1.0000
  C   C126      1.0  0.40437  0.27084  0.26927  1.0000
  C   C127      1.0  0.37386  0.27016  0.28134  1.0000
  H   H101      1.0  0.41088  0.26844  0.20463  1.0000
  C   C128      1.0  0.37443  0.10924  0.25976  1.0000
  C   C129      1.0  0.40440  0.13964  0.24891  1.0000
  H   H102      1.0  0.41116  0.14905  0.18483  1.0000
  C   C130      1.0  0.42205  0.21429  0.30499  1.0000
  C   C131      1.0  0.43902  0.24885  0.32788  1.0000
  C   C132      1.0  0.47369  0.26482  0.34572  1.0000
  N   N11       1.0  0.38945  0.19836  0.27874  1.0000
  H   H103      1.0  0.37600  0.20874  0.27787  1.0000
  H   H104      1.0  0.48475  0.28939  0.36182  1.0000
  C   C133      1.0  0.37973  0.26834  0.44303  1.0000
  C   C134      1.0  0.40966  0.26735  0.43217  1.0000
  C   C135      1.0  0.42108  0.26607  0.34324  1.0000
  C   C136      1.0  0.42581  0.26310  0.51426  1.0000
  H   H105      1.0  0.41445  0.26489  0.57714  1.0000
  H   H106      1.0  0.45192  0.28245  0.51586  1.0000
  H   H107      1.0  0.42417  0.23883  0.51318  1.0000
  C   C137      1.0  0.42064  0.16049  0.32382  1.0000
  C   C138      1.0  0.40838  0.14711  0.41088  1.0000
  C   C139      1.0  0.37854  0.11617  0.42314  1.0000
  H   H108      1.0  0.41881  0.16216  0.46609  1.0000
  H   H109      1.0  0.38248  0.12111  0.56852  1.0000
  C   C140      1.0  0.49311  0.74874  0.34234  1.0000
  C   C141      1.0  0.47350  0.71337  0.33438  1.0000
  C   C142      1.0  0.43902  0.69584  0.31397  1.0000
  H   H110      1.0  0.48436  0.69912  0.34040  1.0000
  H   H111      1.0  0.37973  0.67749  0.24683  1.0000
  C   C143      1.0  0.40436  0.77084  0.26927  1.0000
  C   C144      1.0  0.37386  0.77016  0.28134  1.0000
  H   H112      1.0  0.41088  0.76844  0.20463  1.0000
  C   C145      1.0  0.37443  0.60924  0.25976  1.0000
  C   C146      1.0  0.40440  0.63964  0.24891  1.0000
  H   H113      1.0  0.41115  0.64905  0.18483  1.0000
  C   C147      1.0  0.42205  0.71429  0.30499  1.0000
  C   C148      1.0  0.43902  0.74885  0.32788  1.0000
  C   C149      1.0  0.47369  0.76482  0.34572  1.0000
  N   N12       1.0  0.38945  0.69836  0.27874  1.0000
  H   H114      1.0  0.37600  0.70874  0.27787  1.0000
  H   H115      1.0  0.48475  0.78939  0.36182  1.0000
  C   C150      1.0  0.37973  0.76834  0.44303  1.0000
  C   C151      1.0  0.40966  0.76734  0.43217  1.0000
  C   C152      1.0  0.42108  0.76607  0.34324  1.0000
  C   C153      1.0  0.42581  0.76310  0.51426  1.0000
  H   H116      1.0  0.41445  0.76489  0.57714  1.0000
  H   H117      1.0  0.45192  0.78245  0.51586  1.0000
  H   H118      1.0  0.42417  0.73883  0.51319  1.0000
  C   C154      1.0  0.42064  0.66049  0.32382  1.0000
  C   C155      1.0  0.40838  0.64710  0.41088  1.0000
  C   C156      1.0  0.37854  0.61616  0.42314  1.0000
  H   H119      1.0  0.41881  0.66216  0.46609  1.0000
  H   H120      1.0  0.38248  0.62111  0.56852  1.0000
  C   C157      1.0  0.99311  0.24874  0.34234  1.0000
  C   C158      1.0  0.97350  0.21337  0.33438  1.0000
  C   C159      1.0  0.93902  0.19584  0.31397  1.0000
  H   H121      1.0  0.98436  0.19912  0.34040  1.0000
  C   C160      1.0  0.52924  0.26656  0.34825  1.0000
  C   C161      1.0  0.58402  0.32036  0.34516  1.0000
  C   C162      1.0  0.54876  0.30212  0.34700  1.0000
  H   H122      1.0  0.53743  0.31599  0.34266  1.0000
  H   H123      1.0  0.64855  0.34220  0.33457  1.0000
  H   H124      1.0  0.87974  0.17750  0.24683  1.0000
  C   C163      1.0  0.77030  0.24854  0.35495  1.0000
  C   C164      1.0  0.80581  0.26447  0.35467  1.0000
  C   C165      1.0  0.82411  0.24834  0.37597  1.0000
  H   H125      1.0  0.81958  0.28910  0.33921  1.0000
  C   C166      1.0  0.75240  0.26657  0.34326  1.0000
  C   C167      1.0  0.69926  0.26745  0.31574  1.0000
  C   C168      1.0  0.71698  0.25073  0.33697  1.0000
  H   H126      1.0  0.70283  0.22574  0.34633  1.0000
  H   H127      1.0  0.68012  0.30793  0.24924  1.0000
  H   H128      1.0  0.84600  0.20687  0.42302  1.0000
  C   C169      1.0  0.77033  0.02556  0.34809  1.0000
  C   C170      1.0  0.75422  0.04504  0.34690  1.0000
  C   C171      1.0  0.77106  0.08028  0.34149  1.0000
  H   H129      1.0  0.72898  0.03367  0.34826  1.0000
  C   C172      1.0  0.75240  0.48943  0.35392  1.0000
  C   C173      1.0  0.75233  0.43536  0.37176  1.0000
  C   C174      1.0  0.76837  0.46986  0.35160  1.0000
  H   H130      1.0  0.79302  0.48081  0.33675  1.0000
  H   H131      1.0  0.71130  0.37213  0.42079  1.0000
  H   H132      1.0  0.81369  0.14503  0.33200  1.0000
  C   C175      1.0  0.61230  0.24534  0.26567  1.0000
  C   C176      1.0  0.64254  0.24549  0.25359  1.0000
  H   H133      1.0  0.60081  0.24743  0.20889  1.0000
  H   H134      1.0  0.65145  0.24782  0.18902  1.0000
  C   C177      1.0  0.77373  0.37691  0.26489  1.0000
  C   C178      1.0  0.77325  0.40686  0.27650  1.0000
  H   H135      1.0  0.77078  0.36769  0.20044  1.0000
  H   H136      1.0  0.76964  0.41750  0.22013  1.0000
  C   C179      1.0  0.65196  0.40342  0.28389  1.0000
  C   C180      1.0  0.62123  0.37384  0.27234  1.0000
  H   H137      1.0  0.66751  0.41226  0.22905  1.0000
  H   H138      1.0  0.61633  0.36246  0.21034  1.0000
  C   C181      1.0  0.90436  0.27084  0.26927  1.0000
  C   C182      1.0  0.87386  0.27016  0.28134  1.0000
  H   H139      1.0  0.91088  0.26844  0.20463  1.0000
  H   H140      1.0  0.85976  0.26703  0.22495  1.0000
  C   C183      1.0  0.75580  0.14843  0.28410  1.0000
  C   C184      1.0  0.75473  0.11778  0.27110  1.0000
  H   H141      1.0  0.76259  0.16427  0.22989  1.0000
  H   H142      1.0  0.76149  0.11334  0.20894  1.0000
  C   C185      1.0  0.87443  0.10924  0.25976  1.0000
  C   C186      1.0  0.90440  0.13964  0.24891  1.0000
  H   H143      1.0  0.86088  0.09810  0.20265  1.0000
  H   H144      1.0  0.91115  0.14905  0.18483  1.0000
  C   C187      1.0  0.92205  0.21429  0.30499  1.0000
  C   C188      1.0  0.93902  0.24885  0.32788  1.0000
  C   C189      1.0  0.97370  0.26482  0.34572  1.0000
  N   N13       1.0  0.88945  0.19836  0.27874  1.0000
  C   C190      1.0  0.54854  0.25028  0.35075  1.0000
  C   C191      1.0  0.58377  0.26704  0.35509  1.0000
  C   C192      1.0  0.60160  0.30250  0.35062  1.0000
  N   N14       1.0  0.63553  0.31930  0.35163  1.0000
  H   H145      1.0  0.64833  0.30907  0.36804  1.0000
  H   H146      1.0  0.87600  0.20874  0.27787  1.0000
  H   H147      1.0  0.98476  0.28939  0.36182  1.0000
  H   H148      1.0  0.53707  0.22504  0.35114  1.0000
  C   C193      1.0  0.80610  0.21356  0.39643  1.0000
  C   C194      1.0  0.77082  0.19533  0.38388  1.0000
  C   C195      1.0  0.75425  0.21313  0.36196  1.0000
  N   N15       1.0  0.82222  0.19705  0.42249  1.0000
  C   C196      1.0  0.76850  0.30208  0.34386  1.0000
  C   C197      1.0  0.75238  0.32061  0.32554  1.0000
  C   C198      1.0  0.71763  0.30281  0.30463  1.0000
  N   N16       1.0  0.70146  0.31928  0.27869  1.0000
  H   H149      1.0  0.71179  0.34310  0.27673  1.0000
  H   H150      1.0  0.81057  0.17535  0.45003  1.0000
  H   H151      1.0  0.72928  0.19904  0.35212  1.0000
  H   H152      1.0  0.79314  0.31569  0.35926  1.0000
  C   C199      1.0  0.80655  0.09794  0.34475  1.0000
  C   C200      1.0  0.82425  0.08018  0.34912  1.0000
  C   C201      1.0  0.80589  0.04494  0.34823  1.0000
  N   N17       1.0  0.82371  0.13187  0.34581  1.0000
  C   C202      1.0  0.71700  0.46996  0.36112  1.0000
  C   C203      1.0  0.69934  0.43552  0.38186  1.0000
  C   C204      1.0  0.71766  0.41853  0.39327  1.0000
  N   N18       1.0  0.70137  0.38599  0.42007  1.0000
  H   H153      1.0  0.67999  0.37619  0.44942  1.0000
  H   H154      1.0  0.84665  0.14452  0.36328  1.0000
  H   H155      1.0  0.81973  0.03355  0.35143  1.0000
  H   H156      1.0  0.70281  0.48082  0.35340  1.0000
  C   C205      1.0  0.66395  0.25056  0.32749  1.0000
  C   C206      1.0  0.65118  0.25005  0.41503  1.0000
  C   C207      1.0  0.62038  0.24915  0.42844  1.0000
  C   C208      1.0  0.60126  0.24895  0.35231  1.0000
  H   H157      1.0  0.66660  0.25499  0.46954  1.0000
  C   C209      1.0  0.61059  0.25297  0.52172  1.0000
  H   H158      1.0  0.62628  0.25102  0.57357  1.0000
  H   H159      1.0  0.58502  0.23349  0.53463  1.0000
  H   H160      1.0  0.61225  0.27712  0.52930  1.0000
  C   C210      1.0  0.77006  0.41768  0.36348  1.0000
  C   C211      1.0  0.77298  0.40020  0.43827  1.0000
  C   C212      1.0  0.77180  0.36917  0.42795  1.0000
  C   C213      1.0  0.76964  0.35585  0.33933  1.0000
  H   H161      1.0  0.76995  0.40722  0.50169  1.0000
  C   C214      1.0  0.76824  0.34928  0.51068  1.0000
  H   H162      1.0  0.77055  0.36283  0.57319  1.0000
  H   H163      1.0  0.78761  0.34254  0.51146  1.0000
  H   H164      1.0  0.74398  0.32666  0.51133  1.0000
  C   C215      1.0  0.60152  0.35588  0.34761  1.0000
  C   C216      1.0  0.61171  0.37154  0.43331  1.0000
  C   C217      1.0  0.64215  0.40188  0.44586  1.0000
  C   C218      1.0  0.66399  0.41705  0.37089  1.0000
  H   H165      1.0  0.59884  0.35851  0.48943  1.0000
  C   C219      1.0  0.65252  0.41567  0.53874  1.0000
  H   H166      1.0  0.63308  0.40218  0.58892  1.0000
  H   H167      1.0  0.65834  0.44152  0.53939  1.0000
  H   H168      1.0  0.67453  0.41472  0.55978  1.0000
  C   C220      1.0  0.85955  0.26599  0.36828  1.0000
  C   C221      1.0  0.87973  0.26834  0.44303  1.0000
  C   C222      1.0  0.90966  0.26735  0.43217  1.0000
  C   C223      1.0  0.92108  0.26607  0.34324  1.0000
  H   H169      1.0  0.86949  0.26473  0.50636  1.0000
  C   C224      1.0  0.92581  0.26310  0.51426  1.0000
  H   H170      1.0  0.91445  0.26489  0.57714  1.0000
  H   H171      1.0  0.95192  0.28245  0.51586  1.0000
  H   H172      1.0  0.92417  0.23883  0.51318  1.0000
  C   C225      1.0  0.75309  0.09783  0.34572  1.0000
  C   C226      1.0  0.74728  0.10742  0.43182  1.0000
  C   C227      1.0  0.74720  0.13773  0.44562  1.0000
  C   C228      1.0  0.75400  0.16001  0.37160  1.0000
  H   H173      1.0  0.74737  0.09424  0.48731  1.0000
  C   C229      1.0  0.74350  0.14757  0.53891  1.0000
  H   H174      1.0  0.73748  0.12787  0.58829  1.0000
  H   H175      1.0  0.72340  0.15330  0.53981  1.0000
  H   H176      1.0  0.76636  0.16951  0.56081  1.0000
  C   C230      1.0  0.92064  0.16049  0.32382  1.0000
  C   C231      1.0  0.90838  0.14711  0.41088  1.0000
  C   C232      1.0  0.87854  0.11617  0.42314  1.0000
  C   C233      1.0  0.85980  0.09764  0.34606  1.0000
  H   H177      1.0  0.91881  0.16216  0.46609  1.0000
  C   C234      1.0  0.86488  0.10574  0.51617  1.0000
  H   H178      1.0  0.88248  0.12111  0.56852  1.0000
  H   H179      1.0  0.85884  0.08011  0.52764  1.0000
  H   H180      1.0  0.84236  0.10730  0.52443  1.0000
  C   C235      1.0  0.99311  0.74874  0.34234  1.0000
  C   C236      1.0  0.97350  0.71337  0.33438  1.0000
  C   C237      1.0  0.93902  0.69584  0.31397  1.0000
  H   H181      1.0  0.98436  0.69912  0.34040  1.0000
  C   C238      1.0  0.52924  0.76656  0.34825  1.0000
  C   C239      1.0  0.58402  0.82036  0.34516  1.0000
  C   C240      1.0  0.54876  0.80211  0.34700  1.0000
  H   H182      1.0  0.53743  0.81599  0.34266  1.0000
  H   H183      1.0  0.64855  0.84220  0.33457  1.0000
  H   H184      1.0  0.87973  0.67749  0.24683  1.0000
  C   C241      1.0  0.77030  0.74854  0.35495  1.0000
  C   C242      1.0  0.80581  0.76447  0.35467  1.0000
  C   C243      1.0  0.82411  0.74834  0.37597  1.0000
  H   H185      1.0  0.81958  0.78909  0.33921  1.0000
  C   C244      1.0  0.75240  0.76657  0.34326  1.0000
  C   C245      1.0  0.69926  0.76745  0.31574  1.0000
  C   C246      1.0  0.71698  0.75073  0.33697  1.0000
  H   H186      1.0  0.70283  0.72574  0.34633  1.0000
  H   H187      1.0  0.68012  0.80793  0.24924  1.0000
  H   H188      1.0  0.84600  0.70687  0.42302  1.0000
  C   C247      1.0  0.77034  0.52556  0.34809  1.0000
  C   C248      1.0  0.75422  0.54504  0.34690  1.0000
  C   C249      1.0  0.77106  0.58028  0.34149  1.0000
  H   H189      1.0  0.72898  0.53367  0.34826  1.0000
  C   C250      1.0  0.75240  0.98943  0.35392  1.0000
  C   C251      1.0  0.75233  0.93536  0.37176  1.0000
  C   C252      1.0  0.76837  0.96986  0.35160  1.0000
  H   H190      1.0  0.79302  0.98081  0.33676  1.0000
  H   H191      1.0  0.71130  0.87213  0.42079  1.0000
  H   H192      1.0  0.81369  0.64503  0.33200  1.0000
  C   C253      1.0  0.61230  0.74534  0.26567  1.0000
  C   C254      1.0  0.64254  0.74549  0.25359  1.0000
  H   H193      1.0  0.60081  0.74743  0.20889  1.0000
  H   H194      1.0  0.65145  0.74782  0.18902  1.0000
  C   C255      1.0  0.77373  0.87691  0.26489  1.0000
  C   C256      1.0  0.77325  0.90686  0.27650  1.0000
  H   H195      1.0  0.77078  0.86769  0.20044  1.0000
  H   H196      1.0  0.76964  0.91750  0.22013  1.0000
  C   C257      1.0  0.65196  0.90342  0.28389  1.0000
  C   C258      1.0  0.62123  0.87384  0.27234  1.0000
  H   H197      1.0  0.66751  0.91226  0.22905  1.0000
  H   H198      1.0  0.61633  0.86246  0.21034  1.0000
  C   C259      1.0  0.90436  0.77084  0.26927  1.0000
  C   C260      1.0  0.87386  0.77016  0.28134  1.0000
  H   H199      1.0  0.91088  0.76844  0.20463  1.0000
  H   H200      1.0  0.85976  0.76703  0.22495  1.0000
  C   C261      1.0  0.75580  0.64843  0.28410  1.0000
  C   C262      1.0  0.75473  0.61778  0.27110  1.0000
  H   H201      1.0  0.76259  0.66427  0.22989  1.0000
  H   H202      1.0  0.76149  0.61334  0.20894  1.0000
  C   C263      1.0  0.87443  0.60924  0.25976  1.0000
  C   C264      1.0  0.90440  0.63964  0.24891  1.0000
  H   H203      1.0  0.86088  0.59810  0.20265  1.0000
  H   H204      1.0  0.91116  0.64905  0.18483  1.0000
  C   C265      1.0  0.92205  0.71429  0.30499  1.0000
  C   C266      1.0  0.93902  0.74885  0.32788  1.0000
  C   C267      1.0  0.97369  0.76482  0.34572  1.0000
  N   N19       1.0  0.88945  0.69836  0.27874  1.0000
  C   C268      1.0  0.54853  0.75028  0.35075  1.0000
  C   C269      1.0  0.58377  0.76704  0.35509  1.0000
  C   C270      1.0  0.60160  0.80250  0.35062  1.0000
  N   N20       1.0  0.63553  0.81930  0.35163  1.0000
  H   H205      1.0  0.64833  0.80907  0.36804  1.0000
  H   H206      1.0  0.87599  0.70874  0.27787  1.0000
  H   H207      1.0  0.98476  0.78939  0.36182  1.0000
  H   H208      1.0  0.53707  0.72503  0.35114  1.0000
  C   C271      1.0  0.80609  0.71356  0.39643  1.0000
  C   C272      1.0  0.77082  0.69533  0.38388  1.0000
  C   C273      1.0  0.75425  0.71313  0.36195  1.0000
  N   N21       1.0  0.82222  0.69705  0.42249  1.0000
  C   C274      1.0  0.76850  0.80208  0.34386  1.0000
  C   C275      1.0  0.75238  0.82061  0.32554  1.0000
  C   C276      1.0  0.71763  0.80280  0.30463  1.0000
  N   N22       1.0  0.70146  0.81927  0.27869  1.0000
  H   H209      1.0  0.71179  0.84310  0.27673  1.0000
  H   H210      1.0  0.81057  0.67535  0.45003  1.0000
  H   H211      1.0  0.72927  0.69904  0.35212  1.0000
  H   H212      1.0  0.79314  0.81569  0.35926  1.0000
  C   C277      1.0  0.80655  0.59794  0.34475  1.0000
  C   C278      1.0  0.82425  0.58018  0.34912  1.0000
  C   C279      1.0  0.80589  0.54494  0.34823  1.0000
  N   N23       1.0  0.82371  0.63187  0.34581  1.0000
  C   C280      1.0  0.71700  0.96995  0.36112  1.0000
  C   C281      1.0  0.69934  0.93552  0.38186  1.0000
  C   C282      1.0  0.71766  0.91853  0.39327  1.0000
  N   N24       1.0  0.70137  0.88599  0.42007  1.0000
  H   H213      1.0  0.67999  0.87619  0.44942  1.0000
  H   H214      1.0  0.84665  0.64452  0.36328  1.0000
  H   H215      1.0  0.81973  0.53355  0.35143  1.0000
  H   H216      1.0  0.70281  0.98082  0.35340  1.0000
  C   C283      1.0  0.66395  0.75056  0.32749  1.0000
  C   C284      1.0  0.65118  0.75005  0.41503  1.0000
  C   C285      1.0  0.62037  0.74915  0.42844  1.0000
  C   C286      1.0  0.60126  0.74895  0.35231  1.0000
  H   H217      1.0  0.66660  0.75499  0.46954  1.0000
  C   C287      1.0  0.61059  0.75297  0.52172  1.0000
  H   H218      1.0  0.62628  0.75102  0.57357  1.0000
  H   H219      1.0  0.58502  0.73349  0.53463  1.0000
  H   H220      1.0  0.61225  0.77712  0.52930  1.0000
  C   C288      1.0  0.77006  0.91768  0.36348  1.0000
  C   C289      1.0  0.77298  0.90020  0.43827  1.0000
  C   C290      1.0  0.77180  0.86917  0.42795  1.0000
  C   C291      1.0  0.76964  0.85585  0.33933  1.0000
  H   H221      1.0  0.76994  0.90722  0.50169  1.0000
  C   C292      1.0  0.76824  0.84928  0.51068  1.0000
  H   H222      1.0  0.77055  0.86283  0.57319  1.0000
  H   H223      1.0  0.78761  0.84254  0.51146  1.0000
  H   H224      1.0  0.74398  0.82666  0.51133  1.0000
  C   C293      1.0  0.60152  0.85588  0.34761  1.0000
  C   C294      1.0  0.61171  0.87154  0.43331  1.0000
  C   C295      1.0  0.64215  0.90188  0.44586  1.0000
  C   C296      1.0  0.66399  0.91705  0.37089  1.0000
  H   H225      1.0  0.59884  0.85850  0.48943  1.0000
  C   C297      1.0  0.65252  0.91567  0.53874  1.0000
  H   H226      1.0  0.63308  0.90218  0.58892  1.0000
  H   H227      1.0  0.65834  0.94152  0.53939  1.0000
  H   H228      1.0  0.67453  0.91472  0.55978  1.0000
  C   C298      1.0  0.85954  0.76599  0.36828  1.0000
  C   C299      1.0  0.87973  0.76834  0.44303  1.0000
  C   C300      1.0  0.90965  0.76734  0.43217  1.0000
  C   C301      1.0  0.92108  0.76607  0.34324  1.0000
  H   H229      1.0  0.86949  0.76473  0.50636  1.0000
  C   C302      1.0  0.92581  0.76310  0.51426  1.0000
  H   H230      1.0  0.91444  0.76489  0.57714  1.0000
  H   H231      1.0  0.95192  0.78245  0.51586  1.0000
  H   H232      1.0  0.92417  0.73883  0.51319  1.0000
  C   C303      1.0  0.75308  0.59783  0.34572  1.0000
  C   C304      1.0  0.74728  0.60742  0.43182  1.0000
  C   C305      1.0  0.74720  0.63773  0.44562  1.0000
  C   C306      1.0  0.75400  0.66001  0.37160  1.0000
  H   H233      1.0  0.74737  0.59424  0.48731  1.0000
  C   C307      1.0  0.74350  0.64757  0.53891  1.0000
  H   H234      1.0  0.73748  0.62787  0.58829  1.0000
  H   H235      1.0  0.72340  0.65330  0.53981  1.0000
  H   H236      1.0  0.76637  0.66951  0.56081  1.0000
  C   C308      1.0  0.92064  0.66049  0.32382  1.0000
  C   C309      1.0  0.90838  0.64710  0.41088  1.0000
  C   C310      1.0  0.87854  0.61616  0.42314  1.0000
  C   C311      1.0  0.85980  0.59764  0.34606  1.0000
  H   H237      1.0  0.91881  0.66216  0.46609  1.0000
  C   C312      1.0  0.86488  0.60574  0.51617  1.0000
  H   H238      1.0  0.88248  0.62111  0.56852  1.0000
  H   H239      1.0  0.85884  0.58011  0.52764  1.0000
  H   H240      1.0  0.84236  0.60730  0.52443  1.0000
