data_image0
_chemical_formula_structural       CNO2CHC6H4C6H4C2NO2C2HC12H6C12H6C4HNO2C4HNO2C2HNO2C2HNO2C6H5C6H9C2HNO2C2HNO2C4HNO2C4HOC4HNO2C4HNO2C4HNO2C4HNO2C2HNO2CHC2HNO3CNO2C2HNOC2HNO2C2HNO2C2HNO2C2HNO2C2HNO2C24H15C24H15C24H13C24H15C24H14C24H15C24H14C24H15C24H15C24H15C2HNO2C2HNO2C2HNO2C2HNO2C4HNO2C2HC4HNO2NOC2NO2C4HNO2C4HNO2C4HNO2C4HNO2C4HNO2C4HNO2
_chemical_formula_sum              "C396 N36 O72 H216"
_cell_length_a       75.8787
_cell_length_b       75.8788
_cell_length_c       14.9196
_cell_angle_alpha    90
_cell_angle_beta     90
_cell_angle_gamma    120

_space_group_name_H-M_alt    "P 1"
_space_group_IT_number       1

loop_
  _space_group_symop_operation_xyz
  'x, y, z'

loop_
  _atom_site_type_symbol
  _atom_site_label
  _atom_site_symmetry_multiplicity
  _atom_site_fract_x
  _atom_site_fract_y
  _atom_site_fract_z
  _atom_site_occupancy
  C   C1        1.0  0.01052  0.80463  0.25648  1.0000
  N   N1        1.0  0.02125  0.81271  0.17516  1.0000
  O   O1        1.0  0.01720  0.82544  0.14127  1.0000
  O   O2        1.0  0.01734  0.79897  0.11854  1.0000
  C   C2        1.0  0.01052  0.19714  0.24950  1.0000
  H   H1        1.0  0.01811  0.20203  0.18985  1.0000
  C   C3        1.0  0.08737  0.23478  0.33071  1.0000
  C   C4        1.0  0.07626  0.21846  0.27060  1.0000
  C   C5        1.0  0.05481  0.20778  0.26989  1.0000
  C   C6        1.0  0.04355  0.21280  0.33007  1.0000
  C   C7        1.0  0.05467  0.22907  0.39043  1.0000
  C   C8        1.0  0.07611  0.23989  0.39042  1.0000
  H   H2        1.0  0.08373  0.21432  0.22564  1.0000
  H   H3        1.0  0.04746  0.19597  0.22581  1.0000
  H   H4        1.0  0.08345  0.25137  0.43608  1.0000
  H   H5        1.0  0.04722  0.23341  0.43451  1.0000
  C   C9        1.0  0.08709  0.84053  0.33943  1.0000
  C   C10       1.0  0.07584  0.82230  0.28970  1.0000
  C   C11       1.0  0.05440  0.81157  0.28946  1.0000
  C   C12       1.0  0.04328  0.81873  0.33838  1.0000
  C   C13       1.0  0.05437  0.83694  0.38788  1.0000
  C   C14       1.0  0.07581  0.84755  0.38861  1.0000
  H   H6        1.0  0.04693  0.79839  0.25316  1.0000
  H   H7        1.0  0.08317  0.81674  0.25156  1.0000
  H   H8        1.0  0.04688  0.84268  0.42380  1.0000
  H   H9        1.0  0.08312  0.86042  0.42692  1.0000
  C   C15       1.0  0.01038  0.80006  0.41908  1.0000
  C   C16       1.0  0.02146  0.80785  0.33797  1.0000
  N   N2        1.0  0.02096  0.80263  0.50077  1.0000
  O   O3        1.0  0.01688  0.78583  0.53448  1.0000
  O   O4        1.0  0.01695  0.81241  0.55727  1.0000
  C   C17       1.0  0.02172  0.20180  0.33015  1.0000
  C   C18       1.0  0.01058  0.19525  0.41098  1.0000
  H   H10       1.0  0.01822  0.19800  0.47053  1.0000
  C   C19       1.0  0.14180  0.24540  0.33747  1.0000
  C   C20       1.0  0.15215  0.26695  0.34256  1.0000
  C   C21       1.0  0.14189  0.27826  0.34054  1.0000
  C   C22       1.0  0.12035  0.26712  0.33571  1.0000
  C   C23       1.0  0.10920  0.24559  0.33249  1.0000
  C   C24       1.0  0.12026  0.23511  0.33224  1.0000
  C   C25       1.0  0.15291  0.30019  0.34269  1.0000
  C   C26       1.0  0.15605  0.33278  0.39051  1.0000
  C   C27       1.0  0.14544  0.31133  0.38987  1.0000
  C   C28       1.0  0.15278  0.23443  0.33755  1.0000
  C   C29       1.0  0.15590  0.20477  0.38184  1.0000
  C   C30       1.0  0.14526  0.21557  0.38276  1.0000
  H   H11       1.0  0.14973  0.19111  0.41462  1.0000
  H   H12       1.0  0.13197  0.20954  0.41829  1.0000
  H   H13       1.0  0.13218  0.30393  0.42555  1.0000
  H   H14       1.0  0.14991  0.34014  0.42456  1.0000
  H   H15       1.0  0.11237  0.21957  0.32859  1.0000
  H   H16       1.0  0.11254  0.27486  0.33166  1.0000
  C   C31       1.0  0.10900  0.85148  0.33902  1.0000
  C   C32       1.0  0.12018  0.84110  0.34175  1.0000
  C   C33       1.0  0.14174  0.85138  0.33906  1.0000
  C   C34       1.0  0.15211  0.87292  0.33491  1.0000
  C   C35       1.0  0.14178  0.88415  0.33426  1.0000
  C   C36       1.0  0.12023  0.87303  0.33560  1.0000
  C   C37       1.0  0.15267  0.84038  0.34046  1.0000
  C   C38       1.0  0.14534  0.82164  0.29442  1.0000
  C   C39       1.0  0.15599  0.81085  0.29590  1.0000
  C   C40       1.0  0.15282  0.90603  0.33330  1.0000
  C   C41       1.0  0.14656  0.91731  0.27960  1.0000
  C   C42       1.0  0.15728  0.93876  0.28001  1.0000
  H   H17       1.0  0.13418  0.90999  0.23844  1.0000
  H   H18       1.0  0.15189  0.94613  0.24106  1.0000
  H   H19       1.0  0.14998  0.79729  0.26240  1.0000
  H   H20       1.0  0.13221  0.81571  0.25775  1.0000
  H   H21       1.0  0.11238  0.82561  0.34860  1.0000
  H   H22       1.0  0.11250  0.88087  0.33426  1.0000
  C   C43       1.0  0.20746  0.40962  0.34690  1.0000
  C   C44       1.0  0.20092  0.39857  0.26583  1.0000
  C   C45       1.0  0.19007  0.37701  0.26395  1.0000
  C   C46       1.0  0.18563  0.36586  0.34557  1.0000
  H   H23       1.0  0.20364  0.40628  0.20649  1.0000
  N   N3        1.0  0.18317  0.36652  0.18128  1.0000
  O   O5        1.0  0.19772  0.37056  0.12908  1.0000
  O   O6        1.0  0.17099  0.37068  0.14257  1.0000
  C   C47       1.0  0.20747  0.78575  0.34535  1.0000
  C   C48       1.0  0.20300  0.79228  0.26416  1.0000
  C   C49       1.0  0.19228  0.80312  0.26204  1.0000
  C   C50       1.0  0.18555  0.80758  0.34353  1.0000
  H   H24       1.0  0.20801  0.78955  0.20490  1.0000
  N   N4        1.0  0.18872  0.81001  0.17928  1.0000
  O   O7        1.0  0.17824  0.79545  0.12708  1.0000
  O   O8        1.0  0.20508  0.82218  0.14065  1.0000
  C   C51       1.0  0.19027  0.19529  0.25381  1.0000
  C   C52       1.0  0.20113  0.18458  0.25456  1.0000
  H   H25       1.0  0.20398  0.17988  0.19473  1.0000
  N   N5        1.0  0.18355  0.19928  0.17158  1.0000
  O   O9        1.0  0.17147  0.18313  0.13130  1.0000
  O   O10       1.0  0.19821  0.21005  0.12036  1.0000
  C   C53       1.0  0.19986  0.00483  0.25522  1.0000
  C   C54       1.0  0.18916  0.98326  0.25557  1.0000
  H   H26       1.0  0.18413  0.97582  0.19567  1.0000
  N   N6        1.0  0.20259  0.01565  0.17411  1.0000
  O   O11       1.0  0.18585  0.01162  0.13988  1.0000
  O   O12       1.0  0.19142  0.60586  0.17466  1.0000
  C   C55       1.0  0.17166  0.31162  0.29674  1.0000
  C   C56       1.0  0.18244  0.33306  0.29828  1.0000
  C   C57       1.0  0.17478  0.34404  0.34486  1.0000
  C   C58       1.0  0.17159  0.24199  0.29182  1.0000
  C   C59       1.0  0.18239  0.23134  0.29182  1.0000
  C   C60       1.0  0.17470  0.21249  0.33658  1.0000
  H   H27       1.0  0.19600  0.23753  0.25867  1.0000
  H   H28       1.0  0.17757  0.25530  0.25647  1.0000
  H   H29       1.0  0.19600  0.34063  0.26477  1.0000
  H   H30       1.0  0.17761  0.30445  0.26001  1.0000
  H   H31       1.0  0.16761  0.27462  0.35049  1.0000
  C   C61       1.0  0.17461  0.81846  0.34261  1.0000
  C   C62       1.0  0.18209  0.83719  0.38829  1.0000
  C   C63       1.0  0.17128  0.84782  0.38770  1.0000
  C   C64       1.0  0.17474  0.94997  0.33431  1.0000
  C   C65       1.0  0.18100  0.93867  0.38790  1.0000
  C   C66       1.0  0.17030  0.91724  0.38743  1.0000
  H   H32       1.0  0.17530  0.90986  0.42866  1.0000
  H   H33       1.0  0.19369  0.94598  0.42738  1.0000
  H   H34       1.0  0.17714  0.86106  0.42352  1.0000
  H   H35       1.0  0.19558  0.84330  0.42244  1.0000
  H   H36       1.0  0.16764  0.88069  0.32965  1.0000
  H   H37       1.0  0.19788  0.04094  0.42293  1.0000
  H   H38       1.0  0.20115  0.14771  0.43760  1.0000
  H   H39       1.0  0.20143  0.43510  0.45193  1.0000
  H   H40       1.0  0.20165  0.75416  0.24164  1.0000
  C   C67       1.0  0.19215  0.37676  0.42786  1.0000
  C   C68       1.0  0.20283  0.39832  0.42731  1.0000
  H   H41       1.0  0.20771  0.40586  0.48710  1.0000
  N   N7        1.0  0.18845  0.36601  0.50985  1.0000
  O   O13       1.0  0.20473  0.37010  0.54889  1.0000
  O   O14       1.0  0.17782  0.36985  0.56222  1.0000
  C   C69       1.0  0.18987  0.80106  0.42593  1.0000
  C   C70       1.0  0.20078  0.79039  0.42563  1.0000
  H   H42       1.0  0.20339  0.78551  0.48550  1.0000
  N   N8        1.0  0.18279  0.80477  0.50781  1.0000
  O   O15       1.0  0.17057  0.78848  0.54681  1.0000
  O   O16       1.0  0.19723  0.81540  0.56030  1.0000
  C   C71       1.0  0.20748  0.17966  0.33511  1.0000
  C   C72       1.0  0.20268  0.18595  0.41617  1.0000
  C   C73       1.0  0.19199  0.19682  0.41786  1.0000
  C   C74       1.0  0.18562  0.20157  0.33609  1.0000
  H   H43       1.0  0.20742  0.18300  0.47567  1.0000
  N   N9        1.0  0.18810  0.20347  0.50056  1.0000
  O   O17       1.0  0.20430  0.21549  0.54064  1.0000
  O   O18       1.0  0.17738  0.18876  0.55163  1.0000
  C   C75       1.0  0.18562  0.97185  0.33519  1.0000
  C   C76       1.0  0.19326  0.98293  0.41576  1.0000
  C   C77       1.0  0.20408  0.00449  0.41789  1.0000
  C   C78       1.0  0.20746  0.01567  0.33701  1.0000
  H   H44       1.0  0.19077  0.97526  0.47504  1.0000
  O   O19       1.0  0.19813  0.01089  0.55611  1.0000
  C   C79       1.0  0.58391  0.78575  0.34178  1.0000
  C   C80       1.0  0.59495  0.79331  0.26106  1.0000
  C   C81       1.0  0.61651  0.80417  0.25877  1.0000
  C   C82       1.0  0.62771  0.80769  0.33965  1.0000
  H   H45       1.0  0.58724  0.79070  0.20179  1.0000
  N   N10       1.0  0.62695  0.81197  0.17663  1.0000
  O   O20       1.0  0.62277  0.82456  0.14228  1.0000
  O   O21       1.0  0.62288  0.79803  0.12085  1.0000
  C   C83       1.0  0.79158  0.57783  0.34617  1.0000
  C   C84       1.0  0.79810  0.58889  0.26511  1.0000
  C   C85       1.0  0.80897  0.61045  0.26328  1.0000
  C   C86       1.0  0.81346  0.62158  0.34493  1.0000
  H   H46       1.0  0.79535  0.58118  0.20573  1.0000
  N   N11       1.0  0.81584  0.62096  0.18063  1.0000
  O   O22       1.0  0.80127  0.61694  0.12860  1.0000
  O   O23       1.0  0.82798  0.61678  0.14168  1.0000
  C   C87       1.0  0.41534  0.20174  0.34660  1.0000
  C   C88       1.0  0.40436  0.19728  0.26535  1.0000
  C   C89       1.0  0.38280  0.18661  0.26314  1.0000
  C   C90       1.0  0.37158  0.17989  0.34457  1.0000
  H   H47       1.0  0.41212  0.20230  0.20614  1.0000
  N   N12       1.0  0.37238  0.18308  0.18031  1.0000
  O   O24       1.0  0.37644  0.17259  0.12815  1.0000
  O   O25       1.0  0.37661  0.19945  0.14168  1.0000
  C   C91       1.0  0.79161  0.20147  0.34162  1.0000
  C   C92       1.0  0.79909  0.19796  0.26076  1.0000
  C   C93       1.0  0.80994  0.18725  0.25826  1.0000
  C   C94       1.0  0.81353  0.17959  0.33907  1.0000
  H   H48       1.0  0.79643  0.20303  0.20155  1.0000
  N   N13       1.0  0.81767  0.18457  0.17597  1.0000
  O   O26       1.0  0.83023  0.20133  0.14142  1.0000
  O   O27       1.0  0.80368  0.17469  0.12043  1.0000
  C   C95       1.0  0.79639  0.98322  0.25929  1.0000
  C   C96       1.0  0.80729  0.00479  0.26073  1.0000
  H   H49       1.0  0.81017  0.01243  0.20114  1.0000
  N   N14       1.0  0.78964  0.97264  0.17676  1.0000
  O   O28       1.0  0.80429  0.97658  0.12536  1.0000
  O   O29       1.0  0.77758  0.97681  0.13693  1.0000
  C   C97       1.0  0.98896  0.79377  0.25733  1.0000
  H   H50       1.0  0.98145  0.79139  0.19764  1.0000
  C   C98       1.0  0.81022  0.79353  0.26571  1.0000
  C   C99       1.0  0.79945  0.80432  0.26710  1.0000
  H   H51       1.0  0.79704  0.80947  0.20757  1.0000
  N   N15       1.0  0.81821  0.79088  0.18409  1.0000
  O   O30       1.0  0.83095  0.80765  0.15018  1.0000
  O   O31       1.0  0.80439  0.78109  0.12766  1.0000
  O   O32       1.0  0.21251  0.01182  0.11760  1.0000
  C   C100      1.0  0.98895  0.18643  0.24846  1.0000
  N   N16       1.0  0.97829  0.18271  0.16620  1.0000
  O   O33       1.0  0.98240  0.19898  0.12701  1.0000
  O   O34       1.0  0.98221  0.17209  0.11411  1.0000
  C   C101      1.0  0.21702  0.61224  0.26512  1.0000
  C   C102      1.0  0.21648  0.59333  0.26750  1.0000
  H   H52       1.0  0.21111  0.58404  0.21253  1.0000
  N   N17       1.0  0.20998  0.61799  0.18866  1.0000
  O   O35       1.0  0.21981  0.61882  0.11943  1.0000
  C   C103      1.0  0.38096  0.59259  0.26387  1.0000
  C   C104      1.0  0.39987  0.61096  0.26585  1.0000
  H   H53       1.0  0.40909  0.61486  0.21067  1.0000
  N   N18       1.0  0.37514  0.57974  0.18756  1.0000
  O   O36       1.0  0.38727  0.57331  0.17343  1.0000
  O   O37       1.0  0.37426  0.58871  0.11829  1.0000
  C   C105      1.0  0.40062  0.77630  0.26583  1.0000
  C   C106      1.0  0.38226  0.77685  0.26819  1.0000
  H   H54       1.0  0.37835  0.78224  0.21325  1.0000
  N   N19       1.0  0.41346  0.78340  0.18948  1.0000
  O   O38       1.0  0.41989  0.80197  0.17574  1.0000
  O   O39       1.0  0.40447  0.77362  0.12010  1.0000
  C   C107      1.0  0.78207  0.37521  0.26591  1.0000
  C   C108      1.0  0.78262  0.39413  0.26815  1.0000
  H   H55       1.0  0.78802  0.40342  0.21319  1.0000
  N   N20       1.0  0.78916  0.36946  0.18959  1.0000
  O   O40       1.0  0.80773  0.38159  0.17581  1.0000
  O   O41       1.0  0.77938  0.36865  0.12020  1.0000
  C   C109      1.0  0.61802  0.39474  0.26507  1.0000
  C   C110      1.0  0.59910  0.37638  0.26753  1.0000
  H   H56       1.0  0.58979  0.37246  0.21261  1.0000
  N   N21       1.0  0.62376  0.40753  0.18859  1.0000
  O   O42       1.0  0.61163  0.41397  0.17463  1.0000
  O   O43       1.0  0.62456  0.39851  0.11935  1.0000
  C   C111      1.0  0.59838  0.21128  0.26438  1.0000
  C   C112      1.0  0.61674  0.21073  0.26628  1.0000
  H   H57       1.0  0.62063  0.20539  0.21109  1.0000
  N   N22       1.0  0.58551  0.20424  0.18814  1.0000
  O   O44       1.0  0.57907  0.18568  0.17404  1.0000
  O   O45       1.0  0.59446  0.21408  0.11882  1.0000
  C   C113      1.0  0.74800  0.88453  0.34072  1.0000
  C   C114      1.0  0.72645  0.87325  0.33673  1.0000
  C   C115      1.0  0.71524  0.85169  0.33888  1.0000
  C   C116      1.0  0.72645  0.84135  0.34282  1.0000
  C   C117      1.0  0.74799  0.85177  0.34524  1.0000
  C   C118      1.0  0.75834  0.87333  0.34523  1.0000
  C   C119      1.0  0.69333  0.84076  0.33790  1.0000
  C   C120      1.0  0.68205  0.84776  0.38722  1.0000
  C   C121      1.0  0.66062  0.83705  0.38727  1.0000
  C   C122      1.0  0.64952  0.81871  0.33873  1.0000
  C   C123      1.0  0.66064  0.81158  0.28954  1.0000
  C   C124      1.0  0.68208  0.82243  0.28888  1.0000
  C   C125      1.0  0.75892  0.90646  0.34055  1.0000
  C   C126      1.0  0.75139  0.91773  0.38639  1.0000
  C   C127      1.0  0.76201  0.93917  0.38612  1.0000
  C   C128      1.0  0.78082  0.95033  0.34095  1.0000
  C   C129      1.0  0.78851  0.93923  0.29554  1.0000
  C   C130      1.0  0.77772  0.91779  0.29489  1.0000
  C   C131      1.0  0.75900  0.84091  0.34692  1.0000
  C   C132      1.0  0.77659  0.84718  0.29355  1.0000
  C   C133      1.0  0.78726  0.83641  0.29377  1.0000
  C   C134      1.0  0.78086  0.81883  0.34739  1.0000
  C   C135      1.0  0.76330  0.81259  0.40097  1.0000
  C   C136      1.0  0.75261  0.82335  0.40065  1.0000
  H   H58       1.0  0.75585  0.94661  0.41938  1.0000
  H   H59       1.0  0.73812  0.91041  0.42203  1.0000
  H   H60       1.0  0.80213  0.94672  0.26248  1.0000
  H   H61       1.0  0.78373  0.91052  0.25927  1.0000
  H   H62       1.0  0.78168  0.85957  0.25232  1.0000
  H   H63       1.0  0.80001  0.84177  0.25476  1.0000
  H   H64       1.0  0.74014  0.81829  0.44128  1.0000
  H   H65       1.0  0.75782  0.79982  0.43990  1.0000
  H   H66       1.0  0.68941  0.81683  0.25093  1.0000
  H   H67       1.0  0.65317  0.79830  0.25394  1.0000
  H   H68       1.0  0.65314  0.84277  0.42339  1.0000
  H   H69       1.0  0.68936  0.86067  0.42528  1.0000
  H   H70       1.0  0.71867  0.88096  0.32960  1.0000
  H   H71       1.0  0.77385  0.88107  0.35137  1.0000
  H   H72       1.0  0.71871  0.82579  0.34387  1.0000
  C   C137      1.0  0.85725  0.74199  0.34430  1.0000
  C   C138      1.0  0.84691  0.72042  0.34634  1.0000
  C   C139      1.0  0.85723  0.70918  0.34256  1.0000
  C   C140      1.0  0.87877  0.72040  0.33808  1.0000
  C   C141      1.0  0.88995  0.74195  0.33807  1.0000
  C   C142      1.0  0.87880  0.75235  0.34043  1.0000
  C   C143      1.0  0.84626  0.68725  0.34326  1.0000
  C   C144      1.0  0.82751  0.67590  0.29727  1.0000
  C   C145      1.0  0.81673  0.65446  0.29822  1.0000
  C   C146      1.0  0.82437  0.64341  0.34434  1.0000
  C   C147      1.0  0.84312  0.65460  0.38989  1.0000
  C   C148      1.0  0.85374  0.67604  0.38981  1.0000
  C   C149      1.0  0.84625  0.75289  0.34580  1.0000
  C   C150      1.0  0.82795  0.74592  0.29663  1.0000
  C   C151      1.0  0.81717  0.75658  0.29743  1.0000
  C   C152      1.0  0.82435  0.77481  0.34680  1.0000
  C   C153      1.0  0.84262  0.78190  0.39577  1.0000
  C   C154      1.0  0.85328  0.77112  0.39551  1.0000
  C   C155      1.0  0.91183  0.75284  0.33670  1.0000
  C   C156      1.0  0.92303  0.77042  0.28318  1.0000
  C   C157      1.0  0.94448  0.78117  0.28318  1.0000
  C   C158      1.0  0.95577  0.77490  0.33680  1.0000
  C   C159      1.0  0.94454  0.75729  0.39023  1.0000
  C   C160      1.0  0.92311  0.74653  0.39020  1.0000
  H   H73       1.0  0.80395  0.75089  0.26143  1.0000
  H   H74       1.0  0.82236  0.73307  0.25816  1.0000
  H   H75       1.0  0.84839  0.79510  0.43194  1.0000
  H   H76       1.0  0.86621  0.77668  0.43343  1.0000
  H   H77       1.0  0.91565  0.77550  0.24250  1.0000
  H   H78       1.0  0.95180  0.79396  0.24432  1.0000
  H   H79       1.0  0.91578  0.73413  0.43128  1.0000
  H   H80       1.0  0.95190  0.75190  0.42927  1.0000
  H   H81       1.0  0.86700  0.68339  0.42557  1.0000
  H   H82       1.0  0.84924  0.64718  0.42364  1.0000
  H   H83       1.0  0.80314  0.64694  0.26483  1.0000
  H   H84       1.0  0.82155  0.68314  0.26108  1.0000
  H   H85       1.0  0.83143  0.71269  0.35349  1.0000
  H   H86       1.0  0.88661  0.76792  0.33953  1.0000
  H   H87       1.0  0.88655  0.71267  0.33212  1.0000
  C   C161      1.0  0.25119  0.10320  0.33978  1.0000
  C   C162      1.0  0.27275  0.11447  0.34243  1.0000
  C   C163      1.0  0.28396  0.13604  0.33980  1.0000
  C   C164      1.0  0.27270  0.14634  0.33574  1.0000
  C   C165      1.0  0.25116  0.13587  0.33517  1.0000
  C   C166      1.0  0.24078  0.11433  0.33656  1.0000
  C   C167      1.0  0.30589  0.14702  0.34127  1.0000
  C   C168      1.0  0.31732  0.13973  0.29505  1.0000
  C   C169      1.0  0.33876  0.15037  0.29662  1.0000
  C   C170      1.0  0.34975  0.16896  0.34353  1.0000
  C   C171      1.0  0.33850  0.17642  0.38929  1.0000
  C   C172      1.0  0.31706  0.16561  0.38864  1.0000
  C   C173      1.0  0.24030  0.08129  0.33975  1.0000
  C   C174      1.0  0.24738  0.07012  0.29011  1.0000
  C   C175      1.0  0.23671  0.04868  0.28950  1.0000
  C   C176      1.0  0.21837  0.03748  0.33793  1.0000
  C   C177      1.0  0.21115  0.04849  0.38736  1.0000
  C   C178      1.0  0.22194  0.06993  0.38847  1.0000
  C   C179      1.0  0.24016  0.14670  0.33416  1.0000
  C   C180      1.0  0.22366  0.14139  0.39339  1.0000
  C   C181      1.0  0.21305  0.15221  0.39395  1.0000
  C   C182      1.0  0.21833  0.16868  0.33465  1.0000
  C   C183      1.0  0.23473  0.17391  0.27498  1.0000
  C   C184      1.0  0.24551  0.16324  0.27515  1.0000
  H   H88       1.0  0.24250  0.04127  0.25326  1.0000
  H   H89       1.0  0.26033  0.07751  0.25234  1.0000
  H   H90       1.0  0.21629  0.07719  0.42662  1.0000
  H   H91       1.0  0.21942  0.12973  0.43820  1.0000
  H   H92       1.0  0.25720  0.16752  0.23055  1.0000
  H   H93       1.0  0.23929  0.18587  0.23169  1.0000
  H   H94       1.0  0.30967  0.17143  0.42466  1.0000
  H   H95       1.0  0.34587  0.18989  0.42360  1.0000
  H   H96       1.0  0.34631  0.14438  0.26303  1.0000
  H   H97       1.0  0.31013  0.12662  0.25821  1.0000
  H   H98       1.0  0.28049  0.10672  0.34924  1.0000
  H   H99       1.0  0.22523  0.10659  0.33217  1.0000
  H   H100      1.0  0.28036  0.16190  0.33360  1.0000
  C   C185      1.0  0.89032  0.13610  0.33365  1.0000
  C   C186      1.0  0.87901  0.14637  0.33180  1.0000
  C   C187      1.0  0.85746  0.13600  0.33578  1.0000
  C   C188      1.0  0.84714  0.11446  0.33999  1.0000
  C   C189      1.0  0.85761  0.10339  0.34004  1.0000
  C   C190      1.0  0.87914  0.11455  0.33765  1.0000
  C   C191      1.0  0.84650  0.14696  0.33591  1.0000
  C   C192      1.0  0.85364  0.16528  0.38503  1.0000
  C   C193      1.0  0.84293  0.17602  0.38569  1.0000
  C   C194      1.0  0.82450  0.16876  0.33786  1.0000
  C   C195      1.0  0.81724  0.15046  0.28894  1.0000
  C   C196      1.0  0.82806  0.13984  0.28775  1.0000
  C   C197      1.0  0.91225  0.14713  0.33211  1.0000
  C   C198      1.0  0.92364  0.16586  0.37828  1.0000
  C   C199      1.0  0.94507  0.17665  0.37711  1.0000
  C   C200      1.0  0.95612  0.16904  0.33074  1.0000
  C   C201      1.0  0.94491  0.15033  0.28490  1.0000
  C   C202      1.0  0.92346  0.13970  0.28511  1.0000
  C   C203      1.0  0.84676  0.08156  0.34154  1.0000
  C   C204      1.0  0.85196  0.07031  0.28222  1.0000
  C   C205      1.0  0.84110  0.04887  0.28202  1.0000
  C   C206      1.0  0.82470  0.03775  0.34178  1.0000
  C   C207      1.0  0.81959  0.04900  0.40153  1.0000
  C   C208      1.0  0.83031  0.07045  0.40103  1.0000
  H   H101      1.0  0.95260  0.19020  0.41075  1.0000
  H   H102      1.0  0.91642  0.17178  0.41488  1.0000
  H   H103      1.0  0.95231  0.14421  0.25099  1.0000
  H   H104      1.0  0.91610  0.12646  0.24925  1.0000
  H   H105      1.0  0.86355  0.07765  0.23706  1.0000
  H   H106      1.0  0.84553  0.04142  0.23831  1.0000
  H   H107      1.0  0.82611  0.07791  0.44573  1.0000
  H   H108      1.0  0.80769  0.04165  0.44520  1.0000
  H   H109      1.0  0.82238  0.12689  0.24993  1.0000
  H   H110      1.0  0.80389  0.14464  0.25385  1.0000
  H   H111      1.0  0.84876  0.18926  0.42156  1.0000
  H   H112      1.0  0.86666  0.17092  0.42238  1.0000
  H   H113      1.0  0.88668  0.16186  0.32469  1.0000
  H   H114      1.0  0.88687  0.10673  0.34183  1.0000
  H   H115      1.0  0.83158  0.10659  0.34280  1.0000
  C   C209      1.0  0.24967  0.52906  0.33869  1.0000
  C   C210      1.0  0.23958  0.50764  0.34531  1.0000
  C   C211      1.0  0.25057  0.49703  0.34571  1.0000
  C   C212      1.0  0.27215  0.50855  0.34081  1.0000
  C   C213      1.0  0.28268  0.53004  0.33446  1.0000
  C   C214      1.0  0.27111  0.53994  0.33479  1.0000
  C   C215      1.0  0.24007  0.47523  0.34742  1.0000
  C   C216      1.0  0.22378  0.46399  0.40753  1.0000
  C   C217      1.0  0.21324  0.44255  0.40794  1.0000
  C   C218      1.0  0.21837  0.43143  0.34749  1.0000
  C   C219      1.0  0.23463  0.44267  0.28723  1.0000
  C   C220      1.0  0.24532  0.46411  0.28751  1.0000
  C   C221      1.0  0.23920  0.54018  0.33331  1.0000
  C   C222      1.0  0.22908  0.54219  0.40868  1.0000
  C   C223      1.0  0.22311  0.55706  0.41006  1.0000
  C   C224      1.0  0.22696  0.57024  0.33617  1.0000
  C   C225      1.0  0.23625  0.56744  0.25936  1.0000
  C   C226      1.0  0.24232  0.55272  0.25801  1.0000
  C   C227      1.0  0.30432  0.54203  0.32755  1.0000
  C   C228      1.0  0.31324  0.55790  0.26353  1.0000
  C   C229      1.0  0.33412  0.57221  0.26570  1.0000
  C   C230      1.0  0.34697  0.57090  0.33066  1.0000
  C   C231      1.0  0.33833  0.55447  0.39191  1.0000
  C   C232      1.0  0.31731  0.54021  0.39033  1.0000
  H   H116      1.0  0.21669  0.55876  0.46732  1.0000
  H   H117      1.0  0.22735  0.53392  0.46553  1.0000
  H   H118      1.0  0.24014  0.57711  0.20581  1.0000
  H   H119      1.0  0.25023  0.55213  0.20357  1.0000
  H   H120      1.0  0.30439  0.55985  0.21728  1.0000
  H   H121      1.0  0.33965  0.58421  0.22198  1.0000
  H   H122      1.0  0.31137  0.52927  0.43908  1.0000
  H   H123      1.0  0.34717  0.55329  0.44070  1.0000
  H   H124      1.0  0.25675  0.47154  0.24176  1.0000
  H   H125      1.0  0.23905  0.43532  0.24294  1.0000
  H   H126      1.0  0.21954  0.47136  0.45251  1.0000
  H   H127      1.0  0.22400  0.49969  0.34588  1.0000
  H   H128      1.0  0.27847  0.55553  0.33259  1.0000
  H   H129      1.0  0.28037  0.50120  0.34073  1.0000
  C   C233      1.0  0.46416  0.70845  0.33587  1.0000
  C   C234      1.0  0.48559  0.71977  0.34130  1.0000
  C   C235      1.0  0.49626  0.74139  0.34291  1.0000
  C   C236      1.0  0.48466  0.75141  0.33995  1.0000
  C   C237      1.0  0.46317  0.74047  0.33394  1.0000
  C   C238      1.0  0.45327  0.71900  0.33348  1.0000
  C   C239      1.0  0.51811  0.75270  0.34412  1.0000
  C   C240      1.0  0.52948  0.74662  0.39821  1.0000
  C   C241      1.0  0.55093  0.75742  0.39762  1.0000
  C   C242      1.0  0.56204  0.77482  0.34288  1.0000
  C   C243      1.0  0.55066  0.78094  0.28905  1.0000
  C   C244      1.0  0.52922  0.77014  0.28964  1.0000
  C   C245      1.0  0.45304  0.68687  0.33037  1.0000
  C   C246      1.0  0.45116  0.67476  0.40567  1.0000
  C   C247      1.0  0.43631  0.65392  0.40737  1.0000
  C   C248      1.0  0.42299  0.64457  0.33390  1.0000
  C   C249      1.0  0.42564  0.65664  0.25717  1.0000
  C   C250      1.0  0.44035  0.67743  0.25551  1.0000
  C   C251      1.0  0.45117  0.75012  0.32784  1.0000
  C   C252      1.0  0.43529  0.74325  0.26389  1.0000
  C   C253      1.0  0.42100  0.74984  0.26648  1.0000
  C   C254      1.0  0.42232  0.76392  0.33190  1.0000
  C   C255      1.0  0.43876  0.77164  0.39308  1.0000
  C   C256      1.0  0.45302  0.76487  0.39100  1.0000
  H   H130      1.0  0.43469  0.64582  0.46462  1.0000
  H   H131      1.0  0.45953  0.68132  0.46226  1.0000
  H   H132      1.0  0.41586  0.65083  0.20397  1.0000
  H   H133      1.0  0.44083  0.68592  0.20122  1.0000
  H   H134      1.0  0.43333  0.73253  0.21724  1.0000
  H   H135      1.0  0.40899  0.74343  0.22279  1.0000
  H   H136      1.0  0.46395  0.76979  0.43975  1.0000
  H   H137      1.0  0.43995  0.78159  0.44221  1.0000
  H   H138      1.0  0.52178  0.77498  0.24800  1.0000
  H   H139      1.0  0.55790  0.79356  0.24920  1.0000
  H   H140      1.0  0.55836  0.75213  0.43675  1.0000
  H   H141      1.0  0.52223  0.73425  0.43951  1.0000
  H   H142      1.0  0.49349  0.71209  0.34030  1.0000
  H   H143      1.0  0.43767  0.71077  0.33176  1.0000
  H   H144      1.0  0.49196  0.76697  0.34097  1.0000
  C   C257      1.0  0.28476  0.74359  0.33874  1.0000
  C   C258      1.0  0.27342  0.75368  0.34505  1.0000
  C   C259      1.0  0.25181  0.74268  0.34527  1.0000
  C   C260      1.0  0.24177  0.72110  0.34050  1.0000
  C   C261      1.0  0.25274  0.71058  0.33444  1.0000
  C   C262      1.0  0.27421  0.72215  0.33491  1.0000
  C   C263      1.0  0.24051  0.75317  0.34670  1.0000
  C   C264      1.0  0.24553  0.76948  0.40667  1.0000
  C   C265      1.0  0.23461  0.78000  0.40682  1.0000
  C   C266      1.0  0.21838  0.77485  0.34620  1.0000
  C   C267      1.0  0.21340  0.75858  0.28607  1.0000
  C   C268      1.0  0.22416  0.74790  0.28662  1.0000
  C   C269      1.0  0.30635  0.75407  0.33341  1.0000
  C   C270      1.0  0.31845  0.76417  0.40889  1.0000
  C   C271      1.0  0.33928  0.77012  0.41043  1.0000
  C   C272      1.0  0.34866  0.76632  0.33655  1.0000
  C   C273      1.0  0.33659  0.75707  0.25962  1.0000
  C   C274      1.0  0.31581  0.75099  0.25814  1.0000
  C   C275      1.0  0.24309  0.68893  0.32773  1.0000
  C   C276      1.0  0.25007  0.67999  0.26395  1.0000
  C   C277      1.0  0.24350  0.65911  0.26629  1.0000
  C   C278      1.0  0.22935  0.64629  0.33136  1.0000
  C   C279      1.0  0.22153  0.65495  0.39237  1.0000
  C   C280      1.0  0.22826  0.67597  0.39046  1.0000
  H   H145      1.0  0.34737  0.77647  0.46785  1.0000
  H   H146      1.0  0.31188  0.76582  0.46583  1.0000
  H   H147      1.0  0.34241  0.75321  0.20607  1.0000
  H   H148      1.0  0.30733  0.74310  0.20362  1.0000
  H   H149      1.0  0.26085  0.68882  0.21757  1.0000
  H   H150      1.0  0.24996  0.65355  0.22266  1.0000
  H   H151      1.0  0.22329  0.68193  0.43925  1.0000
  H   H152      1.0  0.21153  0.64614  0.44128  1.0000
  H   H153      1.0  0.22019  0.73646  0.24094  1.0000
  H   H154      1.0  0.23895  0.79183  0.45073  1.0000
  H   H155      1.0  0.25713  0.77374  0.45177  1.0000
  H   H156      1.0  0.28105  0.76926  0.34551  1.0000
  H   H157      1.0  0.28244  0.71480  0.33285  1.0000
  H   H158      1.0  0.22620  0.71288  0.34036  1.0000
  C   C281      1.0  0.74937  0.45838  0.33845  1.0000
  C   C282      1.0  0.75946  0.47980  0.34489  1.0000
  C   C283      1.0  0.74846  0.49041  0.34520  1.0000
  C   C284      1.0  0.72689  0.47888  0.34036  1.0000
  C   C285      1.0  0.71636  0.45740  0.33418  1.0000
  C   C286      1.0  0.72794  0.44750  0.33456  1.0000
  C   C287      1.0  0.75897  0.51222  0.34684  1.0000
  C   C288      1.0  0.77527  0.52346  0.40685  1.0000
  C   C289      1.0  0.78581  0.54490  0.40721  1.0000
  C   C290      1.0  0.78067  0.55602  0.34676  1.0000
  C   C291      1.0  0.76440  0.54477  0.28660  1.0000
  C   C292      1.0  0.75371  0.52333  0.28695  1.0000
  C   C293      1.0  0.75985  0.44727  0.33314  1.0000
  C   C294      1.0  0.76997  0.44529  0.40860  1.0000
  C   C295      1.0  0.77593  0.43042  0.41020  1.0000
  C   C296      1.0  0.77210  0.41721  0.33640  1.0000
  C   C297      1.0  0.76284  0.42001  0.25943  1.0000
  C   C298      1.0  0.75677  0.43472  0.25791  1.0000
  C   C299      1.0  0.69471  0.44539  0.32745  1.0000
  C   C300      1.0  0.68577  0.42949  0.26358  1.0000
  C   C301      1.0  0.66489  0.41515  0.26611  1.0000
  C   C302      1.0  0.65208  0.41647  0.33121  1.0000
  C   C303      1.0  0.66074  0.43296  0.39219  1.0000
  C   C304      1.0  0.68176  0.44724  0.39031  1.0000
  H   H159      1.0  0.78229  0.42869  0.46762  1.0000
  H   H160      1.0  0.77163  0.45352  0.46550  1.0000
  H   H161      1.0  0.75896  0.41031  0.20598  1.0000
  H   H162      1.0  0.74886  0.43529  0.20341  1.0000
  H   H163      1.0  0.69459  0.42752  0.21725  1.0000
  H   H164      1.0  0.65934  0.40314  0.22244  1.0000
  H   H165      1.0  0.68772  0.45817  0.43909  1.0000
  H   H166      1.0  0.65194  0.43413  0.44120  1.0000
  H   H167      1.0  0.74226  0.51589  0.24124  1.0000
  H   H168      1.0  0.75998  0.55212  0.24230  1.0000
  H   H169      1.0  0.79765  0.55236  0.45110  1.0000
  H   H170      1.0  0.77953  0.51609  0.45182  1.0000
  H   H171      1.0  0.77504  0.48775  0.34543  1.0000
  H   H172      1.0  0.72058  0.43191  0.33243  1.0000
  H   H173      1.0  0.71866  0.48623  0.34030  1.0000
  C   C305      1.0  0.53478  0.27897  0.33944  1.0000
  C   C306      1.0  0.51336  0.26763  0.34603  1.0000
  C   C307      1.0  0.50276  0.24602  0.34639  1.0000
  C   C308      1.0  0.51430  0.23598  0.34153  1.0000
  C   C309      1.0  0.53578  0.24695  0.33525  1.0000
  C   C310      1.0  0.54567  0.26842  0.33557  1.0000
  C   C311      1.0  0.48095  0.23471  0.34794  1.0000
  C   C312      1.0  0.46969  0.23975  0.40789  1.0000
  C   C313      1.0  0.44824  0.22885  0.40810  1.0000
  C   C314      1.0  0.43716  0.21262  0.34751  1.0000
  C   C315      1.0  0.44843  0.20761  0.28743  1.0000
  C   C316      1.0  0.46986  0.21835  0.28793  1.0000
  C   C317      1.0  0.54589  0.30055  0.33379  1.0000
  C   C318      1.0  0.54793  0.31270  0.40914  1.0000
  C   C319      1.0  0.56284  0.33353  0.41040  1.0000
  C   C320      1.0  0.57598  0.34285  0.33634  1.0000
  C   C321      1.0  0.57310  0.33072  0.25953  1.0000
  C   C322      1.0  0.55836  0.30995  0.25829  1.0000
  C   C323      1.0  0.54780  0.23732  0.32826  1.0000
  C   C324      1.0  0.56367  0.24429  0.26424  1.0000
  C   C325      1.0  0.57798  0.23772  0.26626  1.0000
  C   C326      1.0  0.57671  0.22360  0.33131  1.0000
  C   C327      1.0  0.56028  0.21578  0.39258  1.0000
  C   C328      1.0  0.54601  0.22253  0.39105  1.0000
  H   H174      1.0  0.56460  0.34166  0.46768  1.0000
  H   H175      1.0  0.53975  0.30617  0.46620  1.0000
  H   H176      1.0  0.58277  0.33649  0.20594  1.0000
  H   H177      1.0  0.55777  0.30142  0.20393  1.0000
  H   H178      1.0  0.56557  0.25505  0.21787  1.0000
  H   H179      1.0  0.58997  0.24420  0.22250  1.0000
  H   H180      1.0  0.53508  0.21752  0.43986  1.0000
  H   H181      1.0  0.55913  0.20579  0.44143  1.0000
  H   H182      1.0  0.47732  0.21436  0.24230  1.0000
  H   H183      1.0  0.44109  0.19585  0.24305  1.0000
  H   H184      1.0  0.44077  0.23322  0.45193  1.0000
  H   H185      1.0  0.47704  0.25136  0.45294  1.0000
  H   H186      1.0  0.50541  0.27525  0.34642  1.0000
  H   H187      1.0  0.56126  0.27666  0.33330  1.0000
  H   H188      1.0  0.50696  0.22041  0.34145  1.0000
  C   C329      1.0  0.71422  0.24382  0.33611  1.0000
  C   C330      1.0  0.72556  0.23373  0.34162  1.0000
  C   C331      1.0  0.74718  0.24469  0.34310  1.0000
  C   C332      1.0  0.75718  0.26630  0.34008  1.0000
  C   C333      1.0  0.74622  0.27684  0.33413  1.0000
  C   C334      1.0  0.72476  0.26526  0.33371  1.0000
  C   C335      1.0  0.75850  0.23416  0.34426  1.0000
  C   C336      1.0  0.75246  0.21673  0.39841  1.0000
  C   C337      1.0  0.76329  0.20612  0.39780  1.0000
  C   C338      1.0  0.78067  0.21240  0.34289  1.0000
  C   C339      1.0  0.78674  0.22989  0.28901  1.0000
  C   C340      1.0  0.77592  0.24050  0.28963  1.0000
  C   C341      1.0  0.69263  0.23334  0.33072  1.0000
  C   C342      1.0  0.68054  0.22317  0.40610  1.0000
  C   C343      1.0  0.65971  0.21723  0.40781  1.0000
  C   C344      1.0  0.65035  0.22116  0.33426  1.0000
  C   C345      1.0  0.66241  0.23051  0.25742  1.0000
  C   C346      1.0  0.68320  0.23657  0.25577  1.0000
  C   C347      1.0  0.75586  0.29850  0.32800  1.0000
  C   C348      1.0  0.74897  0.30751  0.26415  1.0000
  C   C349      1.0  0.75556  0.32839  0.26675  1.0000
  C   C350      1.0  0.76966  0.34115  0.33208  1.0000
  C   C351      1.0  0.77740  0.33243  0.39321  1.0000
  C   C352      1.0  0.77063  0.31139  0.39110  1.0000
  H   H189      1.0  0.65161  0.21076  0.46507  1.0000
  H   H190      1.0  0.68709  0.22136  0.46273  1.0000
  H   H191      1.0  0.65663  0.23453  0.20431  1.0000
  H   H192      1.0  0.69169  0.24460  0.20151  1.0000
  H   H193      1.0  0.73826  0.29873  0.21745  1.0000
  H   H194      1.0  0.74917  0.33399  0.22296  1.0000
  H   H195      1.0  0.77557  0.30540  0.43982  1.0000
  H   H196      1.0  0.78737  0.34119  0.44224  1.0000
  H   H197      1.0  0.78074  0.25277  0.24797  1.0000
  H   H198      1.0  0.79935  0.23527  0.24901  1.0000
  H   H199      1.0  0.75803  0.19339  0.43693  1.0000
  H   H200      1.0  0.74011  0.21161  0.43980  1.0000
  H   H201      1.0  0.71789  0.21815  0.34060  1.0000
  H   H202      1.0  0.71652  0.27262  0.33200  1.0000
  H   H203      1.0  0.77274  0.27458  0.34107  1.0000
  C   C353      1.0  0.61691  0.80016  0.42157  1.0000
  C   C354      1.0  0.59534  0.78941  0.42138  1.0000
  H   H204      1.0  0.58794  0.78445  0.48136  1.0000
  N   N23       1.0  0.62775  0.80298  0.50270  1.0000
  O   O46       1.0  0.62379  0.78629  0.53720  1.0000
  O   O47       1.0  0.62390  0.81292  0.55903  1.0000
  C   C355      1.0  0.80695  0.61068  0.42721  1.0000
  C   C356      1.0  0.79625  0.58912  0.42660  1.0000
  H   H205      1.0  0.79139  0.58158  0.48640  1.0000
  N   N24       1.0  0.81070  0.62142  0.50925  1.0000
  O   O48       1.0  0.79443  0.61735  0.54841  1.0000
  O   O49       1.0  0.82132  0.61756  0.56149  1.0000
  C   C357      1.0  0.38241  0.18420  0.42703  1.0000
  C   C358      1.0  0.40398  0.19506  0.42682  1.0000
  H   H206      1.0  0.41146  0.19768  0.48673  1.0000
  N   N25       1.0  0.37160  0.17713  0.50886  1.0000
  O   O50       1.0  0.37542  0.19157  0.56133  1.0000
  O   O51       1.0  0.37562  0.16489  0.54791  1.0000
  C   C359      1.0  0.80608  0.18291  0.42114  1.0000
  C   C360      1.0  0.79534  0.19373  0.42114  1.0000
  H   H207      1.0  0.79043  0.19619  0.48122  1.0000
  N   N26       1.0  0.80900  0.17493  0.50218  1.0000
  O   O52       1.0  0.79234  0.16222  0.53703  1.0000
  O   O53       1.0  0.81899  0.18874  0.55830  1.0000
  C   C361      1.0  0.81369  0.01592  0.34162  1.0000
  C   C362      1.0  0.80883  0.00471  0.42232  1.0000
  C   C363      1.0  0.79810  0.98314  0.42333  1.0000
  C   C364      1.0  0.79173  0.97216  0.34120  1.0000
  H   H208      1.0  0.81360  0.01230  0.48204  1.0000
  N   N27       1.0  0.79417  0.97247  0.50567  1.0000
  O   O54       1.0  0.78345  0.97641  0.55702  1.0000
  O   O55       1.0  0.81035  0.97655  0.54570  1.0000
  C   C365      1.0  0.97765  0.78591  0.33719  1.0000
  C   C366      1.0  0.98882  0.78932  0.41745  1.0000
  H   H209      1.0  0.98121  0.78414  0.47689  1.0000
  C   C367      1.0  0.79171  0.80780  0.34726  1.0000
  C   C368      1.0  0.79513  0.79996  0.42725  1.0000
  C   C369      1.0  0.80580  0.78906  0.42835  1.0000
  C   C370      1.0  0.81349  0.78577  0.34696  1.0000
  H   H210      1.0  0.79003  0.80240  0.48687  1.0000
  N   N28       1.0  0.80841  0.78100  0.50979  1.0000
  O   O56       1.0  0.79162  0.76832  0.54373  1.0000
  O   O57       1.0  0.81828  0.79477  0.56629  1.0000
  N   N29       1.0  0.21199  0.01498  0.49986  1.0000
  O   O58       1.0  0.22468  0.01086  0.53368  1.0000
  C   C371      1.0  0.98901  0.18438  0.41238  1.0000
  C   C372      1.0  0.97795  0.17990  0.33050  1.0000
  N   N30       1.0  0.97843  0.17747  0.49484  1.0000
  O   O59       1.0  0.98239  0.19202  0.54690  1.0000
  O   O60       1.0  0.98257  0.16531  0.53391  1.0000
  C   C373      1.0  0.22405  0.58746  0.34127  1.0000
  C   C374      1.0  0.23117  0.60066  0.41599  1.0000
  C   C375      1.0  0.23192  0.61969  0.41589  1.0000
  C   C376      1.0  0.22513  0.62576  0.33920  1.0000
  H   H211      1.0  0.23739  0.59720  0.46931  1.0000
  N   N31       1.0  0.24056  0.63319  0.48948  1.0000
  O   O61       1.0  0.25887  0.63821  0.50190  1.0000
  O   O62       1.0  0.23079  0.62551  0.56048  1.0000
  C   C377      1.0  0.40579  0.62445  0.33946  1.0000
  C   C378      1.0  0.39267  0.61840  0.41445  1.0000
  C   C379      1.0  0.37365  0.60012  0.41474  1.0000
  C   C380      1.0  0.36750  0.58721  0.33820  1.0000
  H   H212      1.0  0.39619  0.62812  0.46766  1.0000
  N   N32       1.0  0.36022  0.59531  0.48856  1.0000
  O   O63       1.0  0.35520  0.60859  0.50103  1.0000
  O   O64       1.0  0.36797  0.59326  0.55946  1.0000
  C   C381      1.0  0.36878  0.76921  0.34181  1.0000
  C   C382      1.0  0.37482  0.76203  0.41642  1.0000
  C   C383      1.0  0.39312  0.76131  0.41644  1.0000
  C   C384      1.0  0.40601  0.76814  0.33985  1.0000
  H   H213      1.0  0.36514  0.75582  0.46972  1.0000
  N   N33       1.0  0.39795  0.75264  0.48997  1.0000
  O   O65       1.0  0.38468  0.73433  0.50222  1.0000
  O   O66       1.0  0.40001  0.76238  0.56105  1.0000
  C   C385      1.0  0.77499  0.39998  0.34174  1.0000
  C   C386      1.0  0.76783  0.38679  0.41647  1.0000
  C   C387      1.0  0.76710  0.36777  0.41654  1.0000
  C   C388      1.0  0.77392  0.36169  0.33998  1.0000
  H   H214      1.0  0.76162  0.39027  0.46972  1.0000
  N   N34       1.0  0.75844  0.35429  0.49015  1.0000
  O   O67       1.0  0.74013  0.34925  0.50244  1.0000
  O   O68       1.0  0.76820  0.36198  0.56119  1.0000
  C   C389      1.0  0.59325  0.36295  0.34132  1.0000
  C   C390      1.0  0.60645  0.36904  0.41601  1.0000
  C   C391      1.0  0.62549  0.38731  0.41581  1.0000
  C   C392      1.0  0.63155  0.40016  0.33910  1.0000
  H   H215      1.0  0.60300  0.35937  0.46934  1.0000
  N   N35       1.0  0.63900  0.39216  0.48936  1.0000
  O   O69       1.0  0.64402  0.37888  0.50179  1.0000
  O   O70       1.0  0.63133  0.39428  0.56039  1.0000
  C   C393      1.0  0.63025  0.21830  0.33982  1.0000
  C   C394      1.0  0.62423  0.22538  0.41487  1.0000
  C   C395      1.0  0.60595  0.22614  0.41523  1.0000
  C   C396      1.0  0.59302  0.21937  0.33875  1.0000
  H   H216      1.0  0.63395  0.23158  0.46805  1.0000
  N   N36       1.0  0.60116  0.23476  0.48909  1.0000
  O   O71       1.0  0.61445  0.25306  0.50154  1.0000
  O   O72       1.0  0.59911  0.22496  0.55997  1.0000
