data_image0
_chemical_formula_structural       C2H2C2H2C2H2C2H2C5H3CH3C5H3CH3C5H3CH3C5H3CH3C5H3CH3C5H3CH3C5H3CH3C5H3CH3C2H2C2H2C2H2C2H2C5H3CH3C5H3CH3C5H3CH3C5H3CH3C2H2C2H2C2H2C2H2C5H3CH3C5H3CH3C2H2C2H2C2H2C2H2C5H3CH3C5H3CH3C5H3CH3C5H3CH3C5H3CH3C5H3CH3C5H3CH3C5H3CH3C2H2C2H2C2H2C2H2CNCNCNCNCNCNCNCNCNCNCNCNCNCNCNCNCNCNCNCNCNCNCNCNCNCNCNCNCNCNCNCNCNCNCNCNCNCNCNCNCNCNCNCNCNCNCNCNCNCNCNCNCNCNCNCNCNCNCNCNCNCNCNCNCNCNCNCNCNCNCNCNCNCNCNCNCNCNCNCNCNCNCNCNC5H3CH3C5H3CH3C5H3CH3C5H3CH3C2H2C2H2C2H2C2H2C2H2C2H2C2H2C2H2C5H3CH3C5H3CH3C5H3CH3C5H3CH3C2H2C2H2C2H2C2H2C5H3CH3C5H3CH3C5H3CH3C5H3CH3C2H2C2H2C5H3CH3C5H3CH3C5H3CH3C5H3CH3C2H2C2H2C2H2C2H2C2H2C2H2C2H2C2H2C5H3CH3C5H3CH3C5H3CH3C5H3CH3
_chemical_formula_sum              "C420 H336 N84"
_cell_length_a       51.5288
_cell_length_b       51.5288
_cell_length_c       14.817
_cell_angle_alpha    90
_cell_angle_beta     90
_cell_angle_gamma    90

_space_group_name_H-M_alt    "P 1"
_space_group_IT_number       1

loop_
  _space_group_symop_operation_xyz
  'x, y, z'

loop_
  _atom_site_type_symbol
  _atom_site_label
  _atom_site_symmetry_multiplicity
  _atom_site_fract_x
  _atom_site_fract_y
  _atom_site_fract_z
  _atom_site_occupancy
  C   C1        1.0  0.14533  0.16050  0.29522  1.0000
  C   C2        1.0  0.12635  0.14119  0.29131  1.0000
  H   H1        1.0  0.11504  0.13999  0.23451  1.0000
  H   H2        1.0  0.14731  0.17264  0.24084  1.0000
  C   C3        1.0  0.86712  0.85174  0.29526  1.0000
  C   C4        1.0  0.88613  0.87101  0.29137  1.0000
  H   H3        1.0  0.89743  0.87222  0.23453  1.0000
  H   H4        1.0  0.86511  0.83962  0.24084  1.0000
  C   C5        1.0  0.85191  0.14517  0.29492  1.0000
  C   C6        1.0  0.87120  0.12617  0.29111  1.0000
  H   H5        1.0  0.87242  0.11486  0.23432  1.0000
  H   H6        1.0  0.83979  0.14715  0.24049  1.0000
  C   C7        1.0  0.16061  0.86698  0.29546  1.0000
  C   C8        1.0  0.14132  0.88598  0.29150  1.0000
  H   H7        1.0  0.14012  0.89727  0.23466  1.0000
  H   H8        1.0  0.17275  0.86497  0.24107  1.0000
  C   C9        1.0  0.09868  0.97853  0.33532  1.0000
  C   C10       1.0  0.09862  0.03338  0.33497  1.0000
  C   C11       1.0  0.10675  0.01985  0.25583  1.0000
  C   C12       1.0  0.10677  0.99200  0.25600  1.0000
  C   C13       1.0  0.11394  0.03438  0.17185  1.0000
  H   H9        1.0  0.11348  0.05540  0.17902  1.0000
  H   H10       1.0  0.10059  0.02940  0.11741  1.0000
  H   H11       1.0  0.13365  0.02930  0.15155  1.0000
  C   C14       1.0  0.11399  0.97738  0.17223  1.0000
  H   H12       1.0  0.11363  0.95637  0.17975  1.0000
  H   H13       1.0  0.13367  0.98252  0.15178  1.0000
  H   H14       1.0  0.10060  0.98224  0.11777  1.0000
  C   C15       1.0  0.91385  0.03366  0.33526  1.0000
  C   C16       1.0  0.91382  0.97880  0.33501  1.0000
  C   C17       1.0  0.90571  0.99235  0.25585  1.0000
  C   C18       1.0  0.90573  0.02019  0.25598  1.0000
  C   C19       1.0  0.89850  0.97781  0.17191  1.0000
  H   H15       1.0  0.89892  0.95679  0.17913  1.0000
  H   H16       1.0  0.91186  0.98276  0.11745  1.0000
  H   H17       1.0  0.87881  0.98292  0.15160  1.0000
  C   C20       1.0  0.89851  0.03480  0.17220  1.0000
  H   H18       1.0  0.89891  0.05582  0.17966  1.0000
  H   H19       1.0  0.87882  0.02969  0.15182  1.0000
  H   H20       1.0  0.91188  0.02992  0.11770  1.0000
  C   C21       1.0  0.03384  0.09856  0.33526  1.0000
  C   C22       1.0  0.97899  0.09848  0.33495  1.0000
  C   C23       1.0  0.99251  0.10663  0.25583  1.0000
  C   C24       1.0  0.02036  0.10665  0.25598  1.0000
  C   C25       1.0  0.97797  0.11383  0.17188  1.0000
  H   H21       1.0  0.95695  0.11336  0.17906  1.0000
  H   H22       1.0  0.98296  0.10049  0.11740  1.0000
  H   H23       1.0  0.98304  0.13354  0.15164  1.0000
  C   C26       1.0  0.03496  0.11390  0.17221  1.0000
  H   H24       1.0  0.05598  0.11354  0.17970  1.0000
  H   H25       1.0  0.02982  0.13358  0.15182  1.0000
  H   H26       1.0  0.03011  0.10052  0.11772  1.0000
  C   C27       1.0  0.97868  0.91369  0.33522  1.0000
  C   C28       1.0  0.03352  0.91373  0.33503  1.0000
  C   C29       1.0  0.02001  0.90560  0.25585  1.0000
  C   C30       1.0  0.99216  0.90559  0.25595  1.0000
  C   C31       1.0  0.03456  0.89841  0.17192  1.0000
  H   H27       1.0  0.05558  0.89886  0.17915  1.0000
  H   H28       1.0  0.02960  0.91176  0.11746  1.0000
  H   H29       1.0  0.02948  0.87871  0.15162  1.0000
  C   C32       1.0  0.97757  0.89836  0.17215  1.0000
  H   H30       1.0  0.95655  0.89873  0.17960  1.0000
  H   H31       1.0  0.98270  0.87868  0.15175  1.0000
  H   H32       1.0  0.98244  0.91174  0.11767  1.0000
  C   C33       1.0  0.16716  0.30430  0.33577  1.0000
  C   C34       1.0  0.18533  0.25180  0.33151  1.0000
  C   C35       1.0  0.16762  0.26080  0.26392  1.0000
  C   C36       1.0  0.15848  0.28720  0.26600  1.0000
  C   C37       1.0  0.15955  0.24321  0.18823  1.0000
  H   H33       1.0  0.16897  0.22432  0.18843  1.0000
  H   H34       1.0  0.16440  0.25196  0.12339  1.0000
  H   H35       1.0  0.13865  0.23990  0.19125  1.0000
  C   C38       1.0  0.14086  0.29678  0.19267  1.0000
  H   H36       1.0  0.13510  0.31697  0.19895  1.0000
  H   H37       1.0  0.12307  0.28530  0.19187  1.0000
  H   H38       1.0  0.15046  0.29505  0.12735  1.0000
  C   C39       1.0  0.84533  0.70800  0.33540  1.0000
  C   C40       1.0  0.82709  0.76048  0.33129  1.0000
  C   C41       1.0  0.84480  0.75152  0.26366  1.0000
  C   C42       1.0  0.85398  0.72513  0.26565  1.0000
  C   C43       1.0  0.85284  0.76914  0.18801  1.0000
  H   H39       1.0  0.84338  0.78801  0.18826  1.0000
  H   H40       1.0  0.84800  0.76039  0.12315  1.0000
  H   H41       1.0  0.87373  0.77248  0.19100  1.0000
  C   C44       1.0  0.87160  0.71559  0.19227  1.0000
  H   H42       1.0  0.87739  0.69540  0.19851  1.0000
  H   H43       1.0  0.88938  0.72710  0.19146  1.0000
  H   H44       1.0  0.86199  0.71731  0.12697  1.0000
  C   C45       1.0  0.70816  0.16694  0.33518  1.0000
  C   C46       1.0  0.76062  0.18519  0.33092  1.0000
  C   C47       1.0  0.75166  0.16750  0.26326  1.0000
  C   C48       1.0  0.72526  0.15832  0.26532  1.0000
  C   C49       1.0  0.76925  0.15948  0.18754  1.0000
  H   H45       1.0  0.78813  0.16893  0.18778  1.0000
  H   H46       1.0  0.76050  0.16434  0.12272  1.0000
  H   H47       1.0  0.77259  0.13858  0.19046  1.0000
  C   C50       1.0  0.71570  0.14072  0.19192  1.0000
  H   H48       1.0  0.69552  0.13492  0.19822  1.0000
  H   H49       1.0  0.72722  0.12295  0.19100  1.0000
  H   H50       1.0  0.71740  0.15035  0.12664  1.0000
  C   C51       1.0  0.30442  0.84515  0.33617  1.0000
  C   C52       1.0  0.25191  0.82698  0.33195  1.0000
  C   C53       1.0  0.26090  0.84468  0.26434  1.0000
  C   C54       1.0  0.28731  0.85382  0.26640  1.0000
  C   C55       1.0  0.24332  0.85275  0.18865  1.0000
  H   H51       1.0  0.22443  0.84333  0.18886  1.0000
  H   H52       1.0  0.25206  0.84790  0.12381  1.0000
  H   H53       1.0  0.24000  0.87365  0.19165  1.0000
  C   C56       1.0  0.29689  0.87144  0.19305  1.0000
  H   H54       1.0  0.31708  0.87720  0.19930  1.0000
  H   H55       1.0  0.28541  0.88923  0.19225  1.0000
  H   H56       1.0  0.29515  0.86184  0.12774  1.0000
  C   C57       1.0  0.83108  0.29334  0.28746  1.0000
  C   C58       1.0  0.82201  0.26777  0.29216  1.0000
  H   H57       1.0  0.81185  0.26054  0.23829  1.0000
  H   H58       1.0  0.82661  0.30402  0.23117  1.0000
  C   C59       1.0  0.18157  0.71876  0.28875  1.0000
  C   C60       1.0  0.19062  0.74435  0.29341  1.0000
  H   H59       1.0  0.20083  0.75156  0.23962  1.0000
  H   H60       1.0  0.18611  0.70807  0.23258  1.0000
  C   C61       1.0  0.29348  0.18133  0.28779  1.0000
  C   C62       1.0  0.26791  0.19042  0.29258  1.0000
  H   H61       1.0  0.26069  0.20062  0.23876  1.0000
  H   H62       1.0  0.30415  0.18581  0.23150  1.0000
  C   C63       1.0  0.71891  0.83086  0.28836  1.0000
  C   C64       1.0  0.74449  0.82181  0.29302  1.0000
  H   H63       1.0  0.75171  0.81162  0.23917  1.0000
  H   H64       1.0  0.70822  0.82635  0.23214  1.0000
  C   C65       1.0  0.37783  0.10673  0.32985  1.0000
  C   C66       1.0  0.39789  0.05413  0.33395  1.0000
  C   C67       1.0  0.37865  0.06144  0.26890  1.0000
  C   C68       1.0  0.36878  0.08769  0.26654  1.0000
  C   C69       1.0  0.36956  0.04227  0.19955  1.0000
  H   H65       1.0  0.37812  0.02309  0.20489  1.0000
  H   H66       1.0  0.37435  0.04918  0.13203  1.0000
  H   H67       1.0  0.34858  0.03979  0.20481  1.0000
  C   C70       1.0  0.35005  0.09536  0.19363  1.0000
  H   H68       1.0  0.34543  0.11593  0.19143  1.0000
  H   H69       1.0  0.33186  0.08480  0.20219  1.0000
  H   H70       1.0  0.35813  0.09088  0.12743  1.0000
  C   C71       1.0  0.63445  0.90531  0.33002  1.0000
  C   C72       1.0  0.61423  0.95787  0.33335  1.0000
  C   C73       1.0  0.63357  0.95055  0.26864  1.0000
  C   C74       1.0  0.64350  0.92432  0.26664  1.0000
  C   C75       1.0  0.64270  0.96970  0.19928  1.0000
  H   H71       1.0  0.63404  0.98884  0.20416  1.0000
  H   H72       1.0  0.63808  0.96270  0.13172  1.0000
  H   H73       1.0  0.66366  0.97228  0.20500  1.0000
  C   C76       1.0  0.66232  0.91665  0.19402  1.0000
  H   H74       1.0  0.66700  0.89609  0.19206  1.0000
  H   H75       1.0  0.68048  0.92726  0.20270  1.0000
  H   H76       1.0  0.65430  0.92104  0.12769  1.0000
  C   C77       1.0  0.90562  0.37770  0.32974  1.0000
  C   C78       1.0  0.95821  0.39779  0.33378  1.0000
  C   C79       1.0  0.95091  0.37854  0.26876  1.0000
  C   C80       1.0  0.92466  0.36866  0.26642  1.0000
  C   C81       1.0  0.97008  0.36944  0.19943  1.0000
  H   H77       1.0  0.98926  0.37801  0.20475  1.0000
  H   H78       1.0  0.96317  0.37422  0.13190  1.0000
  H   H79       1.0  0.97257  0.34847  0.20472  1.0000
  C   C82       1.0  0.91700  0.34993  0.19351  1.0000
  H   H80       1.0  0.89643  0.34531  0.19131  1.0000
  H   H81       1.0  0.92756  0.33174  0.20209  1.0000
  H   H82       1.0  0.92147  0.35800  0.12732  1.0000
  C   C83       1.0  0.10704  0.63433  0.33017  1.0000
  C   C84       1.0  0.05448  0.61412  0.33342  1.0000
  C   C85       1.0  0.06179  0.63348  0.26879  1.0000
  C   C86       1.0  0.08803  0.64341  0.26682  1.0000
  C   C87       1.0  0.04265  0.64263  0.19946  1.0000
  H   H83       1.0  0.02351  0.63395  0.20429  1.0000
  H   H84       1.0  0.04965  0.63803  0.13188  1.0000
  H   H85       1.0  0.04006  0.66358  0.20524  1.0000
  C   C88       1.0  0.09570  0.66225  0.19427  1.0000
  H   H86       1.0  0.11626  0.66693  0.19232  1.0000
  H   H87       1.0  0.08508  0.68040  0.20300  1.0000
  H   H88       1.0  0.09131  0.65424  0.12791  1.0000
  C   C89       1.0  0.61545  0.09946  0.29776  1.0000
  C   C90       1.0  0.60556  0.07406  0.29583  1.0000
  H   H89       1.0  0.59201  0.06982  0.24746  1.0000
  H   H90       1.0  0.60882  0.11237  0.25046  1.0000
  C   C91       1.0  0.39722  0.91251  0.29827  1.0000
  C   C92       1.0  0.40713  0.93791  0.29619  1.0000
  H   H91       1.0  0.42064  0.94214  0.24763  1.0000
  H   H92       1.0  0.40379  0.89959  0.25093  1.0000
  C   C93       1.0  0.09982  0.39713  0.29812  1.0000
  C   C94       1.0  0.07443  0.40704  0.29606  1.0000
  H   H93       1.0  0.07019  0.42055  0.24753  1.0000
  H   H94       1.0  0.11274  0.40370  0.25079  1.0000
  C   C95       1.0  0.91286  0.61533  0.29787  1.0000
  C   C96       1.0  0.93827  0.60545  0.29591  1.0000
  H   H95       1.0  0.94251  0.59190  0.24752  1.0000
  H   H96       1.0  0.89996  0.60870  0.25058  1.0000
  C   C97       1.0  0.53410  0.00642  0.32515  1.0000
  C   C98       1.0  0.47842  0.00621  0.32411  1.0000
  C   C99       1.0  0.49236  0.01956  0.25457  1.0000
  C   C100      1.0  0.52032  0.01985  0.25550  1.0000
  C   C101      1.0  0.47815  0.03224  0.17791  1.0000
  H   H97       1.0  0.45726  0.02932  0.17828  1.0000
  H   H98       1.0  0.48478  0.02435  0.11367  1.0000
  H   H99       1.0  0.48168  0.05312  0.17889  1.0000
  C   C102      1.0  0.53479  0.03327  0.18096  1.0000
  H   H100      1.0  0.55579  0.03166  0.18489  1.0000
  H   H101      1.0  0.53006  0.05391  0.18107  1.0000
  H   H102      1.0  0.52944  0.02497  0.11589  1.0000
  C   C103      1.0  0.00591  0.53400  0.32517  1.0000
  C   C104      1.0  0.00613  0.47832  0.32408  1.0000
  C   C105      1.0  0.99278  0.49227  0.25454  1.0000
  C   C106      1.0  0.99250  0.52022  0.25550  1.0000
  C   C107      1.0  0.98011  0.47806  0.17785  1.0000
  H   H103      1.0  0.98303  0.45717  0.17820  1.0000
  H   H104      1.0  0.98800  0.48470  0.11363  1.0000
  H   H105      1.0  0.95923  0.48159  0.17882  1.0000
  C   C108      1.0  0.97908  0.53470  0.18096  1.0000
  H   H106      1.0  0.98069  0.55570  0.18491  1.0000
  H   H107      1.0  0.95843  0.52997  0.18105  1.0000
  H   H108      1.0  0.98738  0.52936  0.11589  1.0000
  C   C109      1.0  0.22227  0.38206  0.28602  1.0000
  C   C110      1.0  0.24788  0.39115  0.29035  1.0000
  H   H109      1.0  0.26050  0.38574  0.24031  1.0000
  H   H110      1.0  0.21756  0.37000  0.23351  1.0000
  C   C111      1.0  0.79037  0.63014  0.28554  1.0000
  C   C112      1.0  0.76478  0.62100  0.28987  1.0000
  H   H111      1.0  0.75214  0.62640  0.23986  1.0000
  H   H112      1.0  0.79505  0.64223  0.23307  1.0000
  C   C113      1.0  0.63035  0.22196  0.28542  1.0000
  C   C114      1.0  0.62124  0.24755  0.28975  1.0000
  H   H113      1.0  0.62665  0.26019  0.23974  1.0000
  H   H114      1.0  0.64243  0.21726  0.23294  1.0000
  C   C115      1.0  0.38220  0.79006  0.28637  1.0000
  C   C116      1.0  0.39133  0.76447  0.29064  1.0000
  H   H115      1.0  0.38591  0.75184  0.24063  1.0000
  H   H116      1.0  0.37010  0.79476  0.23394  1.0000
  C   C117      1.0  0.80955  0.38816  0.33922  1.0000
  C   C118      1.0  0.75664  0.40654  0.33103  1.0000
  C   C119      1.0  0.77436  0.41192  0.25884  1.0000
  C   C120      1.0  0.80088  0.40297  0.26326  1.0000
  C   C121      1.0  0.76496  0.42544  0.17545  1.0000
  H   H117      1.0  0.74416  0.42866  0.17377  1.0000
  H   H118      1.0  0.76925  0.41385  0.11570  1.0000
  H   H119      1.0  0.77447  0.44428  0.16922  1.0000
  C   C122      1.0  0.81881  0.40814  0.18559  1.0000
  H   H120      1.0  0.83864  0.40168  0.19571  1.0000
  H   H121      1.0  0.81978  0.42895  0.17253  1.0000
  H   H122      1.0  0.81175  0.39828  0.12525  1.0000
  C   C123      1.0  0.20312  0.62399  0.33997  1.0000
  C   C124      1.0  0.25599  0.60553  0.33176  1.0000
  C   C125      1.0  0.23826  0.60018  0.25957  1.0000
  C   C126      1.0  0.21175  0.60917  0.26399  1.0000
  C   C127      1.0  0.24764  0.58666  0.17615  1.0000
  H   H123      1.0  0.26843  0.58339  0.17449  1.0000
  H   H124      1.0  0.24338  0.59827  0.11643  1.0000
  H   H125      1.0  0.23809  0.56784  0.16987  1.0000
  C   C128      1.0  0.19383  0.60405  0.18628  1.0000
  H   H126      1.0  0.17402  0.61057  0.19633  1.0000
  H   H127      1.0  0.19280  0.58324  0.17323  1.0000
  H   H128      1.0  0.20093  0.61389  0.12595  1.0000
  C   C129      1.0  0.38830  0.20281  0.33921  1.0000
  C   C130      1.0  0.40679  0.25566  0.33112  1.0000
  C   C131      1.0  0.41217  0.23794  0.25895  1.0000
  C   C132      1.0  0.40317  0.21143  0.26332  1.0000
  C   C133      1.0  0.42572  0.24731  0.17560  1.0000
  H   H129      1.0  0.42897  0.26811  0.17392  1.0000
  H   H130      1.0  0.41414  0.24304  0.11581  1.0000
  H   H131      1.0  0.44455  0.23778  0.16945  1.0000
  C   C134      1.0  0.40833  0.19350  0.18568  1.0000
  H   H132      1.0  0.40183  0.17368  0.19575  1.0000
  H   H133      1.0  0.42915  0.19248  0.17273  1.0000
  H   H134      1.0  0.39852  0.20058  0.12529  1.0000
  C   C135      1.0  0.62415  0.80922  0.33976  1.0000
  C   C136      1.0  0.60576  0.75633  0.33154  1.0000
  C   C137      1.0  0.60038  0.77405  0.25936  1.0000
  C   C138      1.0  0.60933  0.80057  0.26378  1.0000
  C   C139      1.0  0.58687  0.76465  0.17595  1.0000
  H   H135      1.0  0.58365  0.74385  0.17427  1.0000
  H   H136      1.0  0.59846  0.76894  0.11621  1.0000
  H   H137      1.0  0.56803  0.77416  0.16971  1.0000
  C   C140      1.0  0.60418  0.81849  0.18611  1.0000
  H   H138      1.0  0.61065  0.83832  0.19620  1.0000
  H   H139      1.0  0.58336  0.81948  0.17307  1.0000
  H   H140      1.0  0.61402  0.81142  0.12577  1.0000
  C   C141      1.0  0.31640  0.53399  0.32631  1.0000
  C   C142      1.0  0.31617  0.47819  0.33127  1.0000
  C   C143      1.0  0.30831  0.49155  0.25118  1.0000
  C   C144      1.0  0.30886  0.51947  0.24829  1.0000
  C   C145      1.0  0.29965  0.47658  0.16970  1.0000
  H   H141      1.0  0.30020  0.45559  0.17773  1.0000
  H   H142      1.0  0.31219  0.48098  0.11244  1.0000
  H   H143      1.0  0.27972  0.48182  0.15275  1.0000
  C   C146      1.0  0.30207  0.53332  0.16254  1.0000
  H   H144      1.0  0.30546  0.55415  0.16484  1.0000
  H   H145      1.0  0.28165  0.53018  0.14643  1.0000
  H   H146      1.0  0.31398  0.52613  0.10709  1.0000
  C   C147      1.0  0.69626  0.47807  0.32582  1.0000
  C   C148      1.0  0.69655  0.53387  0.33089  1.0000
  C   C149      1.0  0.70437  0.52052  0.25073  1.0000
  C   C150      1.0  0.70379  0.49260  0.24779  1.0000
  C   C151      1.0  0.71301  0.53549  0.16924  1.0000
  H   H147      1.0  0.71249  0.55648  0.17731  1.0000
  H   H148      1.0  0.70044  0.53111  0.11203  1.0000
  H   H149      1.0  0.73293  0.53023  0.15219  1.0000
  C   C152      1.0  0.71054  0.47875  0.16199  1.0000
  H   H150      1.0  0.70713  0.45792  0.16428  1.0000
  H   H151      1.0  0.73096  0.48188  0.14580  1.0000
  H   H152      1.0  0.69861  0.48596  0.10660  1.0000
  C   C153      1.0  0.47835  0.31605  0.32583  1.0000
  C   C154      1.0  0.53415  0.31580  0.33079  1.0000
  C   C155      1.0  0.52079  0.30797  0.25065  1.0000
  C   C156      1.0  0.49287  0.30853  0.24777  1.0000
  C   C157      1.0  0.53575  0.29934  0.16913  1.0000
  H   H153      1.0  0.55674  0.29987  0.17717  1.0000
  H   H154      1.0  0.53135  0.31190  0.11192  1.0000
  H   H155      1.0  0.53050  0.27941  0.15210  1.0000
  C   C158      1.0  0.47901  0.30177  0.16199  1.0000
  H   H156      1.0  0.45818  0.30516  0.16432  1.0000
  H   H157      1.0  0.48215  0.28135  0.14580  1.0000
  H   H158      1.0  0.48621  0.31370  0.10659  1.0000
  C   C159      1.0  0.53425  0.69592  0.32624  1.0000
  C   C160      1.0  0.47846  0.69623  0.33139  1.0000
  C   C161      1.0  0.49181  0.70406  0.25122  1.0000
  C   C162      1.0  0.51972  0.70348  0.24825  1.0000
  C   C163      1.0  0.47683  0.71273  0.16978  1.0000
  H   H159      1.0  0.45584  0.71222  0.17788  1.0000
  H   H160      1.0  0.48120  0.70019  0.11252  1.0000
  H   H161      1.0  0.48209  0.73266  0.15280  1.0000
  C   C164      1.0  0.53356  0.71024  0.16245  1.0000
  H   H162      1.0  0.55439  0.70683  0.16470  1.0000
  H   H163      1.0  0.53045  0.73067  0.14635  1.0000
  H   H164      1.0  0.52634  0.69834  0.10703  1.0000
  C   C165      1.0  0.34783  0.36725  0.30466  1.0000
  C   C166      1.0  0.36700  0.34785  0.30343  1.0000
  H   H165      1.0  0.36501  0.33318  0.25726  1.0000
  H   H166      1.0  0.33284  0.36568  0.25955  1.0000
  C   C167      1.0  0.66481  0.64480  0.30457  1.0000
  C   C168      1.0  0.64562  0.66418  0.30345  1.0000
  H   H167      1.0  0.64758  0.67886  0.25730  1.0000
  H   H168      1.0  0.67979  0.64639  0.25942  1.0000
  C   C169      1.0  0.64509  0.34753  0.30434  1.0000
  C   C170      1.0  0.66448  0.36671  0.30318  1.0000
  H   H169      1.0  0.67916  0.36473  0.25703  1.0000
  H   H170      1.0  0.64667  0.33254  0.25921  1.0000
  C   C171      1.0  0.36753  0.66452  0.30496  1.0000
  C   C172      1.0  0.34814  0.64534  0.30380  1.0000
  H   H171      1.0  0.33348  0.64731  0.25763  1.0000
  H   H172      1.0  0.36596  0.67950  0.25982  1.0000
  C   C173      1.0  0.06045  0.09247  0.33638  1.0000
  N   N1        1.0  0.07905  0.11089  0.34578  1.0000
  C   C174      1.0  0.10449  0.10397  0.35033  1.0000
  N   N2        1.0  0.11126  0.07850  0.34543  1.0000
  C   C175      1.0  0.09272  0.06002  0.33603  1.0000
  N   N3        1.0  0.06743  0.06715  0.33260  1.0000
  C   C176      1.0  0.95206  0.91975  0.33634  1.0000
  N   N4        1.0  0.93348  0.90131  0.34578  1.0000
  C   C177      1.0  0.90804  0.90821  0.35039  1.0000
  N   N5        1.0  0.90124  0.93368  0.34551  1.0000
  C   C178      1.0  0.91976  0.95217  0.33607  1.0000
  N   N6        1.0  0.94505  0.94506  0.33258  1.0000
  C   C179      1.0  0.91991  0.06027  0.33642  1.0000
  N   N7        1.0  0.90148  0.07886  0.34575  1.0000
  C   C180      1.0  0.90840  0.10430  0.35027  1.0000
  N   N8        1.0  0.93387  0.11109  0.34539  1.0000
  C   C181      1.0  0.95235  0.09255  0.33604  1.0000
  N   N9        1.0  0.94524  0.06726  0.33264  1.0000
  C   C182      1.0  0.09261  0.95192  0.33650  1.0000
  N   N10       1.0  0.11103  0.93332  0.34591  1.0000
  C   C183      1.0  0.10411  0.90788  0.35047  1.0000
  N   N11       1.0  0.07864  0.90111  0.34557  1.0000
  C   C184      1.0  0.06016  0.91965  0.33617  1.0000
  N   N12       1.0  0.06729  0.94493  0.33270  1.0000
  C   C185      1.0  0.22595  0.19340  0.36395  1.0000
  N   N13       1.0  0.21891  0.21857  0.34902  1.0000
  C   C186      1.0  0.19345  0.22557  0.34136  1.0000
  N   N14       1.0  0.17506  0.20691  0.35046  1.0000
  C   C187      1.0  0.18148  0.18174  0.36521  1.0000
  N   N15       1.0  0.20696  0.17521  0.37091  1.0000
  C   C188      1.0  0.78648  0.81888  0.36420  1.0000
  N   N16       1.0  0.79351  0.79370  0.34913  1.0000
  C   C189      1.0  0.81897  0.78671  0.34133  1.0000
  N   N17       1.0  0.83737  0.80536  0.35043  1.0000
  C   C190      1.0  0.83096  0.83052  0.36532  1.0000
  N   N18       1.0  0.80549  0.83706  0.37115  1.0000
  C   C191      1.0  0.81903  0.22580  0.36349  1.0000
  N   N19       1.0  0.79385  0.21877  0.34854  1.0000
  C   C192      1.0  0.78685  0.19331  0.34090  1.0000
  N   N20       1.0  0.80551  0.17492  0.35001  1.0000
  C   C193      1.0  0.83067  0.18133  0.36482  1.0000
  N   N21       1.0  0.83721  0.20681  0.37053  1.0000
  C   C194      1.0  0.19349  0.78636  0.36451  1.0000
  N   N22       1.0  0.21867  0.79340  0.34959  1.0000
  C   C195      1.0  0.22567  0.81886  0.34182  1.0000
  N   N23       1.0  0.20701  0.83725  0.35083  1.0000
  C   C196      1.0  0.18184  0.83083  0.36559  1.0000
  N   N24       1.0  0.17530  0.80536  0.37139  1.0000
  C   C197      1.0  0.41105  0.98254  0.34951  1.0000
  N   N25       1.0  0.39809  0.00580  0.34658  1.0000
  C   C198      1.0  0.41059  0.02920  0.33844  1.0000
  N   N26       1.0  0.43695  0.02858  0.33246  1.0000
  C   C199      1.0  0.45079  0.00611  0.33288  1.0000
  N   N27       1.0  0.43740  0.98350  0.34192  1.0000
  C   C200      1.0  0.60158  0.02951  0.34972  1.0000
  N   N28       1.0  0.61433  0.00614  0.34623  1.0000
  C   C201      1.0  0.60162  0.98285  0.33797  1.0000
  N   N29       1.0  0.57523  0.98364  0.33250  1.0000
  C   C202      1.0  0.56166  0.00626  0.33409  1.0000
  N   N30       1.0  0.57521  0.02876  0.34295  1.0000
  C   C203      1.0  0.02980  0.41095  0.34936  1.0000
  N   N31       1.0  0.00654  0.39798  0.34643  1.0000
  C   C204      1.0  0.98314  0.41049  0.33829  1.0000
  N   N32       1.0  0.98376  0.43685  0.33236  1.0000
  C   C205      1.0  0.00622  0.45069  0.33281  1.0000
  N   N33       1.0  0.02883  0.43730  0.34184  1.0000
  C   C206      1.0  0.98283  0.60147  0.34973  1.0000
  N   N34       1.0  0.00620  0.61423  0.34628  1.0000
  C   C207      1.0  0.02949  0.60152  0.33805  1.0000
  N   N35       1.0  0.02870  0.57513  0.33255  1.0000
  C   C208      1.0  0.00607  0.56156  0.33413  1.0000
  N   N36       1.0  0.98358  0.57511  0.34298  1.0000
  C   C209      1.0  0.32825  0.40739  0.35904  1.0000
  N   N37       1.0  0.33247  0.43351  0.34946  1.0000
  C   C210      1.0  0.31252  0.45094  0.34435  1.0000
  N   N38       1.0  0.28782  0.44172  0.34852  1.0000
  C   C211      1.0  0.28254  0.41603  0.35805  1.0000
  N   N39       1.0  0.30299  0.39923  0.36183  1.0000
  C   C212      1.0  0.68444  0.60466  0.35878  1.0000
  N   N40       1.0  0.68024  0.57854  0.34918  1.0000
  C   C213      1.0  0.70020  0.56113  0.34394  1.0000
  N   N41       1.0  0.72490  0.57036  0.34802  1.0000
  C   C214      1.0  0.73016  0.59605  0.35757  1.0000
  N   N42       1.0  0.70970  0.61284  0.36148  1.0000
  C   C215      1.0  0.60494  0.32791  0.35857  1.0000
  N   N43       1.0  0.57882  0.33212  0.34899  1.0000
  C   C216      1.0  0.56140  0.31217  0.34377  1.0000
  N   N44       1.0  0.57063  0.28747  0.34790  1.0000
  C   C217      1.0  0.59632  0.28219  0.35744  1.0000
  N   N45       1.0  0.61311  0.30266  0.36131  1.0000
  C   C218      1.0  0.40767  0.68413  0.35925  1.0000
  N   N46       1.0  0.43379  0.67992  0.34964  1.0000
  C   C219      1.0  0.45121  0.69987  0.34446  1.0000
  N   N47       1.0  0.44198  0.72457  0.34863  1.0000
  C   C220      1.0  0.41629  0.72984  0.35821  1.0000
  N   N48       1.0  0.39950  0.70938  0.36205  1.0000
  C   C221      1.0  0.68472  0.40709  0.35279  1.0000
  N   N49       1.0  0.68043  0.43325  0.34541  1.0000
  C   C222      1.0  0.70020  0.45065  0.33432  1.0000
  N   N50       1.0  0.72486  0.44126  0.32956  1.0000
  C   C223      1.0  0.73029  0.41547  0.33532  1.0000
  N   N51       1.0  0.70993  0.39886  0.34719  1.0000
  C   C224      1.0  0.32790  0.60497  0.35344  1.0000
  N   N52       1.0  0.33220  0.57881  0.34599  1.0000
  C   C225      1.0  0.31243  0.56141  0.33489  1.0000
  N   N53       1.0  0.28777  0.57080  0.33018  1.0000
  C   C226      1.0  0.28233  0.59658  0.33600  1.0000
  N   N54       1.0  0.30270  0.61319  0.34788  1.0000
  C   C227      1.0  0.40737  0.32758  0.35294  1.0000
  N   N55       1.0  0.43353  0.33187  0.34553  1.0000
  C   C228      1.0  0.45093  0.31210  0.33437  1.0000
  N   N56       1.0  0.44153  0.28744  0.32961  1.0000
  C   C229      1.0  0.41575  0.28201  0.33542  1.0000
  N   N57       1.0  0.39914  0.30238  0.34734  1.0000
  C   C230      1.0  0.60525  0.68440  0.35314  1.0000
  N   N58       1.0  0.57909  0.68011  0.34577  1.0000
  C   C231      1.0  0.56167  0.69987  0.33473  1.0000
  N   N59       1.0  0.57106  0.72453  0.33003  1.0000
  C   C232      1.0  0.59684  0.72998  0.33579  1.0000
  N   N60       1.0  0.61346  0.70961  0.34760  1.0000
  C   C233      1.0  0.17963  0.37403  0.34877  1.0000
  N   N61       1.0  0.15490  0.38373  0.35372  1.0000
  C   C234      1.0  0.13342  0.36796  0.35367  1.0000
  N   N62       1.0  0.13740  0.34181  0.34643  1.0000
  C   C235      1.0  0.16163  0.33139  0.34016  1.0000
  N   N63       1.0  0.18206  0.34790  0.34253  1.0000
  C   C236      1.0  0.83300  0.63825  0.34829  1.0000
  N   N64       1.0  0.85776  0.62861  0.35331  1.0000
  C   C237      1.0  0.87920  0.64443  0.35332  1.0000
  N   N65       1.0  0.87517  0.67056  0.34607  1.0000
  C   C238      1.0  0.85091  0.68093  0.33973  1.0000
  N   N66       1.0  0.83052  0.66438  0.34207  1.0000
  C   C239      1.0  0.63843  0.17932  0.34820  1.0000
  N   N67       1.0  0.62876  0.15457  0.35319  1.0000
  C   C240      1.0  0.64457  0.13312  0.35316  1.0000
  N   N68       1.0  0.67070  0.13713  0.34589  1.0000
  C   C241      1.0  0.68108  0.16138  0.33953  1.0000
  N   N69       1.0  0.66455  0.18178  0.34191  1.0000
  C   C242      1.0  0.37415  0.83270  0.34917  1.0000
  N   N70       1.0  0.38384  0.85743  0.35400  1.0000
  C   C243      1.0  0.36807  0.87891  0.35391  1.0000
  N   N71       1.0  0.34192  0.87492  0.34674  1.0000
  C   C244      1.0  0.33151  0.85069  0.34059  1.0000
  N   N72       1.0  0.34802  0.83027  0.34296  1.0000
  C   C245      1.0  0.83337  0.37371  0.34256  1.0000
  N   N73       1.0  0.85807  0.38348  0.33733  1.0000
  C   C246      1.0  0.87957  0.36773  0.33738  1.0000
  N   N74       1.0  0.87562  0.34160  0.34497  1.0000
  C   C247      1.0  0.85138  0.33122  0.35086  1.0000
  N   N75       1.0  0.83085  0.34757  0.34877  1.0000
  C   C248      1.0  0.17928  0.63841  0.34346  1.0000
  N   N76       1.0  0.15459  0.62863  0.33806  1.0000
  C   C249      1.0  0.13307  0.64435  0.33818  1.0000
  N   N77       1.0  0.13700  0.67048  0.34596  1.0000
  C   C250      1.0  0.16122  0.68088  0.35204  1.0000
  N   N78       1.0  0.18177  0.66454  0.34987  1.0000
  C   C251      1.0  0.37385  0.17899  0.34255  1.0000
  N   N79       1.0  0.38361  0.15428  0.33737  1.0000
  C   C252      1.0  0.36786  0.13278  0.33748  1.0000
  N   N80       1.0  0.34173  0.13674  0.34510  1.0000
  C   C253      1.0  0.33136  0.16098  0.35100  1.0000
  N   N81       1.0  0.34771  0.18151  0.34885  1.0000
  C   C254      1.0  0.63856  0.83306  0.34317  1.0000
  N   N82       1.0  0.62876  0.85775  0.33786  1.0000
  C   C255      1.0  0.64447  0.87928  0.33800  1.0000
  N   N83       1.0  0.67060  0.87537  0.34574  1.0000
  C   C256      1.0  0.68102  0.85115  0.35174  1.0000
  N   N84       1.0  0.66470  0.83059  0.34958  1.0000
  C   C257      1.0  0.16189  0.16260  0.37061  1.0000
  C   C258      1.0  0.12363  0.12317  0.36214  1.0000
  C   C259      1.0  0.13961  0.12514  0.44059  1.0000
  C   C260      1.0  0.15870  0.14537  0.44533  1.0000
  C   C261      1.0  0.13604  0.10705  0.51899  1.0000
  H   H173      1.0  0.12100  0.09249  0.50972  1.0000
  H   H174      1.0  0.13059  0.11798  0.57908  1.0000
  H   H175      1.0  0.15412  0.09669  0.53212  1.0000
  C   C262      1.0  0.17421  0.14896  0.52996  1.0000
  H   H176      1.0  0.18594  0.16644  0.53046  1.0000
  H   H177      1.0  0.18712  0.13240  0.53970  1.0000
  H   H178      1.0  0.16138  0.15066  0.58818  1.0000
  C   C263      1.0  0.85057  0.84964  0.37069  1.0000
  C   C264      1.0  0.88889  0.88901  0.36225  1.0000
  C   C265      1.0  0.87293  0.88704  0.44073  1.0000
  C   C266      1.0  0.85381  0.86685  0.44546  1.0000
  C   C267      1.0  0.87654  0.90512  0.51917  1.0000
  H   H179      1.0  0.89160  0.91966  0.50989  1.0000
  H   H180      1.0  0.88198  0.89417  0.57922  1.0000
  H   H181      1.0  0.85847  0.91550  0.53235  1.0000
  C   C268      1.0  0.83831  0.86325  0.53013  1.0000
  H   H182      1.0  0.82656  0.84579  0.53061  1.0000
  H   H183      1.0  0.82543  0.87983  0.53997  1.0000
  H   H184      1.0  0.85116  0.86152  0.58831  1.0000
  C   C269      1.0  0.84979  0.16173  0.37030  1.0000
  C   C270      1.0  0.88920  0.12345  0.36202  1.0000
  C   C271      1.0  0.88721  0.13943  0.44045  1.0000
  C   C272      1.0  0.86700  0.15854  0.44509  1.0000
  C   C273      1.0  0.90529  0.13586  0.51890  1.0000
  H   H185      1.0  0.91984  0.12081  0.50970  1.0000
  H   H186      1.0  0.89434  0.13042  0.57897  1.0000
  H   H187      1.0  0.91565  0.15393  0.53204  1.0000
  C   C274      1.0  0.86339  0.17405  0.52969  1.0000
  H   H188      1.0  0.84592  0.18579  0.53012  1.0000
  H   H189      1.0  0.87996  0.18695  0.53949  1.0000
  H   H190      1.0  0.86167  0.16123  0.58792  1.0000
  C   C275      1.0  0.16271  0.85044  0.37090  1.0000
  C   C276      1.0  0.12331  0.88873  0.36234  1.0000
  C   C277      1.0  0.12528  0.87278  0.44084  1.0000
  C   C278      1.0  0.14548  0.85367  0.44563  1.0000
  C   C279      1.0  0.10719  0.87638  0.51924  1.0000
  H   H191      1.0  0.09264  0.89143  0.50992  1.0000
  H   H192      1.0  0.11812  0.88185  0.57931  1.0000
  H   H193      1.0  0.09682  0.85831  0.53245  1.0000
  C   C280      1.0  0.14908  0.83819  0.53033  1.0000
  H   H194      1.0  0.16656  0.82645  0.53086  1.0000
  H   H195      1.0  0.13251  0.82530  0.54016  1.0000
  H   H196      1.0  0.15079  0.85105  0.58850  1.0000
  C   C281      1.0  0.09178  0.99245  0.41356  1.0000
  C   C282      1.0  0.09177  0.01953  0.41340  1.0000
  H   H197      1.0  0.08524  0.02899  0.46992  1.0000
  H   H198      1.0  0.08524  0.98305  0.47017  1.0000
  C   C283      1.0  0.92076  0.01974  0.41348  1.0000
  C   C284      1.0  0.92074  0.99266  0.41335  1.0000
  H   H199      1.0  0.92728  0.98320  0.46985  1.0000
  H   H200      1.0  0.92734  0.02914  0.47005  1.0000
  C   C285      1.0  0.01993  0.09162  0.41346  1.0000
  C   C286      1.0  0.99285  0.09160  0.41333  1.0000
  H   H201      1.0  0.98340  0.08504  0.46983  1.0000
  H   H202      1.0  0.02934  0.08505  0.47003  1.0000
  C   C287      1.0  0.99258  0.92061  0.41348  1.0000
  C   C288      1.0  0.01966  0.92061  0.41340  1.0000
  H   H203      1.0  0.02910  0.92715  0.46993  1.0000
  H   H204      1.0  0.98316  0.92717  0.47004  1.0000
  C   C289      1.0  0.18485  0.29481  0.40073  1.0000
  C   C290      1.0  0.19373  0.26918  0.39880  1.0000
  H   H205      1.0  0.20605  0.26319  0.44900  1.0000
  H   H206      1.0  0.19152  0.30658  0.45145  1.0000
  C   C291      1.0  0.82764  0.71746  0.40042  1.0000
  C   C292      1.0  0.81872  0.74308  0.39857  1.0000
  H   H207      1.0  0.80642  0.74904  0.44883  1.0000
  H   H208      1.0  0.82100  0.70567  0.45113  1.0000
  C   C293      1.0  0.71763  0.18463  0.40018  1.0000
  C   C294      1.0  0.74325  0.19355  0.39826  1.0000
  H   H209      1.0  0.74922  0.20585  0.44853  1.0000
  H   H210      1.0  0.70585  0.19127  0.45094  1.0000
  C   C295      1.0  0.29492  0.82746  0.40114  1.0000
  C   C296      1.0  0.26929  0.81858  0.39922  1.0000
  H   H211      1.0  0.26331  0.80627  0.44944  1.0000
  H   H212      1.0  0.30670  0.82079  0.45186  1.0000
  C   C297      1.0  0.84611  0.30422  0.35761  1.0000
  C   C298      1.0  0.82702  0.25221  0.36840  1.0000
  C   C299      1.0  0.84144  0.26299  0.44195  1.0000
  C   C300      1.0  0.85150  0.28897  0.43592  1.0000
  C   C301      1.0  0.84480  0.24786  0.52753  1.0000
  H   H213      1.0  0.83331  0.23021  0.53012  1.0000
  H   H214      1.0  0.83855  0.25931  0.58547  1.0000
  H   H215      1.0  0.86517  0.24259  0.53609  1.0000
  C   C302      1.0  0.86661  0.30014  0.51319  1.0000
  H   H216      1.0  0.87451  0.31937  0.50088  1.0000
  H   H217      1.0  0.88307  0.28758  0.52884  1.0000
  H   H218      1.0  0.85423  0.30171  0.57262  1.0000
  C   C303      1.0  0.16648  0.70790  0.35876  1.0000
  C   C304      1.0  0.18550  0.75995  0.36947  1.0000
  C   C305      1.0  0.17101  0.74918  0.44290  1.0000
  C   C306      1.0  0.16099  0.72318  0.43689  1.0000
  C   C307      1.0  0.16755  0.76435  0.52834  1.0000
  H   H219      1.0  0.17902  0.78201  0.53099  1.0000
  H   H220      1.0  0.17374  0.75294  0.58644  1.0000
  H   H221      1.0  0.14716  0.76961  0.53659  1.0000
  C   C308      1.0  0.14581  0.71204  0.51404  1.0000
  H   H222      1.0  0.13795  0.69280  0.50175  1.0000
  H   H223      1.0  0.12932  0.72458  0.52940  1.0000
  H   H224      1.0  0.15813  0.71051  0.57364  1.0000
  C   C309      1.0  0.30436  0.16625  0.35781  1.0000
  C   C310      1.0  0.25236  0.18539  0.36881  1.0000
  C   C311      1.0  0.26313  0.17092  0.44225  1.0000
  C   C312      1.0  0.28911  0.16086  0.43613  1.0000
  C   C313      1.0  0.24801  0.16754  0.52783  1.0000
  H   H225      1.0  0.23036  0.17904  0.53050  1.0000
  H   H226      1.0  0.25947  0.17376  0.58580  1.0000
  H   H227      1.0  0.24273  0.14717  0.53630  1.0000
  C   C314      1.0  0.30027  0.14570  0.51332  1.0000
  H   H228      1.0  0.31950  0.13780  0.50095  1.0000
  H   H229      1.0  0.28771  0.12925  0.52891  1.0000
  H   H230      1.0  0.30186  0.15807  0.57281  1.0000
  C   C315      1.0  0.70803  0.84591  0.35846  1.0000
  C   C316      1.0  0.76007  0.82687  0.36916  1.0000
  C   C317      1.0  0.74930  0.84133  0.44265  1.0000
  C   C318      1.0  0.72331  0.85135  0.43666  1.0000
  C   C319      1.0  0.76446  0.84475  0.52814  1.0000
  H   H231      1.0  0.78212  0.83327  0.53074  1.0000
  H   H232      1.0  0.75304  0.83852  0.58618  1.0000
  H   H233      1.0  0.76971  0.86513  0.53654  1.0000
  C   C320      1.0  0.71215  0.86649  0.51388  1.0000
  H   H234      1.0  0.69291  0.87436  0.50158  1.0000
  H   H235      1.0  0.72469  0.88297  0.52938  1.0000
  H   H236      1.0  0.71060  0.85414  0.57339  1.0000
  C   C321      1.0  0.39724  0.09910  0.39155  1.0000
  C   C322      1.0  0.40702  0.07364  0.39321  1.0000
  H   H237      1.0  0.42097  0.06936  0.44018  1.0000
  H   H238      1.0  0.40423  0.11206  0.43802  1.0000
  C   C323      1.0  0.61492  0.91293  0.39133  1.0000
  C   C324      1.0  0.60508  0.93837  0.39262  1.0000
  H   H239      1.0  0.59108  0.94266  0.43944  1.0000
  H   H240      1.0  0.60791  0.90000  0.43783  1.0000
  C   C325      1.0  0.91325  0.39712  0.39144  1.0000
  C   C326      1.0  0.93871  0.40690  0.39309  1.0000
  H   H241      1.0  0.94298  0.42085  0.44006  1.0000
  H   H242      1.0  0.90029  0.40410  0.43793  1.0000
  C   C327      1.0  0.09941  0.61481  0.39145  1.0000
  C   C328      1.0  0.07397  0.60497  0.39272  1.0000
  H   H243      1.0  0.06968  0.59097  0.43951  1.0000
  H   H244      1.0  0.11234  0.60779  0.43796  1.0000
  C   C329      1.0  0.63456  0.10707  0.36056  1.0000
  C   C330      1.0  0.61408  0.05457  0.35638  1.0000
  C   C331      1.0  0.63304  0.06189  0.42247  1.0000
  C   C332      1.0  0.64319  0.08805  0.42465  1.0000
  C   C333      1.0  0.64154  0.04284  0.49311  1.0000
  H   H245      1.0  0.63243  0.02391  0.48901  1.0000
  H   H246      1.0  0.63687  0.05021  0.56015  1.0000
  H   H247      1.0  0.66245  0.03978  0.48830  1.0000
  C   C334      1.0  0.66179  0.09566  0.49799  1.0000
  H   H248      1.0  0.66690  0.11612  0.49918  1.0000
  H   H249      1.0  0.67977  0.08465  0.49095  1.0000
  H   H250      1.0  0.65335  0.09170  0.56403  1.0000
  C   C335      1.0  0.37812  0.90495  0.36119  1.0000
  C   C336      1.0  0.39867  0.95743  0.35670  1.0000
  C   C337      1.0  0.37979  0.95012  0.42310  1.0000
  C   C338      1.0  0.36958  0.92397  0.42535  1.0000
  C   C339      1.0  0.37143  0.96915  0.49401  1.0000
  H   H251      1.0  0.38068  0.98802  0.49017  1.0000
  H   H252      1.0  0.37605  0.96169  0.56095  1.0000
  H   H253      1.0  0.35054  0.97235  0.48928  1.0000
  C   C340      1.0  0.35100  0.91640  0.49882  1.0000
  H   H254      1.0  0.34579  0.89597  0.49988  1.0000
  H   H255      1.0  0.33307  0.92750  0.49205  1.0000
  H   H256      1.0  0.35952  0.92027  0.56481  1.0000
  C   C341      1.0  0.10739  0.37801  0.36100  1.0000
  C   C342      1.0  0.05491  0.39857  0.35658  1.0000
  C   C343      1.0  0.06222  0.37967  0.42292  1.0000
  C   C344      1.0  0.08836  0.36946  0.42515  1.0000
  C   C345      1.0  0.04318  0.37130  0.49380  1.0000
  H   H257      1.0  0.02432  0.38056  0.49000  1.0000
  H   H258      1.0  0.05065  0.37590  0.56076  1.0000
  H   H259      1.0  0.03997  0.35041  0.48900  1.0000
  C   C346      1.0  0.09593  0.35086  0.49855  1.0000
  H   H260      1.0  0.11636  0.34565  0.49960  1.0000
  H   H261      1.0  0.08482  0.33294  0.49173  1.0000
  H   H262      1.0  0.09206  0.35936  0.56457  1.0000
  C   C347      1.0  0.90525  0.63443  0.36069  1.0000
  C   C348      1.0  0.95776  0.61397  0.35644  1.0000
  C   C349      1.0  0.95045  0.63293  0.42253  1.0000
  C   C350      1.0  0.92427  0.64306  0.42475  1.0000
  C   C351      1.0  0.96949  0.64143  0.49316  1.0000
  H   H263      1.0  0.98843  0.63233  0.48904  1.0000
  H   H264      1.0  0.96213  0.63677  0.56021  1.0000
  H   H265      1.0  0.97255  0.66235  0.48834  1.0000
  C   C352      1.0  0.91667  0.66167  0.49810  1.0000
  H   H266      1.0  0.89621  0.66676  0.49931  1.0000
  H   H267      1.0  0.92766  0.67965  0.49104  1.0000
  H   H268      1.0  0.92064  0.65323  0.56413  1.0000
  C   C353      1.0  0.51985  0.99235  0.39003  1.0000
  C   C354      1.0  0.49265  0.99233  0.38969  1.0000
  H   H269      1.0  0.48328  0.98254  0.44032  1.0000
  H   H270      1.0  0.52919  0.98255  0.44071  1.0000
  C   C355      1.0  0.01998  0.51974  0.39005  1.0000
  C   C356      1.0  0.02000  0.49254  0.38969  1.0000
  H   H271      1.0  0.02978  0.48317  0.44032  1.0000
  H   H272      1.0  0.02977  0.52908  0.44075  1.0000
  C   C357      1.0  0.20354  0.38840  0.35241  1.0000
  C   C358      1.0  0.25617  0.40738  0.36117  1.0000
  C   C359      1.0  0.23774  0.41461  0.42900  1.0000
  C   C360      1.0  0.21146  0.40493  0.42511  1.0000
  C   C361      1.0  0.24608  0.43113  0.50721  1.0000
  H   H273      1.0  0.26648  0.43653  0.50676  1.0000
  H   H274      1.0  0.24292  0.42079  0.57048  1.0000
  H   H275      1.0  0.23488  0.44909  0.50791  1.0000
  C   C362      1.0  0.19307  0.41123  0.50040  1.0000
  H   H276      1.0  0.17380  0.40302  0.49326  1.0000
  H   H277      1.0  0.19063  0.43221  0.50543  1.0000
  H   H278      1.0  0.20070  0.40387  0.56411  1.0000
  C   C363      1.0  0.80911  0.62384  0.35195  1.0000
  C   C364      1.0  0.75652  0.60473  0.36064  1.0000
  C   C365      1.0  0.77499  0.59751  0.42841  1.0000
  C   C366      1.0  0.80124  0.60725  0.42453  1.0000
  C   C367      1.0  0.76668  0.58095  0.50655  1.0000
  H   H279      1.0  0.74630  0.57549  0.50610  1.0000
  H   H280      1.0  0.76983  0.59127  0.56986  1.0000
  H   H281      1.0  0.77793  0.56301  0.50716  1.0000
  C   C368      1.0  0.81965  0.60096  0.49977  1.0000
  H   H282      1.0  0.83890  0.60922  0.49266  1.0000
  H   H283      1.0  0.82215  0.57998  0.50465  1.0000
  H   H284      1.0  0.81201  0.60826  0.56353  1.0000
  C   C369      1.0  0.62403  0.20323  0.35182  1.0000
  C   C370      1.0  0.60499  0.25583  0.36055  1.0000
  C   C371      1.0  0.59774  0.23738  0.42830  1.0000
  C   C372      1.0  0.60745  0.21111  0.42442  1.0000
  C   C373      1.0  0.58119  0.24570  0.50645  1.0000
  H   H285      1.0  0.57578  0.26609  0.50603  1.0000
  H   H286      1.0  0.59151  0.24253  0.56976  1.0000
  H   H287      1.0  0.56323  0.23448  0.50704  1.0000
  C   C374      1.0  0.60113  0.19270  0.49963  1.0000
  H   H288      1.0  0.60936  0.17344  0.49249  1.0000
  H   H289      1.0  0.58014  0.19024  0.50453  1.0000
  H   H290      1.0  0.60845  0.20033  0.56341  1.0000
  C   C375      1.0  0.38853  0.80879  0.35276  1.0000
  C   C376      1.0  0.40762  0.75620  0.36135  1.0000
  C   C377      1.0  0.41486  0.77465  0.42913  1.0000
  C   C378      1.0  0.40513  0.80092  0.42530  1.0000
  C   C379      1.0  0.43143  0.76633  0.50722  1.0000
  H   H291      1.0  0.43687  0.74595  0.50675  1.0000
  H   H292      1.0  0.42112  0.76948  0.57056  1.0000
  H   H293      1.0  0.44938  0.77757  0.50780  1.0000
  C   C380      1.0  0.41145  0.81931  0.50054  1.0000
  H   H294      1.0  0.40319  0.83857  0.49347  1.0000
  H   H295      1.0  0.43243  0.82180  0.50537  1.0000
  H   H296      1.0  0.40415  0.81167  0.56432  1.0000
  C   C381      1.0  0.79146  0.38305  0.40886  1.0000
  C   C382      1.0  0.76580  0.39207  0.40522  1.0000
  H   H297      1.0  0.75374  0.38782  0.45818  1.0000
  H   H298      1.0  0.79675  0.37207  0.46356  1.0000
  C   C383      1.0  0.22120  0.62905  0.40968  1.0000
  C   C384      1.0  0.24684  0.61999  0.40600  1.0000
  H   H299      1.0  0.25891  0.62421  0.45899  1.0000
  H   H300      1.0  0.21592  0.64001  0.46442  1.0000
  C   C385      1.0  0.38322  0.22088  0.40889  1.0000
  C   C386      1.0  0.39229  0.24652  0.40528  1.0000
  H   H301      1.0  0.38805  0.25859  0.45824  1.0000
  H   H302      1.0  0.37223  0.21561  0.46357  1.0000
  C   C387      1.0  0.62924  0.79114  0.40945  1.0000
  C   C388      1.0  0.62022  0.76549  0.40577  1.0000
  H   H303      1.0  0.62446  0.75342  0.45874  1.0000
  H   H304      1.0  0.64021  0.79643  0.46418  1.0000
  C   C389      1.0  0.32495  0.52026  0.40322  1.0000
  C   C390      1.0  0.32497  0.49296  0.40547  1.0000
  H   H305      1.0  0.33004  0.48394  0.46452  1.0000
  H   H306      1.0  0.32993  0.53008  0.46079  1.0000
  C   C391      1.0  0.68772  0.49180  0.40275  1.0000
  C   C392      1.0  0.68773  0.51910  0.40505  1.0000
  H   H307      1.0  0.68267  0.52812  0.46412  1.0000
  H   H308      1.0  0.68273  0.48198  0.46031  1.0000
  C   C393      1.0  0.49209  0.32460  0.40273  1.0000
  C   C394      1.0  0.51939  0.32462  0.40497  1.0000
  H   H309      1.0  0.52841  0.32969  0.46402  1.0000
  H   H310      1.0  0.48227  0.32959  0.46029  1.0000
  C   C395      1.0  0.52053  0.68735  0.40314  1.0000
  C   C396      1.0  0.49323  0.68736  0.40548  1.0000
  H   H311      1.0  0.48422  0.68229  0.46453  1.0000
  H   H312      1.0  0.53036  0.68234  0.46067  1.0000
  C   C397      1.0  0.34915  0.38872  0.36380  1.0000
  C   C398      1.0  0.38876  0.34847  0.36158  1.0000
  C   C399      1.0  0.39029  0.36961  0.42440  1.0000
  C   C400      1.0  0.37063  0.38969  0.42529  1.0000
  C   C401      1.0  0.41157  0.37027  0.49349  1.0000
  H   H313      1.0  0.42446  0.35360  0.49262  1.0000
  H   H314      1.0  0.40336  0.37068  0.56128  1.0000
  H   H315      1.0  0.42349  0.38754  0.48352  1.0000
  C   C402      1.0  0.37211  0.41083  0.49475  1.0000
  H   H316      1.0  0.35607  0.42448  0.49374  1.0000
  H   H317      1.0  0.38989  0.42201  0.48523  1.0000
  H   H318      1.0  0.37210  0.40249  0.56237  1.0000
  C   C403      1.0  0.66353  0.62331  0.36368  1.0000
  C   C404      1.0  0.62388  0.66352  0.36166  1.0000
  C   C405      1.0  0.62238  0.64237  0.42442  1.0000
  C   C406      1.0  0.64206  0.62232  0.42522  1.0000
  C   C407      1.0  0.60111  0.64168  0.49355  1.0000
  H   H319      1.0  0.58820  0.65832  0.49274  1.0000
  H   H320      1.0  0.60934  0.64126  0.56132  1.0000
  H   H321      1.0  0.58922  0.62439  0.48358  1.0000
  C   C408      1.0  0.64062  0.60116  0.49463  1.0000
  H   H322      1.0  0.65668  0.58753  0.49358  1.0000
  H   H323      1.0  0.62286  0.58996  0.48511  1.0000
  H   H324      1.0  0.64063  0.60948  0.56227  1.0000
  C   C409      1.0  0.62360  0.34882  0.36343  1.0000
  C   C410      1.0  0.66383  0.38846  0.36134  1.0000
  C   C411      1.0  0.64268  0.38997  0.42410  1.0000
  C   C412      1.0  0.62262  0.37030  0.42493  1.0000
  C   C413      1.0  0.64199  0.41125  0.49320  1.0000
  H   H325      1.0  0.65865  0.42415  0.49238  1.0000
  H   H326      1.0  0.64158  0.40303  0.56098  1.0000
  H   H327      1.0  0.62472  0.42316  0.48320  1.0000
  C   C414      1.0  0.60146  0.37177  0.49433  1.0000
  H   H328      1.0  0.58782  0.35571  0.49330  1.0000
  H   H329      1.0  0.59027  0.38954  0.48477  1.0000
  H   H330      1.0  0.60978  0.37176  0.56197  1.0000
  C   C415      1.0  0.38901  0.66322  0.36409  1.0000
  C   C416      1.0  0.34879  0.62360  0.36200  1.0000
  C   C417      1.0  0.36994  0.62208  0.42477  1.0000
  C   C418      1.0  0.39000  0.64175  0.42562  1.0000
  C   C419      1.0  0.37061  0.60081  0.49389  1.0000
  H   H331      1.0  0.35396  0.58790  0.49304  1.0000
  H   H332      1.0  0.37102  0.60903  0.56167  1.0000
  H   H333      1.0  0.38789  0.58890  0.48392  1.0000
  C   C420      1.0  0.41115  0.64029  0.49505  1.0000
  H   H334      1.0  0.42478  0.65634  0.49401  1.0000
  H   H335      1.0  0.42234  0.62252  0.48553  1.0000
  H   H336      1.0  0.40282  0.64031  0.56268  1.0000
