data_image0
_chemical_formula_structural       NCH3NCH3NCH3NCH3NCH3NCH3C2NC2O2C2H4C2NC2O2C2H4C2NC2O2C2H4C2NC2O2C2H3C2NC2O2C2H3C2NC2O2C2H3C2NC2O2C2H5C2NC2O2C2H5C2NC2O2C2H5C2NC2O2C2H5C2NC2O2C2H5C2NC2O2C2H5NC18H12NC18H12NC18H12NC18H12NC18H12NC18H12NC18H12NC18H12NC18H12NC18H12NC18H12NC18H12C2NC2O2C2H3C2NC2O2C2H3C2NC2O2C2H3C2NC2O2C2H3C2NC2O2C2H3C2NC2O2C2H3NCH2NCH2NCH2NCH3NCH3NCH3NCHNCHNCHNCHNCHNCH
_chemical_formula_sum              "N48 C342 H252 O36"
_cell_length_a       64.0074
_cell_length_b       64.0074
_cell_length_c       14.746
_cell_angle_alpha    90
_cell_angle_beta     90
_cell_angle_gamma    120

_space_group_name_H-M_alt    "P 1"
_space_group_IT_number       1

loop_
  _space_group_symop_operation_xyz
  'x, y, z'

loop_
  _atom_site_type_symbol
  _atom_site_label
  _atom_site_symmetry_multiplicity
  _atom_site_fract_x
  _atom_site_fract_y
  _atom_site_fract_z
  _atom_site_occupancy
  N   N1        1.0  0.19859  0.37757  0.28203  1.0000
  C   C1        1.0  0.21065  0.40198  0.27137  1.0000
  H   H1        1.0  0.21462  0.40872  0.20709  1.0000
  H   H2        1.0  0.16924  0.35215  0.01802  1.0000
  H   H3        1.0  0.12678  0.31881  0.01309  1.0000
  N   N2        1.0  0.63122  0.81253  0.28212  1.0000
  C   C2        1.0  0.60682  0.80019  0.27142  1.0000
  H   H4        1.0  0.60008  0.79740  0.20713  1.0000
  H   H5        1.0  0.65659  0.80867  0.01828  1.0000
  H   H6        1.0  0.69005  0.79973  0.01347  1.0000
  N   N3        1.0  0.19624  0.81023  0.28202  1.0000
  C   C3        1.0  0.20858  0.79816  0.27132  1.0000
  H   H7        1.0  0.21138  0.79423  0.20703  1.0000
  H   H8        1.0  0.19997  0.83898  0.01930  1.0000
  H   H9        1.0  0.20843  0.88124  0.01663  1.0000
  N   N4        1.0  0.81897  0.62266  0.28209  1.0000
  C   C4        1.0  0.80695  0.59826  0.27142  1.0000
  H   H10       1.0  0.80321  0.59151  0.20710  1.0000
  H   H11       1.0  0.84698  0.64767  0.01861  1.0000
  H   H12       1.0  0.89007  0.67953  0.01662  1.0000
  N   N5        1.0  0.38616  0.18783  0.28200  1.0000
  C   C5        1.0  0.41057  0.20021  0.27134  1.0000
  H   H13       1.0  0.41731  0.20319  0.20703  1.0000
  H   H14       1.0  0.36113  0.19088  0.01844  1.0000
  H   H15       1.0  0.32936  0.20222  0.01641  1.0000
  N   N6        1.0  0.82100  0.18987  0.28217  1.0000
  C   C6        1.0  0.80862  0.20190  0.27146  1.0000
  H   H16       1.0  0.80569  0.20570  0.20714  1.0000
  H   H17       1.0  0.81770  0.16153  0.01828  1.0000
  H   H18       1.0  0.80611  0.11835  0.01590  1.0000
  C   C7        1.0  0.19377  0.20982  0.33317  1.0000
  C   C8        1.0  0.21868  0.18300  0.34619  1.0000
  N   N7        1.0  0.21542  0.19187  0.26667  1.0000
  C   C9        1.0  0.20392  0.20483  0.25547  1.0000
  C   C10       1.0  0.20264  0.21069  0.16659  1.0000
  O   O1        1.0  0.22086  0.22812  0.13682  1.0000
  O   O2        1.0  0.18191  0.20843  0.13634  1.0000
  C   C11       1.0  0.17298  0.19408  0.05536  1.0000
  C   C12       1.0  0.15038  0.19464  0.02315  1.0000
  H   H19       1.0  0.16807  0.17536  0.06920  1.0000
  H   H20       1.0  0.18638  0.20116  0.00086  1.0000
  H   H21       1.0  0.13662  0.18766  0.07609  1.0000
  H   H22       1.0  0.15501  0.21314  0.00714  1.0000
  C   C13       1.0  0.79900  0.97548  0.33319  1.0000
  C   C14       1.0  0.82584  0.02722  0.34636  1.0000
  N   N8        1.0  0.81695  0.01511  0.26683  1.0000
  C   C15       1.0  0.80400  0.99065  0.25556  1.0000
  C   C16       1.0  0.79806  0.98353  0.16671  1.0000
  O   O3        1.0  0.78049  0.98415  0.13753  1.0000
  O   O4        1.0  0.80054  0.96523  0.13597  1.0000
  C   C17       1.0  0.81447  0.97073  0.05382  1.0000
  C   C18       1.0  0.81424  0.94776  0.02131  1.0000
  H   H23       1.0  0.83316  0.98484  0.06619  1.0000
  H   H24       1.0  0.80686  0.97670  0.00003  1.0000
  H   H25       1.0  0.82176  0.94133  0.07353  1.0000
  H   H26       1.0  0.79577  0.93360  0.00672  1.0000
  C   C19       1.0  0.03333  0.81511  0.33314  1.0000
  C   C20       1.0  0.98159  0.79018  0.34630  1.0000
  N   N9        1.0  0.99371  0.79353  0.26669  1.0000
  C   C21       1.0  0.01817  0.80506  0.25542  1.0000
  C   C22       1.0  0.02529  0.80637  0.16651  1.0000
  O   O5        1.0  0.02465  0.78822  0.13681  1.0000
  O   O6        1.0  0.04361  0.82720  0.13615  1.0000
  C   C23       1.0  0.03819  0.83572  0.05409  1.0000
  C   C24       1.0  0.06119  0.85850  0.02202  1.0000
  H   H27       1.0  0.02407  0.84029  0.06643  1.0000
  H   H28       1.0  0.03227  0.82220  0.00008  1.0000
  H   H29       1.0  0.06757  0.87239  0.07445  1.0000
  H   H30       1.0  0.07537  0.85421  0.00751  1.0000
  C   C25       1.0  0.82371  0.79051  0.33282  1.0000
  C   C26       1.0  0.79874  0.81729  0.34620  1.0000
  N   N10       1.0  0.80218  0.80863  0.26649  1.0000
  C   C27       1.0  0.81373  0.79572  0.25511  1.0000
  C   C28       1.0  0.81512  0.79001  0.16615  1.0000
  O   O7        1.0  0.79704  0.77242  0.13635  1.0000
  O   O8        1.0  0.83603  0.79275  0.13578  1.0000
  C   C29       1.0  0.84423  0.80638  0.05288  1.0000
  C   C30       1.0  0.86722  0.80652  0.02106  1.0000
  H   H31       1.0  0.84846  0.82501  0.06404  1.0000
  H   H32       1.0  0.88117  0.81449  0.07311  1.0000
  H   H33       1.0  0.86326  0.78810  0.00777  1.0000
  C   C31       1.0  0.21832  0.02475  0.33272  1.0000
  C   C32       1.0  0.19154  0.97301  0.34616  1.0000
  N   N11       1.0  0.20019  0.98510  0.26643  1.0000
  C   C33       1.0  0.21311  0.00956  0.25504  1.0000
  C   C34       1.0  0.21874  0.01667  0.16600  1.0000
  O   O9        1.0  0.23635  0.01602  0.13725  1.0000
  O   O10       1.0  0.21612  0.03487  0.13536  1.0000
  C   C35       1.0  0.20252  0.02942  0.05239  1.0000
  C   C36       1.0  0.20247  0.05227  0.02017  1.0000
  H   H34       1.0  0.18387  0.01506  0.06353  1.0000
  H   H35       1.0  0.19454  0.05835  0.07203  1.0000
  H   H36       1.0  0.22091  0.06668  0.00678  1.0000
  C   C37       1.0  0.98408  0.18518  0.33307  1.0000
  C   C38       1.0  0.03582  0.21008  0.34629  1.0000
  N   N12       1.0  0.02371  0.20685  0.26674  1.0000
  C   C39       1.0  0.99925  0.19536  0.25545  1.0000
  C   C40       1.0  0.99216  0.19418  0.16647  1.0000
  O   O11       1.0  0.99265  0.21240  0.13840  1.0000
  O   O12       1.0  0.97403  0.17319  0.13650  1.0000
  C   C41       1.0  0.97906  0.16544  0.05174  1.0000
  C   C42       1.0  0.95622  0.14234  0.02074  1.0000
  H   H37       1.0  0.99375  0.16148  0.06003  1.0000
  H   H38       1.0  0.95076  0.12827  0.07204  1.0000
  H   H39       1.0  0.94148  0.14605  0.01009  1.0000
  C   C43       1.0  0.24673  0.64151  0.33750  1.0000
  C   C44       1.0  0.24749  0.59757  0.35563  1.0000
  N   N13       1.0  0.23899  0.60337  0.28066  1.0000
  C   C45       1.0  0.23797  0.62395  0.26689  1.0000
  C   C46       1.0  0.22779  0.62614  0.18689  1.0000
  O   O13       1.0  0.22698  0.61366  0.12242  1.0000
  O   O14       1.0  0.20894  0.62958  0.19811  1.0000
  C   C47       1.0  0.20512  0.64261  0.12622  1.0000
  C   C48       1.0  0.18579  0.64873  0.15644  1.0000
  H   H40       1.0  0.19886  0.63155  0.06487  1.0000
  H   H41       1.0  0.22165  0.65948  0.11024  1.0000
  H   H42       1.0  0.16891  0.63220  0.17151  1.0000
  H   H43       1.0  0.18255  0.65847  0.10262  1.0000
  H   H44       1.0  0.19182  0.66001  0.21709  1.0000
  C   C49       1.0  0.36727  0.59677  0.33738  1.0000
  C   C50       1.0  0.41121  0.64147  0.35542  1.0000
  N   N14       1.0  0.40540  0.62718  0.28043  1.0000
  C   C51       1.0  0.38481  0.60558  0.26670  1.0000
  C   C52       1.0  0.38261  0.59322  0.18668  1.0000
  O   O15       1.0  0.39506  0.60488  0.12217  1.0000
  O   O16       1.0  0.37918  0.57092  0.19787  1.0000
  C   C53       1.0  0.36614  0.55407  0.12603  1.0000
  C   C54       1.0  0.36005  0.52863  0.15621  1.0000
  H   H45       1.0  0.37718  0.55888  0.06461  1.0000
  H   H46       1.0  0.34926  0.55371  0.11015  1.0000
  H   H47       1.0  0.37660  0.52830  0.17118  1.0000
  H   H48       1.0  0.35030  0.51564  0.10242  1.0000
  H   H49       1.0  0.34879  0.52336  0.21692  1.0000
  C   C55       1.0  0.41208  0.76218  0.33778  1.0000
  C   C56       1.0  0.36733  0.76130  0.35558  1.0000
  N   N15       1.0  0.38173  0.76998  0.28092  1.0000
  C   C57       1.0  0.40336  0.77106  0.26733  1.0000
  C   C58       1.0  0.41579  0.78143  0.18775  1.0000
  O   O17       1.0  0.40448  0.78297  0.12348  1.0000
  O   O18       1.0  0.43835  0.79993  0.19856  1.0000
  C   C59       1.0  0.45499  0.80344  0.12621  1.0000
  C   C60       1.0  0.48068  0.82213  0.15659  1.0000
  H   H50       1.0  0.45045  0.81017  0.06550  1.0000
  H   H51       1.0  0.45474  0.78669  0.10909  1.0000
  H   H52       1.0  0.48161  0.83922  0.17275  1.0000
  H   H53       1.0  0.49351  0.82514  0.10243  1.0000
  H   H54       1.0  0.48567  0.81562  0.21662  1.0000
  C   C61       1.0  0.77072  0.35875  0.33771  1.0000
  C   C62       1.0  0.76985  0.40263  0.35547  1.0000
  N   N16       1.0  0.77858  0.39694  0.28090  1.0000
  C   C63       1.0  0.77967  0.37638  0.26735  1.0000
  C   C64       1.0  0.79007  0.37433  0.18785  1.0000
  O   O19       1.0  0.79167  0.38722  0.12360  1.0000
  O   O20       1.0  0.80854  0.37023  0.19881  1.0000
  C   C65       1.0  0.81209  0.35713  0.12648  1.0000
  C   C66       1.0  0.83072  0.35008  0.15702  1.0000
  H   H55       1.0  0.81887  0.36842  0.06584  1.0000
  H   H56       1.0  0.79533  0.34064  0.10918  1.0000
  H   H57       1.0  0.84782  0.36622  0.17335  1.0000
  H   H58       1.0  0.83376  0.34027  0.10287  1.0000
  H   H59       1.0  0.82416  0.33856  0.21697  1.0000
  C   C67       1.0  0.65003  0.40348  0.33798  1.0000
  C   C68       1.0  0.60615  0.35873  0.35564  1.0000
  N   N17       1.0  0.61185  0.37316  0.28112  1.0000
  C   C69       1.0  0.63240  0.39481  0.26761  1.0000
  C   C70       1.0  0.63445  0.40728  0.18815  1.0000
  O   O21       1.0  0.62156  0.39602  0.12390  1.0000
  O   O22       1.0  0.63856  0.42985  0.19919  1.0000
  C   C71       1.0  0.65166  0.44651  0.12686  1.0000
  C   C72       1.0  0.65874  0.47220  0.15747  1.0000
  H   H60       1.0  0.64036  0.44201  0.06626  1.0000
  H   H61       1.0  0.66814  0.44623  0.10949  1.0000
  H   H62       1.0  0.64260  0.47316  0.17389  1.0000
  H   H63       1.0  0.66854  0.48504  0.10334  1.0000
  H   H64       1.0  0.67027  0.47714  0.21740  1.0000
  C   C73       1.0  0.60530  0.23802  0.33797  1.0000
  C   C74       1.0  0.65005  0.23891  0.35568  1.0000
  N   N18       1.0  0.63562  0.23017  0.28113  1.0000
  C   C75       1.0  0.61398  0.22908  0.26761  1.0000
  C   C76       1.0  0.60151  0.21867  0.18812  1.0000
  O   O23       1.0  0.61279  0.21704  0.12389  1.0000
  O   O24       1.0  0.57894  0.20021  0.19911  1.0000
  C   C77       1.0  0.56229  0.19668  0.12675  1.0000
  C   C78       1.0  0.53660  0.17807  0.15730  1.0000
  H   H65       1.0  0.56679  0.18987  0.06615  1.0000
  H   H66       1.0  0.56259  0.21344  0.10939  1.0000
  H   H67       1.0  0.53562  0.16096  0.17370  1.0000
  H   H68       1.0  0.52376  0.17504  0.10315  1.0000
  H   H69       1.0  0.53165  0.18465  0.21722  1.0000
  N   N19       1.0  0.14036  0.26113  0.34901  1.0000
  C   C79       1.0  0.11441  0.24823  0.34854  1.0000
  C   C80       1.0  0.15302  0.28706  0.35421  1.0000
  C   C81       1.0  0.15349  0.24828  0.34390  1.0000
  C   C82       1.0  0.14899  0.22948  0.40515  1.0000
  C   C83       1.0  0.16199  0.21698  0.40055  1.0000
  C   C84       1.0  0.18066  0.22295  0.33610  1.0000
  C   C85       1.0  0.18587  0.24274  0.27835  1.0000
  C   C86       1.0  0.17227  0.25463  0.28034  1.0000
  C   C87       1.0  0.10113  0.23725  0.26898  1.0000
  C   C88       1.0  0.07560  0.22500  0.26864  1.0000
  C   C89       1.0  0.06199  0.22270  0.34802  1.0000
  C   C90       1.0  0.07562  0.23379  0.42754  1.0000
  C   C91       1.0  0.10115  0.24634  0.42772  1.0000
  C   C92       1.0  0.15003  0.30107  0.28683  1.0000
  C   C93       1.0  0.16274  0.32655  0.29061  1.0000
  C   C94       1.0  0.17936  0.33943  0.36119  1.0000
  C   C95       1.0  0.18290  0.32516  0.42644  1.0000
  C   C96       1.0  0.16976  0.29966  0.42410  1.0000
  H   H70       1.0  0.06696  0.21739  0.20903  1.0000
  H   H71       1.0  0.11011  0.23836  0.21021  1.0000
  H   H72       1.0  0.11016  0.25419  0.48649  1.0000
  H   H73       1.0  0.06711  0.23341  0.48663  1.0000
  H   H74       1.0  0.13578  0.22446  0.45307  1.0000
  H   H75       1.0  0.15741  0.20310  0.44512  1.0000
  H   H76       1.0  0.13834  0.29267  0.23434  1.0000
  H   H77       1.0  0.15950  0.33571  0.24081  1.0000
  H   H78       1.0  0.19560  0.33323  0.47606  1.0000
  H   H79       1.0  0.17295  0.29020  0.47275  1.0000
  H   H80       1.0  0.17668  0.26863  0.23658  1.0000
  H   H81       1.0  0.20003  0.24910  0.23425  1.0000
  N   N20       1.0  0.74766  0.87076  0.34919  1.0000
  C   C97       1.0  0.76056  0.85771  0.34866  1.0000
  C   C98       1.0  0.72173  0.85750  0.35433  1.0000
  C   C99       1.0  0.76052  0.89673  0.34401  1.0000
  C   C100      1.0  0.77928  0.91104  0.40543  1.0000
  C   C101      1.0  0.79178  0.93654  0.40079  1.0000
  C   C102      1.0  0.78588  0.94924  0.33608  1.0000
  C   C103      1.0  0.76615  0.93465  0.27809  1.0000
  C   C104      1.0  0.75425  0.90915  0.28014  1.0000
  C   C105      1.0  0.77167  0.85555  0.26922  1.0000
  C   C106      1.0  0.78393  0.84228  0.26882  1.0000
  C   C107      1.0  0.78610  0.83083  0.34801  1.0000
  C   C108      1.0  0.77488  0.83322  0.42742  1.0000
  C   C109      1.0  0.76233  0.84620  0.42766  1.0000
  C   C110      1.0  0.70773  0.84049  0.28699  1.0000
  C   C111      1.0  0.68224  0.82770  0.29077  1.0000
  C   C112      1.0  0.66936  0.83147  0.36132  1.0000
  C   C113      1.0  0.68363  0.84929  0.42651  1.0000
  C   C114      1.0  0.70913  0.86166  0.42418  1.0000
  H   H82       1.0  0.79163  0.84136  0.20928  1.0000
  H   H83       1.0  0.77065  0.86351  0.21057  1.0000
  H   H84       1.0  0.75439  0.84725  0.48635  1.0000
  H   H85       1.0  0.77516  0.82499  0.48636  1.0000
  H   H86       1.0  0.78423  0.90286  0.45358  1.0000
  H   H87       1.0  0.80560  0.94584  0.44554  1.0000
  H   H88       1.0  0.71613  0.83718  0.23455  1.0000
  H   H89       1.0  0.67309  0.81530  0.24101  1.0000
  H   H90       1.0  0.67556  0.85393  0.47609  1.0000
  H   H91       1.0  0.71859  0.87431  0.47280  1.0000
  H   H92       1.0  0.74028  0.89957  0.23627  1.0000
  H   H93       1.0  0.75982  0.94243  0.23381  1.0000
  N   N21       1.0  0.13804  0.86847  0.34909  1.0000
  C   C115      1.0  0.15110  0.89441  0.34859  1.0000
  C   C116      1.0  0.15129  0.85578  0.35421  1.0000
  C   C117      1.0  0.11207  0.85535  0.34395  1.0000
  C   C118      1.0  0.09777  0.85976  0.40554  1.0000
  C   C119      1.0  0.07227  0.84676  0.40092  1.0000
  C   C120      1.0  0.05956  0.82822  0.33602  1.0000
  C   C121      1.0  0.07415  0.82313  0.27778  1.0000
  C   C122      1.0  0.09964  0.83672  0.27986  1.0000
  C   C123      1.0  0.15327  0.90768  0.26915  1.0000
  C   C124      1.0  0.16655  0.93321  0.26877  1.0000
  C   C125      1.0  0.17800  0.94683  0.34796  1.0000
  C   C126      1.0  0.17558  0.93320  0.42738  1.0000
  C   C127      1.0  0.16259  0.90768  0.42762  1.0000
  C   C128      1.0  0.16829  0.85877  0.28683  1.0000
  C   C129      1.0  0.18107  0.84606  0.29062  1.0000
  C   C130      1.0  0.17732  0.82944  0.36121  1.0000
  C   C131      1.0  0.15952  0.82591  0.42648  1.0000
  C   C132      1.0  0.14715  0.83905  0.42414  1.0000
  H   H94       1.0  0.16748  0.94184  0.20922  1.0000
  H   H95       1.0  0.14531  0.89870  0.21048  1.0000
  H   H96       1.0  0.16153  0.89868  0.48630  1.0000
  H   H97       1.0  0.18381  0.94172  0.48634  1.0000
  H   H98       1.0  0.10596  0.87286  0.45384  1.0000
  H   H99       1.0  0.06297  0.85125  0.44584  1.0000
  H   H100      1.0  0.17158  0.87047  0.23436  1.0000
  H   H101      1.0  0.19346  0.84930  0.24082  1.0000
  H   H102      1.0  0.15488  0.81321  0.47610  1.0000
  H   H103      1.0  0.13452  0.83587  0.47280  1.0000
  H   H104      1.0  0.10923  0.83238  0.23583  1.0000
  H   H105      1.0  0.06636  0.80906  0.23332  1.0000
  N   N22       1.0  0.87705  0.73914  0.34885  1.0000
  C   C133      1.0  0.90299  0.75203  0.34846  1.0000
  C   C134      1.0  0.86434  0.71321  0.35404  1.0000
  C   C135      1.0  0.86395  0.75201  0.34364  1.0000
  C   C136      1.0  0.86824  0.77061  0.40562  1.0000
  C   C137      1.0  0.85525  0.78311  0.40097  1.0000
  C   C138      1.0  0.83683  0.77739  0.33562  1.0000
  C   C139      1.0  0.83188  0.75785  0.27689  1.0000
  C   C140      1.0  0.84546  0.74593  0.27907  1.0000
  C   C141      1.0  0.91629  0.76308  0.26900  1.0000
  C   C142      1.0  0.94181  0.77532  0.26868  1.0000
  C   C143      1.0  0.95541  0.77755  0.34801  1.0000
  C   C144      1.0  0.94177  0.76640  0.42745  1.0000
  C   C145      1.0  0.91625  0.75386  0.42759  1.0000
  C   C146      1.0  0.86737  0.69917  0.28688  1.0000
  C   C147      1.0  0.85464  0.67369  0.29075  1.0000
  C   C148      1.0  0.83796  0.66083  0.36122  1.0000
  C   C149      1.0  0.83440  0.67513  0.42627  1.0000
  C   C150      1.0  0.84757  0.70064  0.42386  1.0000
  H   H106      1.0  0.95045  0.78298  0.20912  1.0000
  H   H107      1.0  0.90731  0.76201  0.21024  1.0000
  H   H108      1.0  0.90723  0.74596  0.48631  1.0000
  H   H109      1.0  0.95028  0.76673  0.48650  1.0000
  H   H110      1.0  0.88124  0.77543  0.45426  1.0000
  H   H111      1.0  0.85964  0.79681  0.44625  1.0000
  H   H112      1.0  0.87909  0.70755  0.23447  1.0000
  H   H113      1.0  0.85790  0.66452  0.24110  1.0000
  H   H114      1.0  0.82167  0.66710  0.47578  1.0000
  H   H115      1.0  0.84435  0.71011  0.47235  1.0000
  H   H116      1.0  0.84120  0.73209  0.23472  1.0000
  H   H117      1.0  0.81790  0.75165  0.23206  1.0000
  N   N23       1.0  0.26968  0.12946  0.34863  1.0000
  C   C151      1.0  0.25679  0.14252  0.34826  1.0000
  C   C152      1.0  0.29561  0.14269  0.35387  1.0000
  C   C153      1.0  0.25681  0.10349  0.34344  1.0000
  C   C154      1.0  0.23821  0.08919  0.40543  1.0000
  C   C155      1.0  0.22571  0.06369  0.40081  1.0000
  C   C156      1.0  0.23143  0.05099  0.33550  1.0000
  C   C157      1.0  0.25097  0.06558  0.27675  1.0000
  C   C158      1.0  0.26289  0.09107  0.27890  1.0000
  C   C159      1.0  0.24580  0.14483  0.26875  1.0000
  C   C160      1.0  0.23357  0.15812  0.26846  1.0000
  C   C161      1.0  0.23129  0.16944  0.34786  1.0000
  C   C162      1.0  0.24238  0.16688  0.42734  1.0000
  C   C163      1.0  0.25492  0.15389  0.42747  1.0000
  C   C164      1.0  0.30966  0.15974  0.28670  1.0000
  C   C165      1.0  0.33514  0.17249  0.29060  1.0000
  C   C166      1.0  0.34799  0.16868  0.36112  1.0000
  C   C167      1.0  0.33368  0.15084  0.42620  1.0000
  C   C168      1.0  0.30818  0.13849  0.42376  1.0000
  H   H118      1.0  0.22596  0.15916  0.20886  1.0000
  H   H119      1.0  0.24692  0.13697  0.20994  1.0000
  H   H120      1.0  0.26277  0.15273  0.48622  1.0000
  H   H121      1.0  0.24202  0.17501  0.48645  1.0000
  H   H122      1.0  0.23340  0.09738  0.45406  1.0000
  H   H123      1.0  0.21202  0.05439  0.44609  1.0000
  H   H124      1.0  0.30128  0.16308  0.23425  1.0000
  H   H125      1.0  0.34432  0.18491  0.24091  1.0000
  H   H126      1.0  0.34171  0.14612  0.47571  1.0000
  H   H127      1.0  0.29869  0.12580  0.47222  1.0000
  H   H128      1.0  0.27673  0.10066  0.23455  1.0000
  H   H129      1.0  0.25718  0.05779  0.23193  1.0000
  N   N24       1.0  0.87935  0.13176  0.34904  1.0000
  C   C169      1.0  0.86630  0.10581  0.34860  1.0000
  C   C170      1.0  0.86611  0.14444  0.35427  1.0000
  C   C171      1.0  0.90533  0.14488  0.34386  1.0000
  C   C172      1.0  0.91964  0.14048  0.40540  1.0000
  C   C173      1.0  0.94514  0.15348  0.40074  1.0000
  C   C174      1.0  0.95784  0.17206  0.33592  1.0000
  C   C175      1.0  0.94323  0.17713  0.27774  1.0000
  C   C176      1.0  0.91774  0.16352  0.27980  1.0000
  C   C177      1.0  0.86399  0.09253  0.26904  1.0000
  C   C178      1.0  0.85069  0.06700  0.26870  1.0000
  C   C179      1.0  0.83939  0.05339  0.34807  1.0000
  C   C180      1.0  0.84196  0.06703  0.42762  1.0000
  C   C181      1.0  0.85494  0.09255  0.42779  1.0000
  C   C182      1.0  0.84909  0.14145  0.28698  1.0000
  C   C183      1.0  0.83632  0.15418  0.29082  1.0000
  C   C184      1.0  0.84010  0.17082  0.36138  1.0000
  C   C185      1.0  0.85791  0.17434  0.42657  1.0000
  C   C186      1.0  0.87026  0.16118  0.42421  1.0000
  H   H130      1.0  0.84965  0.05836  0.20907  1.0000
  H   H131      1.0  0.87184  0.10151  0.21023  1.0000
  H   H132      1.0  0.85611  0.10156  0.48657  1.0000
  H   H133      1.0  0.83383  0.05852  0.48672  1.0000
  H   H134      1.0  0.91146  0.12736  0.45366  1.0000
  H   H135      1.0  0.95444  0.14899  0.44561  1.0000
  H   H136      1.0  0.84578  0.12976  0.23448  1.0000
  H   H137      1.0  0.82393  0.15094  0.24104  1.0000
  H   H138      1.0  0.86259  0.18705  0.47618  1.0000
  H   H139      1.0  0.88293  0.16437  0.47276  1.0000
  H   H140      1.0  0.90814  0.16787  0.23585  1.0000
  H   H141      1.0  0.95101  0.19121  0.23331  1.0000
  N   N25       1.0  0.26916  0.52164  0.34548  1.0000
  C   C187      1.0  0.29481  0.53598  0.33762  1.0000
  C   C188      1.0  0.25652  0.49582  0.34579  1.0000
  C   C189      1.0  0.25715  0.53531  0.35295  1.0000
  C   C190      1.0  0.25847  0.54728  0.43501  1.0000
  C   C191      1.0  0.25416  0.56683  0.43732  1.0000
  C   C192      1.0  0.24874  0.57564  0.35750  1.0000
  C   C193      1.0  0.24596  0.56242  0.27660  1.0000
  C   C194      1.0  0.25010  0.54275  0.27424  1.0000
  C   C195      1.0  0.30956  0.54203  0.41550  1.0000
  C   C196      1.0  0.33364  0.56123  0.41396  1.0000
  C   C197      1.0  0.34387  0.57537  0.33493  1.0000
  C   C198      1.0  0.32900  0.56895  0.25692  1.0000
  C   C199      1.0  0.30516  0.54939  0.25766  1.0000
  C   C200      1.0  0.25543  0.48269  0.42431  1.0000
  C   C201      1.0  0.24279  0.45717  0.42455  1.0000
  C   C202      1.0  0.23075  0.44342  0.34628  1.0000
  C   C203      1.0  0.23198  0.45694  0.26792  1.0000
  C   C204      1.0  0.24448  0.48246  0.26768  1.0000
  H   H142      1.0  0.34337  0.56551  0.47289  1.0000
  H   H143      1.0  0.30233  0.53356  0.47568  1.0000
  H   H144      1.0  0.29465  0.54639  0.20156  1.0000
  H   H145      1.0  0.33482  0.57945  0.19998  1.0000
  H   H146      1.0  0.26442  0.54295  0.49253  1.0000
  H   H147      1.0  0.25623  0.57522  0.49821  1.0000
  H   H148      1.0  0.26374  0.49172  0.48244  1.0000
  H   H149      1.0  0.24271  0.44868  0.48341  1.0000
  H   H150      1.0  0.22333  0.44837  0.20964  1.0000
  H   H151      1.0  0.24481  0.49135  0.20961  1.0000
  H   H152      1.0  0.25013  0.53531  0.21293  1.0000
  H   H153      1.0  0.24247  0.56797  0.21630  1.0000
  N   N26       1.0  0.48715  0.73907  0.34513  1.0000
  C   C205      1.0  0.47282  0.75041  0.33774  1.0000
  C   C206      1.0  0.51297  0.75224  0.34561  1.0000
  C   C207      1.0  0.47347  0.71340  0.35262  1.0000
  C   C208      1.0  0.46156  0.70274  0.43474  1.0000
  C   C209      1.0  0.44197  0.67888  0.43705  1.0000
  C   C210      1.0  0.43314  0.66465  0.35724  1.0000
  C   C211      1.0  0.44635  0.67508  0.27631  1.0000
  C   C212      1.0  0.46596  0.69892  0.27388  1.0000
  C   C213      1.0  0.46677  0.75909  0.41569  1.0000
  C   C214      1.0  0.44757  0.76397  0.41430  1.0000
  C   C215      1.0  0.43346  0.76014  0.33528  1.0000
  C   C216      1.0  0.43985  0.75171  0.25716  1.0000
  C   C217      1.0  0.45935  0.74733  0.25791  1.0000
  C   C218      1.0  0.52609  0.76433  0.42410  1.0000
  C   C219      1.0  0.55161  0.77720  0.42442  1.0000
  C   C220      1.0  0.56538  0.77887  0.34626  1.0000
  C   C221      1.0  0.55187  0.76653  0.26793  1.0000
  C   C222      1.0  0.52635  0.75352  0.26762  1.0000
  H   H154      1.0  0.44331  0.76942  0.47328  1.0000
  H   H155      1.0  0.47524  0.76029  0.47584  1.0000
  H   H156      1.0  0.46239  0.73991  0.20161  1.0000
  H   H157      1.0  0.42935  0.74706  0.20024  1.0000
  H   H158      1.0  0.46586  0.71301  0.49226  1.0000
  H   H159      1.0  0.43360  0.67257  0.49796  1.0000
  H   H160      1.0  0.51705  0.76365  0.48217  1.0000
  H   H161      1.0  0.56009  0.78565  0.48325  1.0000
  H   H162      1.0  0.56045  0.76642  0.20973  1.0000
  H   H163      1.0  0.51747  0.74493  0.20957  1.0000
  H   H164      1.0  0.47343  0.70638  0.21258  1.0000
  H   H165      1.0  0.44077  0.66606  0.21598  1.0000
  N   N27       1.0  0.26975  0.73966  0.34490  1.0000
  C   C223      1.0  0.25842  0.71399  0.33750  1.0000
  C   C224      1.0  0.25658  0.75231  0.34545  1.0000
  C   C225      1.0  0.29542  0.75165  0.35267  1.0000
  C   C226      1.0  0.30606  0.75038  0.43480  1.0000
  C   C227      1.0  0.32992  0.75466  0.43715  1.0000
  C   C228      1.0  0.34416  0.76006  0.35736  1.0000
  C   C229      1.0  0.33373  0.76283  0.27639  1.0000
  C   C230      1.0  0.30990  0.75862  0.27394  1.0000
  C   C231      1.0  0.24975  0.69926  0.41542  1.0000
  C   C232      1.0  0.24486  0.67517  0.41398  1.0000
  C   C233      1.0  0.24874  0.66491  0.33498  1.0000
  C   C234      1.0  0.25718  0.67976  0.25692  1.0000
  C   C235      1.0  0.26151  0.70362  0.25764  1.0000
  C   C236      1.0  0.24452  0.75336  0.42398  1.0000
  C   C237      1.0  0.23164  0.76600  0.42433  1.0000
  C   C238      1.0  0.22995  0.77808  0.34616  1.0000
  C   C239      1.0  0.24226  0.77690  0.26778  1.0000
  C   C240      1.0  0.25528  0.76440  0.26745  1.0000
  H   H166      1.0  0.23945  0.66547  0.47298  1.0000
  H   H167      1.0  0.24853  0.70651  0.47558  1.0000
  H   H168      1.0  0.26892  0.71408  0.20136  1.0000
  H   H169      1.0  0.26182  0.67392  0.19992  1.0000
  H   H170      1.0  0.29579  0.74442  0.49229  1.0000
  H   H171      1.0  0.33624  0.75259  0.49806  1.0000
  H   H172      1.0  0.24521  0.74501  0.48204  1.0000
  H   H173      1.0  0.22320  0.76604  0.48317  1.0000
  H   H174      1.0  0.24236  0.78558  0.20956  1.0000
  H   H175      1.0  0.26386  0.76410  0.20937  1.0000
  H   H176      1.0  0.30246  0.75865  0.21263  1.0000
  H   H177      1.0  0.34278  0.76630  0.21613  1.0000
  N   N28       1.0  0.74820  0.47857  0.34523  1.0000
  C   C241      1.0  0.72253  0.46424  0.33792  1.0000
  C   C242      1.0  0.76085  0.50440  0.34569  1.0000
  C   C243      1.0  0.76019  0.46489  0.35263  1.0000
  C   C244      1.0  0.75895  0.45298  0.43474  1.0000
  C   C245      1.0  0.76328  0.43343  0.43711  1.0000
  C   C246      1.0  0.76861  0.42456  0.35725  1.0000
  C   C247      1.0  0.77128  0.43770  0.27623  1.0000
  C   C248      1.0  0.76710  0.45735  0.27383  1.0000
  C   C249      1.0  0.70782  0.45813  0.41596  1.0000
  C   C250      1.0  0.68374  0.43893  0.41458  1.0000
  C   C251      1.0  0.67345  0.42484  0.33551  1.0000
  C   C252      1.0  0.68826  0.43127  0.25733  1.0000
  C   C253      1.0  0.71212  0.45080  0.25803  1.0000
  C   C254      1.0  0.76168  0.51753  0.42388  1.0000
  C   C255      1.0  0.77433  0.54304  0.42420  1.0000
  C   C256      1.0  0.78664  0.55681  0.34632  1.0000
  C   C257      1.0  0.78568  0.54330  0.26829  1.0000
  C   C258      1.0  0.77318  0.51778  0.26799  1.0000
  H   H178      1.0  0.67405  0.43464  0.47360  1.0000
  H   H179      1.0  0.71510  0.46658  0.47613  1.0000
  H   H180      1.0  0.72256  0.45389  0.20164  1.0000
  H   H181      1.0  0.68237  0.42083  0.20027  1.0000
  H   H182      1.0  0.75311  0.45737  0.49239  1.0000
  H   H183      1.0  0.76129  0.42509  0.49806  1.0000
  H   H184      1.0  0.75316  0.50849  0.48175  1.0000
  H   H185      1.0  0.77419  0.55153  0.48280  1.0000
  H   H186      1.0  0.79454  0.55188  0.21031  1.0000
  H   H187      1.0  0.77305  0.50891  0.21016  1.0000
  H   H188      1.0  0.76704  0.46475  0.21247  1.0000
  H   H189      1.0  0.77468  0.43208  0.21592  1.0000
  N   N29       1.0  0.53025  0.26114  0.34520  1.0000
  C   C259      1.0  0.54459  0.24981  0.33788  1.0000
  C   C260      1.0  0.50443  0.24797  0.34566  1.0000
  C   C261      1.0  0.54394  0.28682  0.35265  1.0000
  C   C262      1.0  0.55582  0.29746  0.43484  1.0000
  C   C263      1.0  0.57537  0.32133  0.43720  1.0000
  C   C264      1.0  0.58423  0.33555  0.35738  1.0000
  C   C265      1.0  0.57108  0.32510  0.27635  1.0000
  C   C266      1.0  0.55145  0.30127  0.27386  1.0000
  C   C267      1.0  0.55064  0.24117  0.41592  1.0000
  C   C268      1.0  0.56984  0.23628  0.41453  1.0000
  C   C269      1.0  0.58394  0.24009  0.33547  1.0000
  C   C270      1.0  0.57753  0.24849  0.25730  1.0000
  C   C271      1.0  0.55801  0.25284  0.25796  1.0000
  C   C272      1.0  0.49129  0.23570  0.42389  1.0000
  C   C273      1.0  0.46577  0.22284  0.42420  1.0000
  C   C274      1.0  0.45201  0.22135  0.34626  1.0000
  C   C275      1.0  0.46552  0.23387  0.26819  1.0000
  C   C276      1.0  0.49105  0.24688  0.26790  1.0000
  H   H190      1.0  0.57412  0.23086  0.47353  1.0000
  H   H191      1.0  0.54219  0.23999  0.47608  1.0000
  H   H192      1.0  0.55494  0.26021  0.20161  1.0000
  H   H193      1.0  0.58799  0.25306  0.20027  1.0000
  H   H194      1.0  0.55141  0.28721  0.49245  1.0000
  H   H195      1.0  0.58369  0.32769  0.49819  1.0000
  H   H196      1.0  0.50033  0.23625  0.48180  1.0000
  H   H197      1.0  0.45729  0.21425  0.48282  1.0000
  H   H198      1.0  0.45695  0.23413  0.21017  1.0000
  H   H199      1.0  0.49992  0.25561  0.21004  1.0000
  H   H200      1.0  0.54405  0.29380  0.21249  1.0000
  H   H201      1.0  0.57670  0.33412  0.21603  1.0000
  N   N30       1.0  0.74764  0.26061  0.34512  1.0000
  C   C277      1.0  0.75897  0.28627  0.33756  1.0000
  C   C278      1.0  0.76081  0.24795  0.34562  1.0000
  C   C279      1.0  0.72196  0.24862  0.35275  1.0000
  C   C280      1.0  0.71132  0.24986  0.43491  1.0000
  C   C281      1.0  0.68745  0.24554  0.43726  1.0000
  C   C282      1.0  0.67323  0.24016  0.35743  1.0000
  C   C283      1.0  0.68368  0.23745  0.27642  1.0000
  C   C284      1.0  0.70751  0.24167  0.27395  1.0000
  C   C285      1.0  0.76762  0.30097  0.41560  1.0000
  C   C286      1.0  0.77251  0.32506  0.41422  1.0000
  C   C287      1.0  0.76867  0.33534  0.33520  1.0000
  C   C288      1.0  0.76027  0.32053  0.25703  1.0000
  C   C289      1.0  0.75595  0.29667  0.25766  1.0000
  C   C290      1.0  0.77300  0.24702  0.42396  1.0000
  C   C291      1.0  0.78587  0.23437  0.42430  1.0000
  C   C292      1.0  0.78743  0.22216  0.34630  1.0000
  C   C293      1.0  0.77497  0.22321  0.26812  1.0000
  C   C294      1.0  0.76196  0.23572  0.26780  1.0000
  H   H202      1.0  0.77790  0.33474  0.47327  1.0000
  H   H203      1.0  0.76877  0.29368  0.47576  1.0000
  H   H204      1.0  0.74853  0.28620  0.20139  1.0000
  H   H205      1.0  0.75569  0.32641  0.20003  1.0000
  H   H206      1.0  0.72157  0.25572  0.49252  1.0000
  H   H207      1.0  0.68109  0.24750  0.49824  1.0000
  H   H208      1.0  0.77241  0.25548  0.48191  1.0000
  H   H209      1.0  0.79442  0.23444  0.48300  1.0000
  H   H210      1.0  0.77477  0.21442  0.21005  1.0000
  H   H211      1.0  0.75329  0.23592  0.20986  1.0000
  H   H212      1.0  0.71498  0.24174  0.21259  1.0000
  H   H213      1.0  0.67466  0.23406  0.21609  1.0000
  C   C295      1.0  0.19236  0.36560  0.36296  1.0000
  C   C296      1.0  0.21787  0.41723  0.34833  1.0000
  N   N31       1.0  0.21152  0.40519  0.42896  1.0000
  C   C297      1.0  0.19951  0.38071  0.44131  1.0000
  C   C298      1.0  0.19351  0.37221  0.52910  1.0000
  O   O25       1.0  0.20758  0.38424  0.58945  1.0000
  O   O26       1.0  0.16997  0.36222  0.54906  1.0000
  C   C299      1.0  0.16123  0.34407  0.61923  1.0000
  C   C300      1.0  0.13365  0.33249  0.62652  1.0000
  H   H214      1.0  0.16547  0.32986  0.60403  1.0000
  H   H215      1.0  0.12886  0.34620  0.64297  1.0000
  H   H216      1.0  0.12520  0.32397  0.56230  1.0000
  C   C301      1.0  0.64319  0.81830  0.36307  1.0000
  C   C302      1.0  0.59156  0.79218  0.34837  1.0000
  N   N32       1.0  0.60359  0.79788  0.42902  1.0000
  C   C303      1.0  0.62807  0.81035  0.44140  1.0000
  C   C304      1.0  0.63656  0.81287  0.52922  1.0000
  O   O27       1.0  0.62451  0.81489  0.58953  1.0000
  O   O28       1.0  0.64661  0.79938  0.54923  1.0000
  C   C305      1.0  0.66473  0.80881  0.61954  1.0000
  C   C306      1.0  0.67640  0.79290  0.62679  1.0000
  H   H217      1.0  0.67889  0.82729  0.60449  1.0000
  H   H218      1.0  0.66273  0.77437  0.64308  1.0000
  H   H219      1.0  0.68497  0.79304  0.56262  1.0000
  C   C307      1.0  0.19049  0.81644  0.36297  1.0000
  C   C308      1.0  0.21662  0.79094  0.34826  1.0000
  N   N33       1.0  0.21093  0.79727  0.42891  1.0000
  C   C309      1.0  0.19843  0.80926  0.44131  1.0000
  C   C310      1.0  0.19594  0.81530  0.52912  1.0000
  O   O29       1.0  0.19350  0.80084  0.58857  1.0000
  O   O30       1.0  0.20920  0.83878  0.54982  1.0000
  C   C311      1.0  0.19967  0.84710  0.62104  1.0000
  C   C312      1.0  0.21534  0.87469  0.62927  1.0000
  H   H220      1.0  0.18112  0.84262  0.60650  1.0000
  H   H221      1.0  0.23394  0.87971  0.64506  1.0000
  H   H222      1.0  0.21504  0.88324  0.56561  1.0000
  C   C313      1.0  0.82493  0.63464  0.36301  1.0000
  C   C314      1.0  0.79950  0.58300  0.34839  1.0000
  N   N34       1.0  0.80558  0.59504  0.42904  1.0000
  C   C315      1.0  0.81751  0.61952  0.44135  1.0000
  C   C316      1.0  0.82324  0.62805  0.52930  1.0000
  O   O31       1.0  0.80844  0.61624  0.58798  1.0000
  O   O32       1.0  0.84657  0.63715  0.55043  1.0000
  C   C317      1.0  0.85562  0.65541  0.62022  1.0000
  C   C318      1.0  0.88298  0.66578  0.63031  1.0000
  H   H223      1.0  0.85239  0.67020  0.60315  1.0000
  H   H224      1.0  0.88677  0.65147  0.64858  1.0000
  H   H225      1.0  0.89208  0.67395  0.56655  1.0000
  C   C319      1.0  0.37418  0.18183  0.36292  1.0000
  C   C320      1.0  0.42582  0.20803  0.34832  1.0000
  N   N35       1.0  0.41378  0.20208  0.42896  1.0000
  C   C321      1.0  0.38930  0.18954  0.44126  1.0000
  C   C322      1.0  0.38076  0.18675  0.52920  1.0000
  O   O33       1.0  0.39255  0.18373  0.58789  1.0000
  O   O34       1.0  0.37171  0.20103  0.55033  1.0000
  C   C323      1.0  0.35343  0.19183  0.62003  1.0000
  C   C324      1.0  0.34312  0.20888  0.63015  1.0000
  H   H226      1.0  0.33861  0.17384  0.60287  1.0000
  H   H227      1.0  0.35746  0.22695  0.64852  1.0000
  H   H228      1.0  0.33499  0.20985  0.56639  1.0000
  C   C325      1.0  0.82695  0.18385  0.36311  1.0000
  C   C326      1.0  0.80075  0.20929  0.34840  1.0000
  N   N36       1.0  0.80664  0.20316  0.42907  1.0000
  C   C327      1.0  0.81919  0.19122  0.44142  1.0000
  C   C328      1.0  0.82190  0.18541  0.52934  1.0000
  O   O35       1.0  0.82493  0.20020  0.58811  1.0000
  O   O36       1.0  0.80754  0.16208  0.55027  1.0000
  C   C329      1.0  0.81667  0.15289  0.61979  1.0000
  C   C330      1.0  0.79951  0.12555  0.62979  1.0000
  H   H229      1.0  0.83462  0.15596  0.60248  1.0000
  H   H230      1.0  0.78148  0.12191  0.64830  1.0000
  H   H231      1.0  0.79846  0.11644  0.56593  1.0000
  N   N37       1.0  0.19678  0.20066  0.41265  1.0000
  C   C331      1.0  0.20851  0.18796  0.42266  1.0000
  H   H232      1.0  0.20914  0.18171  0.48565  1.0000
  H   H233      1.0  0.14305  0.18357  0.62915  1.0000
  N   N38       1.0  0.80817  0.98764  0.41270  1.0000
  C   C332      1.0  0.82088  0.01207  0.42278  1.0000
  H   H234      1.0  0.82713  0.01894  0.48578  1.0000
  H   H235      1.0  0.82500  0.95158  0.62641  1.0000
  N   N39       1.0  0.02117  0.81201  0.41271  1.0000
  C   C333      1.0  0.99674  0.80027  0.42279  1.0000
  H   H236      1.0  0.98987  0.79956  0.48587  1.0000
  H   H237      1.0  0.05743  0.86551  0.62717  1.0000
  N   N40       1.0  0.82051  0.79946  0.41250  1.0000
  C   C334      1.0  0.80875  0.81213  0.42268  1.0000
  H   H238      1.0  0.80796  0.81820  0.48586  1.0000
  H   H239      1.0  0.83066  0.79835  0.66589  1.0000
  H   H240      1.0  0.87396  0.81705  0.62556  1.0000
  N   N41       1.0  0.20939  0.01261  0.41244  1.0000
  C   C335      1.0  0.19672  0.98818  0.42264  1.0000
  H   H241      1.0  0.19068  0.98133  0.48584  1.0000
  H   H242      1.0  0.21053  0.02379  0.66559  1.0000
  H   H243      1.0  0.19195  0.04847  0.62464  1.0000
  N   N42       1.0  0.99623  0.18817  0.41259  1.0000
  C   C336      1.0  0.02066  0.19989  0.42269  1.0000
  H   H244      1.0  0.02753  0.20053  0.48573  1.0000
  H   H245      1.0  0.98403  0.17915  0.66561  1.0000
  H   H246      1.0  0.95973  0.13589  0.62393  1.0000
  N   N43       1.0  0.25524  0.63590  0.41286  1.0000
  C   C337      1.0  0.25583  0.61518  0.42510  1.0000
  H   H247      1.0  0.26330  0.61339  0.48351  1.0000
  N   N44       1.0  0.37290  0.61089  0.41276  1.0000
  C   C338      1.0  0.39363  0.63221  0.42496  1.0000
  H   H248      1.0  0.39543  0.64145  0.48339  1.0000
  N   N45       1.0  0.39786  0.75349  0.41284  1.0000
  C   C339      1.0  0.37652  0.75285  0.42493  1.0000
  H   H249      1.0  0.36718  0.74525  0.48307  1.0000
  N   N46       1.0  0.76199  0.36427  0.41267  1.0000
  C   C340      1.0  0.76135  0.38497  0.42475  1.0000
  H   H250      1.0  0.75370  0.38670  0.48279  1.0000
  N   N47       1.0  0.64452  0.38921  0.41287  1.0000
  C   C341      1.0  0.62382  0.36786  0.42488  1.0000
  H   H251      1.0  0.62210  0.35848  0.48290  1.0000
  N   N48       1.0  0.61956  0.24679  0.41287  1.0000
  C   C342      1.0  0.64091  0.24744  0.42492  1.0000
  H   H252      1.0  0.65028  0.25509  0.48295  1.0000
