data_image0
_chemical_formula_structural       C15HNO2CHC3HNO2CHC3HNO2CHC3HNO2CHC3HNO2CHC3HNO2CHC3HNO2CHC3HNO2CHC3HNO2CHC3HNO2CHC3HNO2CHC3HNO2CHC3HNO2CHC3HNO2CHC3HNO2CHC3HNO2CHC3HNO2CHC3HNO2CHC3HNO2CHC3HNO2CHC3HNO2CHC3HNO2CHC3HNO2CHC3HNO2CHC3HNO2CHC3HNO2CHC3HNO2CHC3HNO2CHC3HNO2CHC3HNO2CHC3HNO2CHC3HNO2CHC3HNO2CHC3HNO2CHC3HNO2CHC3HNO2CHCNCNCN4CNCNCN4CNCNCN4CNCNCN4CNCNCN4CNCNCN5CNCN5CNCN5CNCN5CNCN5CNCN5CNCN4CNCNCN4CNCNCN4CNCNCN4CNCNCN4CNCNCN4CNCNCN5CNCN5CNCN5CNCN5CNCN5CNCN5CNCN4C3HNO2CHC3HNO2CHC3HNO2CHC3HNO2CHC3HNO2CHC3HNO2CHC3HNO2CHC3HNO2CHC3HNO2CHC3HNO2CHC3HNO2CHC3HNO2CHC3HNO2CHC3HNO2CHC3HNO2CHC3HNO2CHC3HNO2CHC3HNO2CHC3HNO2CHC3HNO2CHC3HNO2CHC3HNO2CHC3HNO2CHC3HNO2CHC3HNO2CHC3HNO2CHC3HNO2CHC3HNO2CHC3HNO2CHC3HNO2CHC3HNO2CHC3HNO2CHC3HNO2CHC3HNO2CHC3HNO2CHC3HNO2CH
_chemical_formula_sum              "C360 H144 N216 O144"
_cell_length_a       82.9251
_cell_length_b       82.9252
_cell_length_c       14.7645
_cell_angle_alpha    90
_cell_angle_beta     90
_cell_angle_gamma    120

_space_group_name_H-M_alt    "P 1"
_space_group_IT_number       1

loop_
  _space_group_symop_operation_xyz
  'x, y, z'

loop_
  _atom_site_type_symbol
  _atom_site_label
  _atom_site_symmetry_multiplicity
  _atom_site_fract_x
  _atom_site_fract_y
  _atom_site_fract_z
  _atom_site_occupancy
  C   C1        1.0  0.53939  0.18424  0.35513  1.0000
  C   C2        1.0  0.66081  0.48061  0.35552  1.0000
  C   C3        1.0  0.83582  0.35917  0.35530  1.0000
  C   C4        1.0  0.48460  0.83182  0.35526  1.0000
  C   C5        1.0  0.36311  0.53536  0.35517  1.0000
  C   C6        1.0  0.18820  0.65683  0.35540  1.0000
  C   C7        1.0  0.33500  0.07938  0.34934  1.0000
  C   C8        1.0  0.76035  0.68496  0.34934  1.0000
  C   C9        1.0  0.94053  0.25952  0.34944  1.0000
  C   C10       1.0  0.68897  0.93655  0.34947  1.0000
  C   C11       1.0  0.26357  0.33099  0.34949  1.0000
  C   C12       1.0  0.08333  0.75631  0.34926  1.0000
  C   C13       1.0  0.13402  0.41320  0.33502  1.0000
  C   C14       1.0  0.13919  0.42540  0.25925  1.0000
  C   C15       1.0  0.14817  0.44495  0.27307  1.0000
  H   H1        1.0  0.15289  0.45356  0.21787  1.0000
  N   N1        1.0  0.13601  0.41790  0.17043  1.0000
  O   O1        1.0  0.12561  0.42197  0.12609  1.0000
  O   O2        1.0  0.15097  0.42351  0.12750  1.0000
  C   C16       1.0  0.12909  0.39465  0.32221  1.0000
  H   H2        1.0  0.13873  0.39229  0.29540  1.0000
  C   C17       1.0  0.60666  0.72476  0.33496  1.0000
  C   C18       1.0  0.59446  0.71771  0.25917  1.0000
  C   C19       1.0  0.57492  0.70716  0.27294  1.0000
  H   H3        1.0  0.56630  0.70326  0.21774  1.0000
  N   N2        1.0  0.60198  0.72204  0.17037  1.0000
  O   O3        1.0  0.59790  0.70756  0.12605  1.0000
  O   O4        1.0  0.59636  0.73138  0.12740  1.0000
  C   C20       1.0  0.62520  0.73837  0.32216  1.0000
  H   H4        1.0  0.62756  0.75040  0.29564  1.0000
  C   C21       1.0  0.29513  0.88592  0.33505  1.0000
  C   C22       1.0  0.30218  0.88078  0.25926  1.0000
  C   C23       1.0  0.31274  0.87180  0.27306  1.0000
  H   H5        1.0  0.31667  0.86711  0.21786  1.0000
  N   N3        1.0  0.29785  0.88396  0.17048  1.0000
  O   O5        1.0  0.31232  0.89438  0.12615  1.0000
  O   O6        1.0  0.28852  0.86901  0.12750  1.0000
  C   C24       1.0  0.28149  0.89082  0.32238  1.0000
  H   H6        1.0  0.26947  0.88115  0.29585  1.0000
  C   C25       1.0  0.88987  0.60268  0.33499  1.0000
  C   C26       1.0  0.88471  0.59048  0.25922  1.0000
  C   C27       1.0  0.87572  0.57094  0.27311  1.0000
  H   H7        1.0  0.87103  0.56231  0.21795  1.0000
  N   N4        1.0  0.88789  0.59798  0.17039  1.0000
  O   O7        1.0  0.89830  0.59390  0.12613  1.0000
  O   O8        1.0  0.87294  0.59235  0.12741  1.0000
  C   C28       1.0  0.89480  0.62123  0.32211  1.0000
  H   H8        1.0  0.88515  0.62359  0.29536  1.0000
  C   C29       1.0  0.41720  0.29114  0.33501  1.0000
  C   C30       1.0  0.42940  0.29818  0.25924  1.0000
  C   C31       1.0  0.44894  0.30874  0.27305  1.0000
  H   H9        1.0  0.45756  0.31265  0.21783  1.0000
  N   N5        1.0  0.42189  0.29386  0.17043  1.0000
  O   O9        1.0  0.42597  0.30835  0.12614  1.0000
  O   O10       1.0  0.42751  0.28453  0.12743  1.0000
  C   C32       1.0  0.39866  0.27753  0.32218  1.0000
  H   H10       1.0  0.39629  0.26552  0.29548  1.0000
  C   C33       1.0  0.72876  0.13003  0.33492  1.0000
  C   C34       1.0  0.72171  0.13518  0.25913  1.0000
  C   C35       1.0  0.71115  0.14417  0.27290  1.0000
  H   H11       1.0  0.70726  0.14889  0.21769  1.0000
  N   N6        1.0  0.72603  0.13199  0.17033  1.0000
  O   O11       1.0  0.71154  0.12158  0.12604  1.0000
  O   O12       1.0  0.73537  0.14694  0.12732  1.0000
  C   C36       1.0  0.74237  0.12510  0.32210  1.0000
  H   H12       1.0  0.75439  0.13477  0.29548  1.0000
  C   C37       1.0  0.45669  0.14833  0.33813  1.0000
  C   C38       1.0  0.44440  0.14277  0.26354  1.0000
  C   C39       1.0  0.42483  0.13373  0.27502  1.0000
  H   H13       1.0  0.44971  0.14641  0.19940  1.0000
  N   N7        1.0  0.41297  0.12955  0.19877  1.0000
  O   O13       1.0  0.41453  0.11859  0.14550  1.0000
  O   O14       1.0  0.41636  0.14400  0.15582  1.0000
  C   C40       1.0  0.47540  0.16122  0.32468  1.0000
  H   H14       1.0  0.47810  0.17192  0.28427  1.0000
  C   C41       1.0  0.70765  0.56330  0.33780  1.0000
  C   C42       1.0  0.71438  0.57560  0.26325  1.0000
  C   C43       1.0  0.72490  0.59517  0.27482  1.0000
  H   H15       1.0  0.71266  0.57029  0.19908  1.0000
  N   N8        1.0  0.73257  0.60704  0.19865  1.0000
  O   O15       1.0  0.72005  0.60550  0.14542  1.0000
  O   O16       1.0  0.74364  0.60367  0.15563  1.0000
  C   C44       1.0  0.70175  0.54457  0.32434  1.0000
  H   H16       1.0  0.70969  0.54183  0.28368  1.0000
  C   C45       1.0  0.87165  0.31231  0.33807  1.0000
  C   C46       1.0  0.87723  0.30559  0.26356  1.0000
  C   C47       1.0  0.88628  0.29507  0.27516  1.0000
  H   H17       1.0  0.87367  0.30732  0.19936  1.0000
  N   N9        1.0  0.89051  0.28742  0.19898  1.0000
  O   O17       1.0  0.90150  0.29996  0.14584  1.0000
  O   O18       1.0  0.87608  0.27636  0.15585  1.0000
  C   C48       1.0  0.85881  0.31819  0.32459  1.0000
  H   H18       1.0  0.84812  0.31023  0.28403  1.0000
  C   C49       1.0  0.56730  0.86766  0.33824  1.0000
  C   C50       1.0  0.57959  0.87324  0.26366  1.0000
  C   C51       1.0  0.59916  0.88226  0.27524  1.0000
  H   H19       1.0  0.57429  0.86962  0.19950  1.0000
  N   N10       1.0  0.61103  0.88646  0.19905  1.0000
  O   O19       1.0  0.60950  0.89744  0.14582  1.0000
  O   O20       1.0  0.60764  0.87201  0.15604  1.0000
  C   C52       1.0  0.54858  0.85481  0.32470  1.0000
  H   H20       1.0  0.54586  0.84413  0.28413  1.0000
  C   C53       1.0  0.31631  0.45267  0.33828  1.0000
  C   C54       1.0  0.30958  0.44037  0.26371  1.0000
  C   C55       1.0  0.29904  0.42080  0.27524  1.0000
  H   H21       1.0  0.31127  0.44568  0.19954  1.0000
  N   N11       1.0  0.29138  0.40894  0.19902  1.0000
  O   O21       1.0  0.30390  0.41048  0.14578  1.0000
  O   O22       1.0  0.28032  0.41233  0.15601  1.0000
  C   C56       1.0  0.32216  0.47138  0.32470  1.0000
  H   H22       1.0  0.31418  0.47408  0.28419  1.0000
  C   C57       1.0  0.15231  0.70363  0.33784  1.0000
  C   C58       1.0  0.14673  0.71036  0.26327  1.0000
  C   C59       1.0  0.13768  0.72087  0.27485  1.0000
  H   H23       1.0  0.15033  0.70864  0.19910  1.0000
  N   N12       1.0  0.13347  0.72854  0.19867  1.0000
  O   O23       1.0  0.12249  0.71601  0.14546  1.0000
  O   O24       1.0  0.14791  0.73960  0.15564  1.0000
  C   C60       1.0  0.16515  0.69775  0.32438  1.0000
  H   H24       1.0  0.17583  0.70570  0.28375  1.0000
  C   C61       1.0  0.25301  0.52424  0.32869  1.0000
  C   C62       1.0  0.26322  0.52331  0.25445  1.0000
  C   C63       1.0  0.27995  0.52294  0.26681  1.0000
  H   H25       1.0  0.25797  0.52182  0.19027  1.0000
  N   N13       1.0  0.28931  0.52076  0.19146  1.0000
  O   O25       1.0  0.29448  0.53400  0.13642  1.0000
  O   O26       1.0  0.27922  0.50574  0.15021  1.0000
  C   C64       1.0  0.23499  0.52063  0.31525  1.0000
  H   H26       1.0  0.22707  0.51041  0.27231  1.0000
  C   C65       1.0  0.49568  0.73282  0.32888  1.0000
  C   C66       1.0  0.49660  0.74396  0.25461  1.0000
  C   C67       1.0  0.49699  0.76106  0.26702  1.0000
  H   H27       1.0  0.49812  0.74021  0.19045  1.0000
  N   N14       1.0  0.49919  0.77261  0.19168  1.0000
  O   O27       1.0  0.48596  0.76455  0.13660  1.0000
  O   O28       1.0  0.51422  0.77753  0.15047  1.0000
  C   C68       1.0  0.49930  0.71842  0.31533  1.0000
  H   H28       1.0  0.50954  0.72073  0.27252  1.0000
  C   C69       1.0  0.28715  0.76694  0.32897  1.0000
  C   C70       1.0  0.27601  0.75672  0.25471  1.0000
  C   C71       1.0  0.25890  0.74000  0.26713  1.0000
  H   H29       1.0  0.27976  0.76198  0.19054  1.0000
  N   N15       1.0  0.24736  0.73065  0.19178  1.0000
  O   O29       1.0  0.25543  0.72547  0.13675  1.0000
  O   O30       1.0  0.24244  0.74075  0.15053  1.0000
  C   C72       1.0  0.30155  0.78495  0.31540  1.0000
  H   H30       1.0  0.29924  0.79288  0.27255  1.0000
  C   C73       1.0  0.77089  0.49172  0.32883  1.0000
  C   C74       1.0  0.76067  0.49264  0.25461  1.0000
  C   C75       1.0  0.74395  0.49302  0.26707  1.0000
  H   H31       1.0  0.76591  0.49411  0.19042  1.0000
  N   N16       1.0  0.73457  0.49520  0.19176  1.0000
  O   O31       1.0  0.72939  0.48194  0.13679  1.0000
  O   O32       1.0  0.74467  0.51021  0.15043  1.0000
  C   C76       1.0  0.78890  0.49532  0.31525  1.0000
  H   H32       1.0  0.79683  0.50553  0.27232  1.0000
  C   C77       1.0  0.52826  0.28321  0.32863  1.0000
  C   C78       1.0  0.52733  0.27206  0.25440  1.0000
  C   C79       1.0  0.52697  0.25497  0.26678  1.0000
  H   H33       1.0  0.52585  0.27583  0.19022  1.0000
  N   N17       1.0  0.52478  0.24343  0.19143  1.0000
  O   O33       1.0  0.53803  0.25151  0.13638  1.0000
  O   O34       1.0  0.50976  0.23850  0.15019  1.0000
  C   C80       1.0  0.52465  0.29762  0.31517  1.0000
  H   H34       1.0  0.51443  0.29532  0.27225  1.0000
  C   C81       1.0  0.73683  0.24909  0.32891  1.0000
  C   C82       1.0  0.74797  0.25931  0.25464  1.0000
  C   C83       1.0  0.76507  0.27603  0.26707  1.0000
  H   H35       1.0  0.74422  0.25404  0.19048  1.0000
  N   N18       1.0  0.77663  0.28538  0.19173  1.0000
  O   O35       1.0  0.76856  0.29056  0.13665  1.0000
  O   O36       1.0  0.78154  0.27527  0.15052  1.0000
  C   C84       1.0  0.72244  0.23107  0.31536  1.0000
  H   H36       1.0  0.72474  0.22315  0.27252  1.0000
  C   C85       1.0  0.19000  0.61402  0.34437  1.0000
  C   C86       1.0  0.18925  0.60330  0.26758  1.0000
  C   C87       1.0  0.18890  0.58616  0.27984  1.0000
  H   H37       1.0  0.18945  0.57914  0.22395  1.0000
  N   N19       1.0  0.18968  0.61029  0.17936  1.0000
  O   O37       1.0  0.17542  0.59944  0.13471  1.0000
  O   O38       1.0  0.20385  0.61300  0.13592  1.0000
  C   C88       1.0  0.19456  0.63248  0.33268  1.0000
  H   H38       1.0  0.20683  0.64089  0.30398  1.0000
  C   C89       1.0  0.40590  0.57994  0.34383  1.0000
  C   C90       1.0  0.41696  0.58965  0.26738  1.0000
  C   C91       1.0  0.43404  0.60649  0.27999  1.0000
  H   H39       1.0  0.44131  0.61387  0.22416  1.0000
  N   N20       1.0  0.41037  0.58277  0.17904  1.0000
  O   O39       1.0  0.42143  0.57921  0.13728  1.0000
  O   O40       1.0  0.40787  0.59407  0.13295  1.0000
  C   C92       1.0  0.38752  0.56598  0.33100  1.0000
  H   H40       1.0  0.37918  0.56973  0.30055  1.0000
  C   C93       1.0  0.44005  0.83006  0.34397  1.0000
  C   C94       1.0  0.43032  0.83139  0.26753  1.0000
  C   C95       1.0  0.41349  0.83165  0.28008  1.0000
  H   H41       1.0  0.40610  0.83152  0.22421  1.0000
  N   N21       1.0  0.43720  0.83168  0.17920  1.0000
  O   O41       1.0  0.44076  0.84628  0.13736  1.0000
  O   O42       1.0  0.42589  0.81786  0.13314  1.0000
  C   C96       1.0  0.45399  0.82562  0.33118  1.0000
  H   H42       1.0  0.45023  0.81353  0.30078  1.0000
  C   C97       1.0  0.83406  0.40197  0.34395  1.0000
  C   C98       1.0  0.83539  0.41302  0.26748  1.0000
  C   C99       1.0  0.83564  0.43011  0.27997  1.0000
  H   H43       1.0  0.83550  0.43735  0.22409  1.0000
  N   N22       1.0  0.83568  0.40641  0.17917  1.0000
  O   O43       1.0  0.85029  0.41746  0.13734  1.0000
  O   O44       1.0  0.82186  0.40390  0.13310  1.0000
  C   C100      1.0  0.82961  0.38358  0.33121  1.0000
  H   H44       1.0  0.81752  0.37524  0.30083  1.0000
  C   C101      1.0  0.61801  0.43601  0.34453  1.0000
  C   C102      1.0  0.60729  0.42604  0.26772  1.0000
  C   C103      1.0  0.59015  0.40924  0.27995  1.0000
  H   H45       1.0  0.58314  0.40167  0.22405  1.0000
  N   N23       1.0  0.61430  0.43260  0.17952  1.0000
  O   O45       1.0  0.60345  0.43601  0.13482  1.0000
  O   O46       1.0  0.61701  0.42114  0.13611  1.0000
  C   C104      1.0  0.63646  0.44989  0.33288  1.0000
  H   H46       1.0  0.64488  0.44603  0.30429  1.0000
  C   C105      1.0  0.58396  0.18602  0.34384  1.0000
  C   C106      1.0  0.59368  0.18468  0.26738  1.0000
  C   C107      1.0  0.61051  0.18443  0.27997  1.0000
  H   H47       1.0  0.61789  0.18453  0.22414  1.0000
  N   N24       1.0  0.58679  0.18439  0.17906  1.0000
  O   O47       1.0  0.58323  0.16977  0.13726  1.0000
  O   O48       1.0  0.59810  0.19820  0.13297  1.0000
  C   C108      1.0  0.57001  0.19045  0.33106  1.0000
  H   H48       1.0  0.57376  0.20254  0.30061  1.0000
  C   C109      1.0  0.03216  0.30676  0.33914  1.0000
  C   C110      1.0  0.02048  0.30165  0.26210  1.0000
  C   C111      1.0  0.00071  0.29176  0.26873  1.0000
  H   H49       1.0  0.02640  0.30609  0.19956  1.0000
  N   N25       1.0  0.98955  0.28789  0.19008  1.0000
  O   O49       1.0  0.99216  0.27775  0.13573  1.0000
  O   O50       1.0  0.99280  0.30256  0.14970  1.0000
  C   C112      1.0  0.05106  0.32028  0.33152  1.0000
  H   H50       1.0  0.05368  0.33240  0.30508  1.0000
  C   C113      1.0  0.71310  0.72933  0.33915  1.0000
  C   C114      1.0  0.71820  0.72277  0.26205  1.0000
  C   C115      1.0  0.72807  0.71287  0.26866  1.0000
  H   H51       1.0  0.71372  0.72422  0.19954  1.0000
  N   N26       1.0  0.73191  0.70556  0.19000  1.0000
  O   O51       1.0  0.74205  0.71829  0.13557  1.0000
  O   O52       1.0  0.71723  0.69414  0.14970  1.0000
  C   C116      1.0  0.69959  0.73473  0.33139  1.0000
  H   H52       1.0  0.68749  0.72526  0.30463  1.0000
  C   C117      1.0  0.29045  0.98774  0.33978  1.0000
  C   C118      1.0  0.29647  0.99934  0.26236  1.0000
  C   C119      1.0  0.30644  0.01912  0.26859  1.0000
  H   H53       1.0  0.29457  0.99336  0.19970  1.0000
  N   N27       1.0  0.31316  0.03021  0.18940  1.0000
  O   O53       1.0  0.32424  0.02689  0.14617  1.0000
  O   O54       1.0  0.30003  0.02759  0.13773  1.0000
  C   C120      1.0  0.28511  0.96885  0.33171  1.0000
  H   H54       1.0  0.29464  0.96628  0.30535  1.0000
  C   C121      1.0  0.99173  0.70909  0.33907  1.0000
  C   C122      1.0  0.00341  0.71422  0.26203  1.0000
  C   C123      1.0  0.02318  0.72408  0.26872  1.0000
  H   H55       1.0  0.99749  0.70978  0.19948  1.0000
  N   N28       1.0  0.03435  0.72796  0.19011  1.0000
  O   O55       1.0  0.03177  0.73812  0.13582  1.0000
  O   O56       1.0  0.03109  0.71330  0.14963  1.0000
  C   C124      1.0  0.97282  0.69560  0.33130  1.0000
  H   H56       1.0  0.97017  0.68351  0.30438  1.0000
  C   C125      1.0  0.31078  0.28658  0.33929  1.0000
  C   C126      1.0  0.30567  0.29314  0.26224  1.0000
  C   C127      1.0  0.29579  0.30304  0.26886  1.0000
  H   H57       1.0  0.31010  0.29165  0.19970  1.0000
  N   N29       1.0  0.29192  0.31032  0.19019  1.0000
  O   O57       1.0  0.28177  0.29757  0.13589  1.0000
  O   O58       1.0  0.30659  0.32173  0.14976  1.0000
  C   C128      1.0  0.32429  0.28119  0.33168  1.0000
  H   H58       1.0  0.33641  0.29067  0.30514  1.0000
  C   C129      1.0  0.73334  0.02817  0.33917  1.0000
  C   C130      1.0  0.72679  0.01649  0.26211  1.0000
  C   C131      1.0  0.71689  0.99672  0.26879  1.0000
  H   H59       1.0  0.72823  0.02241  0.19958  1.0000
  N   N30       1.0  0.70958  0.98556  0.19017  1.0000
  O   O59       1.0  0.72231  0.98815  0.13576  1.0000
  O   O60       1.0  0.69815  0.98881  0.14984  1.0000
  C   C132      1.0  0.73875  0.04708  0.33132  1.0000
  H   H60       1.0  0.72930  0.04971  0.30432  1.0000
  C   C133      1.0  0.15930  0.33746  0.33730  1.0000
  C   C134      1.0  0.17007  0.33827  0.26131  1.0000
  C   C135      1.0  0.18721  0.33838  0.26976  1.0000
  H   H61       1.0  0.16606  0.34008  0.19828  1.0000
  N   N31       1.0  0.19819  0.34054  0.19213  1.0000
  O   O61       1.0  0.18961  0.32740  0.13708  1.0000
  O   O62       1.0  0.20299  0.35565  0.15201  1.0000
  C   C136      1.0  0.14567  0.34262  0.32787  1.0000
  H   H62       1.0  0.15004  0.35503  0.29960  1.0000
  C   C137      1.0  0.68238  0.82577  0.33704  1.0000
  C   C138      1.0  0.68163  0.83578  0.26110  1.0000
  C   C139      1.0  0.68157  0.85283  0.26971  1.0000
  H   H63       1.0  0.67986  0.82999  0.19801  1.0000
  N   N32       1.0  0.67946  0.86170  0.19219  1.0000
  O   O63       1.0  0.69262  0.86627  0.13725  1.0000
  O   O64       1.0  0.66436  0.85144  0.15188  1.0000
  C   C140      1.0  0.67727  0.80699  0.32751  1.0000
  H   H64       1.0  0.66491  0.79896  0.29870  1.0000
  C   C141      1.0  0.19410  0.86056  0.33701  1.0000
  C   C142      1.0  0.18411  0.84980  0.26107  1.0000
  C   C143      1.0  0.16705  0.83268  0.26960  1.0000
  H   H65       1.0  0.18990  0.85381  0.19799  1.0000
  N   N33       1.0  0.15820  0.82170  0.19204  1.0000
  O   O65       1.0  0.15365  0.83030  0.13703  1.0000
  O   O66       1.0  0.16848  0.81687  0.15184  1.0000
  C   C144      1.0  0.21288  0.87421  0.32768  1.0000
  H   H66       1.0  0.22093  0.86986  0.29935  1.0000
  C   C145      1.0  0.86458  0.67841  0.33704  1.0000
  C   C146      1.0  0.85383  0.67765  0.26106  1.0000
  C   C147      1.0  0.83670  0.67757  0.26965  1.0000
  H   H67       1.0  0.85782  0.67584  0.19799  1.0000
  N   N34       1.0  0.82571  0.67543  0.19210  1.0000
  O   O67       1.0  0.83430  0.68857  0.13705  1.0000
  O   O68       1.0  0.82088  0.66032  0.15194  1.0000
  C   C148      1.0  0.87824  0.67329  0.32744  1.0000
  H   H68       1.0  0.87392  0.66095  0.29859  1.0000
  C   C149      1.0  0.34147  0.19013  0.33753  1.0000
  C   C150      1.0  0.34226  0.18015  0.26155  1.0000
  C   C151      1.0  0.34237  0.16312  0.27002  1.0000
  H   H69       1.0  0.34406  0.18595  0.19850  1.0000
  N   N35       1.0  0.34452  0.15429  0.19240  1.0000
  O   O69       1.0  0.33137  0.14972  0.13742  1.0000
  O   O70       1.0  0.35962  0.16460  0.15220  1.0000
  C   C152      1.0  0.34662  0.20891  0.32802  1.0000
  H   H70       1.0  0.35902  0.21695  0.29960  1.0000
  C   C153      1.0  0.82976  0.15534  0.33697  1.0000
  C   C154      1.0  0.83978  0.16609  0.26106  1.0000
  C   C155      1.0  0.85683  0.18321  0.26973  1.0000
  H   H71       1.0  0.83401  0.16207  0.19795  1.0000
  N   N36       1.0  0.86572  0.19420  0.19223  1.0000
  O   O71       1.0  0.87029  0.18561  0.13731  1.0000
  O   O72       1.0  0.85545  0.19903  0.15188  1.0000
  C   C156      1.0  0.81099  0.14166  0.32735  1.0000
  H   H72       1.0  0.80296  0.14596  0.29830  1.0000
  C   C157      1.0  0.18824  0.53537  0.34533  1.0000
  N   N37       1.0  0.17436  0.51724  0.33844  1.0000
  C   C158      1.0  0.17818  0.50304  0.34137  1.0000
  N   N38       1.0  0.19629  0.50750  0.34745  1.0000
  C   C159      1.0  0.21044  0.52535  0.35245  1.0000
  N   N39       1.0  0.20621  0.53915  0.35209  1.0000
  N   N40       1.0  0.18441  0.54917  0.34111  1.0000
  N   N41       1.0  0.22796  0.52917  0.35813  1.0000
  N   N42       1.0  0.16499  0.48514  0.33479  1.0000
  C   C160      1.0  0.48449  0.65689  0.34533  1.0000
  N   N43       1.0  0.50262  0.66113  0.33840  1.0000
  C   C161      1.0  0.51682  0.67914  0.34127  1.0000
  N   N44       1.0  0.51239  0.69281  0.34733  1.0000
  C   C162      1.0  0.49454  0.68912  0.35236  1.0000
  N   N45       1.0  0.48073  0.67110  0.35205  1.0000
  N   N46       1.0  0.47067  0.63926  0.34124  1.0000
  N   N47       1.0  0.49073  0.70282  0.35807  1.0000
  N   N48       1.0  0.53472  0.68382  0.33465  1.0000
  C   C163      1.0  0.36307  0.83168  0.34546  1.0000
  N   N49       1.0  0.35883  0.84557  0.33855  1.0000
  C   C164      1.0  0.34082  0.84177  0.34141  1.0000
  N   N50       1.0  0.32715  0.82366  0.34745  1.0000
  C   C165      1.0  0.33084  0.80950  0.35247  1.0000
  N   N51       1.0  0.34886  0.81372  0.35217  1.0000
  N   N52       1.0  0.38070  0.83550  0.34142  1.0000
  N   N53       1.0  0.31715  0.79199  0.35819  1.0000
  N   N54       1.0  0.33614  0.85498  0.33482  1.0000
  C   C166      1.0  0.83563  0.48053  0.34531  1.0000
  N   N55       1.0  0.84952  0.49866  0.33838  1.0000
  C   C167      1.0  0.84571  0.51287  0.34127  1.0000
  N   N56       1.0  0.82761  0.50843  0.34735  1.0000
  C   C168      1.0  0.81345  0.49058  0.35238  1.0000
  N   N57       1.0  0.81767  0.47677  0.35207  1.0000
  N   N58       1.0  0.83946  0.46673  0.34124  1.0000
  N   N59       1.0  0.79594  0.48677  0.35812  1.0000
  N   N60       1.0  0.85891  0.53076  0.33465  1.0000
  C   C169      1.0  0.53937  0.35910  0.34539  1.0000
  N   N61       1.0  0.52123  0.35484  0.33847  1.0000
  C   C170      1.0  0.50704  0.33682  0.34133  1.0000
  N   N62       1.0  0.51150  0.32317  0.34741  1.0000
  C   C171      1.0  0.52936  0.32688  0.35245  1.0000
  N   N63       1.0  0.54315  0.34491  0.35211  1.0000
  N   N64       1.0  0.55317  0.37674  0.34120  1.0000
  N   N65       1.0  0.53319  0.31320  0.35810  1.0000
  N   N66       1.0  0.48914  0.33211  0.33477  1.0000
  C   C172      1.0  0.66091  0.18436  0.34531  1.0000
  N   N67       1.0  0.66514  0.17047  0.33836  1.0000
  C   C173      1.0  0.68315  0.17427  0.34121  1.0000
  N   N68       1.0  0.69682  0.19237  0.34731  1.0000
  C   C174      1.0  0.69314  0.20653  0.35238  1.0000
  N   N69       1.0  0.67512  0.20232  0.35206  1.0000
  N   N70       1.0  0.64328  0.18055  0.34124  1.0000
  N   N71       1.0  0.70683  0.22404  0.35810  1.0000
  N   N72       1.0  0.68783  0.16106  0.33462  1.0000
  N   N73       1.0  0.52126  0.17033  0.36128  1.0000
  C   C175      1.0  0.50703  0.17410  0.35811  1.0000
  N   N74       1.0  0.51147  0.19221  0.35234  1.0000
  C   C176      1.0  0.52931  0.20642  0.34805  1.0000
  N   N75       1.0  0.54311  0.20220  0.34877  1.0000
  N   N76       1.0  0.55316  0.18035  0.35972  1.0000
  N   N77       1.0  0.53327  0.22399  0.34167  1.0000
  N   N78       1.0  0.48913  0.16089  0.36429  1.0000
  N   N79       1.0  0.66504  0.49875  0.36145  1.0000
  C   C177      1.0  0.68304  0.51297  0.35834  1.0000
  N   N80       1.0  0.69671  0.50854  0.35279  1.0000
  C   C178      1.0  0.69308  0.49070  0.34866  1.0000
  N   N81       1.0  0.67506  0.47690  0.34930  1.0000
  N   N82       1.0  0.64314  0.46685  0.35973  1.0000
  N   N83       1.0  0.70668  0.48673  0.34229  1.0000
  N   N84       1.0  0.68774  0.53088  0.36443  1.0000
  N   N85       1.0  0.84973  0.35494  0.36142  1.0000
  C   C179      1.0  0.84594  0.33693  0.35824  1.0000
  N   N86       1.0  0.82783  0.32327  0.35255  1.0000
  C   C180      1.0  0.81362  0.32691  0.34831  1.0000
  N   N87       1.0  0.81786  0.34494  0.34899  1.0000
  N   N88       1.0  0.83972  0.37683  0.35986  1.0000
  N   N89       1.0  0.79606  0.31331  0.34196  1.0000
  N   N90       1.0  0.85914  0.33223  0.36444  1.0000
  N   N91       1.0  0.50274  0.84572  0.36142  1.0000
  C   C181      1.0  0.51696  0.84193  0.35824  1.0000
  N   N92       1.0  0.51251  0.82382  0.35253  1.0000
  C   C182      1.0  0.49467  0.80962  0.34827  1.0000
  N   N93       1.0  0.48087  0.81386  0.34895  1.0000
  N   N94       1.0  0.47084  0.83572  0.35985  1.0000
  N   N95       1.0  0.49069  0.79205  0.34192  1.0000
  N   N96       1.0  0.53487  0.85513  0.36449  1.0000
  N   N97       1.0  0.35889  0.51723  0.36136  1.0000
  C   C183      1.0  0.34089  0.50301  0.35818  1.0000
  N   N98       1.0  0.32722  0.50744  0.35242  1.0000
  C   C184      1.0  0.33085  0.52528  0.34812  1.0000
  N   N99       1.0  0.34887  0.53908  0.34881  1.0000
  N   N100      1.0  0.38077  0.54913  0.35975  1.0000
  N   N101      1.0  0.31724  0.52924  0.34172  1.0000
  N   N102      1.0  0.33620  0.48510  0.36444  1.0000
  N   N103      1.0  0.17428  0.66104  0.36137  1.0000
  C   C185      1.0  0.17805  0.67904  0.35829  1.0000
  N   N104      1.0  0.19616  0.69272  0.35276  1.0000
  C   C186      1.0  0.21038  0.68910  0.34861  1.0000
  N   N105      1.0  0.20616  0.67108  0.34921  1.0000
  N   N106      1.0  0.18428  0.63915  0.35963  1.0000
  N   N107      1.0  0.22794  0.70271  0.34225  1.0000
  N   N108      1.0  0.16484  0.68374  0.36440  1.0000
  C   C187      1.0  0.08344  0.33107  0.35101  1.0000
  N   N109      1.0  0.09664  0.32571  0.35282  1.0000
  C   C188      1.0  0.11534  0.33829  0.34940  1.0000
  N   N110      1.0  0.12049  0.35665  0.34671  1.0000
  C   C189      1.0  0.10799  0.36272  0.34521  1.0000
  N   N111      1.0  0.08959  0.34973  0.34851  1.0000
  N   N112      1.0  0.06508  0.31841  0.35515  1.0000
  N   N113      1.0  0.11341  0.38081  0.34808  1.0000
  N   N114      1.0  0.12845  0.33317  0.35382  1.0000
  C   C190      1.0  0.68879  0.75631  0.35112  1.0000
  N   N115      1.0  0.69415  0.77487  0.35299  1.0000
  C   C191      1.0  0.68157  0.78099  0.34951  1.0000
  N   N116      1.0  0.66320  0.76777  0.34674  1.0000
  C   C192      1.0  0.65714  0.74921  0.34520  1.0000
  N   N117      1.0  0.67013  0.74380  0.34853  1.0000
  N   N118      1.0  0.70144  0.75060  0.35532  1.0000
  N   N119      1.0  0.63905  0.73654  0.34796  1.0000
  N   N120      1.0  0.68667  0.79921  0.35400  1.0000
  C   C193      1.0  0.26352  0.93645  0.35089  1.0000
  N   N121      1.0  0.24497  0.92325  0.35269  1.0000
  C   C194      1.0  0.23886  0.90454  0.34926  1.0000
  N   N122      1.0  0.25209  0.89941  0.34656  1.0000
  C   C195      1.0  0.27064  0.91192  0.34508  1.0000
  N   N123      1.0  0.27604  0.93031  0.34838  1.0000
  N   N124      1.0  0.26921  0.95481  0.35515  1.0000
  N   N125      1.0  0.28333  0.90652  0.34794  1.0000
  N   N126      1.0  0.22064  0.89143  0.35366  1.0000
  C   C196      1.0  0.94044  0.68481  0.35115  1.0000
  N   N127      1.0  0.92724  0.69017  0.35297  1.0000
  C   C197      1.0  0.90854  0.67759  0.34942  1.0000
  N   N128      1.0  0.90339  0.65923  0.34670  1.0000
  C   C198      1.0  0.91589  0.65316  0.34521  1.0000
  N   N129      1.0  0.93429  0.66615  0.34856  1.0000
  N   N130      1.0  0.95880  0.69745  0.35536  1.0000
  N   N131      1.0  0.91047  0.63507  0.34804  1.0000
  N   N132      1.0  0.89543  0.68270  0.35395  1.0000
  C   C199      1.0  0.33508  0.25959  0.35123  1.0000
  N   N133      1.0  0.32971  0.24103  0.35306  1.0000
  C   C200      1.0  0.34229  0.23490  0.34957  1.0000
  N   N134      1.0  0.36066  0.24813  0.34682  1.0000
  C   C201      1.0  0.36672  0.26669  0.34525  1.0000
  N   N135      1.0  0.35374  0.27210  0.34863  1.0000
  N   N136      1.0  0.32242  0.26530  0.35538  1.0000
  N   N137      1.0  0.38481  0.27936  0.34809  1.0000
  N   N138      1.0  0.33719  0.21669  0.35408  1.0000
  C   C202      1.0  0.76031  0.07946  0.35115  1.0000
  N   N139      1.0  0.77887  0.09266  0.35303  1.0000
  C   C203      1.0  0.78499  0.11136  0.34947  1.0000
  N   N140      1.0  0.77177  0.11651  0.34667  1.0000
  C   C204      1.0  0.75321  0.10401  0.34509  1.0000
  N   N141      1.0  0.74780  0.08561  0.34850  1.0000
  N   N142      1.0  0.75460  0.06110  0.35544  1.0000
  N   N143      1.0  0.74053  0.10942  0.34791  1.0000
  N   N144      1.0  0.80321  0.12448  0.35404  1.0000
  N   N145      1.0  0.32965  0.09259  0.34794  1.0000
  C   C205      1.0  0.34224  0.11130  0.35110  1.0000
  N   N146      1.0  0.36061  0.11643  0.35316  1.0000
  C   C206      1.0  0.36667  0.10393  0.35435  1.0000
  N   N147      1.0  0.35367  0.08554  0.35128  1.0000
  N   N148      1.0  0.32230  0.06103  0.34532  1.0000
  N   N149      1.0  0.38476  0.10935  0.35112  1.0000
  N   N150      1.0  0.33712  0.12440  0.34640  1.0000
  N   N151      1.0  0.77891  0.69031  0.34772  1.0000
  C   C207      1.0  0.78504  0.67773  0.35100  1.0000
  N   N152      1.0  0.77180  0.65936  0.35324  1.0000
  C   C208      1.0  0.75324  0.65330  0.35456  1.0000
  N   N153      1.0  0.74784  0.66630  0.35142  1.0000
  N   N154      1.0  0.75467  0.69764  0.34486  1.0000
  N   N155      1.0  0.74057  0.63521  0.35132  1.0000
  N   N156      1.0  0.80325  0.68284  0.34612  1.0000
  N   N157      1.0  0.92731  0.24096  0.34777  1.0000
  C   C209      1.0  0.90861  0.23485  0.35105  1.0000
  N   N158      1.0  0.90349  0.24809  0.35340  1.0000
  C   C210      1.0  0.91599  0.26665  0.35477  1.0000
  N   N159      1.0  0.93439  0.27204  0.35159  1.0000
  N   N160      1.0  0.95888  0.26519  0.34493  1.0000
  N   N161      1.0  0.91060  0.27933  0.35156  1.0000
  N   N162      1.0  0.89550  0.21664  0.34614  1.0000
  N   N163      1.0  0.69431  0.92333  0.34777  1.0000
  C   C211      1.0  0.68172  0.90463  0.35105  1.0000
  N   N164      1.0  0.66336  0.89950  0.35343  1.0000
  C   C212      1.0  0.65730  0.91201  0.35482  1.0000
  N   N165      1.0  0.67031  0.93040  0.35165  1.0000
  N   N166      1.0  0.70165  0.95490  0.34495  1.0000
  N   N167      1.0  0.63922  0.90661  0.35170  1.0000
  N   N168      1.0  0.68683  0.89152  0.34614  1.0000
  N   N169      1.0  0.24501  0.32564  0.34787  1.0000
  C   C213      1.0  0.23889  0.33823  0.35110  1.0000
  N   N170      1.0  0.25212  0.35659  0.35342  1.0000
  C   C214      1.0  0.27069  0.36265  0.35477  1.0000
  N   N171      1.0  0.27608  0.34965  0.35161  1.0000
  N   N172      1.0  0.26924  0.31831  0.34502  1.0000
  N   N173      1.0  0.28337  0.38074  0.35161  1.0000
  N   N174      1.0  0.22067  0.33311  0.34632  1.0000
  N   N175      1.0  0.09653  0.77487  0.34764  1.0000
  C   C215      1.0  0.11525  0.78100  0.35094  1.0000
  N   N176      1.0  0.12038  0.76777  0.35321  1.0000
  C   C216      1.0  0.10789  0.74921  0.35453  1.0000
  N   N177      1.0  0.08949  0.74380  0.35138  1.0000
  N   N178      1.0  0.06498  0.75063  0.34475  1.0000
  N   N179      1.0  0.11330  0.73653  0.35133  1.0000
  N   N180      1.0  0.12834  0.79922  0.34607  1.0000
  C   C217      1.0  0.15242  0.45271  0.36089  1.0000
  C   C218      1.0  0.14674  0.44040  0.43543  1.0000
  C   C219      1.0  0.13767  0.42084  0.42387  1.0000
  H   H73       1.0  0.15027  0.44571  0.49965  1.0000
  N   N181      1.0  0.13336  0.40896  0.50013  1.0000
  O   O73       1.0  0.12234  0.41054  0.55293  1.0000
  O   O74       1.0  0.14774  0.41231  0.54360  1.0000
  C   C220      1.0  0.16529  0.47141  0.37448  1.0000
  H   H74       1.0  0.17595  0.47410  0.41519  1.0000
  C   C221      1.0  0.56716  0.70366  0.36075  1.0000
  C   C222      1.0  0.57945  0.71027  0.43535  1.0000
  C   C223      1.0  0.59902  0.72078  0.42381  1.0000
  H   H75       1.0  0.57414  0.70853  0.49955  1.0000
  N   N182      1.0  0.61088  0.72836  0.50006  1.0000
  O   O75       1.0  0.60932  0.71577  0.55292  1.0000
  O   O76       1.0  0.60752  0.73939  0.54348  1.0000
  C   C224      1.0  0.54845  0.69783  0.37443  1.0000
  H   H76       1.0  0.54577  0.70578  0.41526  1.0000
  C   C225      1.0  0.31630  0.86757  0.36084  1.0000
  C   C226      1.0  0.30966  0.87324  0.43541  1.0000
  C   C227      1.0  0.29911  0.88226  0.42389  1.0000
  H   H77       1.0  0.31141  0.86968  0.49962  1.0000
  N   N183      1.0  0.29153  0.88654  0.50018  1.0000
  O   O77       1.0  0.30411  0.89757  0.55302  1.0000
  O   O78       1.0  0.28052  0.87214  0.54362  1.0000
  C   C228      1.0  0.32212  0.85469  0.37453  1.0000
  H   H78       1.0  0.31414  0.84404  0.41525  1.0000
  C   C229      1.0  0.87149  0.56320  0.36097  1.0000
  C   C230      1.0  0.87718  0.57550  0.43550  1.0000
  C   C231      1.0  0.88624  0.59507  0.42388  1.0000
  H   H79       1.0  0.87367  0.57020  0.49972  1.0000
  N   N184      1.0  0.89055  0.60695  0.50010  1.0000
  O   O79       1.0  0.90159  0.60540  0.55285  1.0000
  O   O80       1.0  0.87618  0.60359  0.54365  1.0000
  C   C232      1.0  0.85865  0.54448  0.37467  1.0000
  H   H80       1.0  0.84803  0.54178  0.41566  1.0000
  C   C233      1.0  0.45671  0.31224  0.36086  1.0000
  C   C234      1.0  0.44440  0.30560  0.43541  1.0000
  C   C235      1.0  0.42484  0.29511  0.42386  1.0000
  H   H81       1.0  0.44971  0.30737  0.49962  1.0000
  N   N185      1.0  0.41297  0.28754  0.50012  1.0000
  O   O81       1.0  0.41455  0.30013  0.55297  1.0000
  O   O82       1.0  0.41632  0.27650  0.54353  1.0000
  C   C236      1.0  0.47541  0.31807  0.37440  1.0000
  H   H82       1.0  0.47811  0.31011  0.41510  1.0000
  C   C237      1.0  0.70767  0.14845  0.36069  1.0000
  C   C238      1.0  0.71428  0.14277  0.43530  1.0000
  C   C239      1.0  0.72479  0.13371  0.42376  1.0000
  H   H83       1.0  0.71255  0.14635  0.49949  1.0000
  N   N186      1.0  0.73237  0.12943  0.50002  1.0000
  O   O83       1.0  0.71980  0.11842  0.55291  1.0000
  O   O84       1.0  0.74342  0.14383  0.54338  1.0000
  C   C240      1.0  0.70185  0.16133  0.37436  1.0000
  H   H84       1.0  0.70981  0.17198  0.41515  1.0000
  C   C241      1.0  0.41717  0.12996  0.36384  1.0000
  C   C242      1.0  0.42935  0.13501  0.43962  1.0000
  C   C243      1.0  0.44890  0.14400  0.42586  1.0000
  H   H85       1.0  0.45751  0.14862  0.48111  1.0000
  N   N187      1.0  0.42182  0.13173  0.52840  1.0000
  O   O85       1.0  0.42587  0.12125  0.57230  1.0000
  O   O86       1.0  0.42745  0.14663  0.57182  1.0000
  C   C244      1.0  0.39863  0.12505  0.37660  1.0000
  H   H86       1.0  0.39628  0.13471  0.40341  1.0000
  C   C245      1.0  0.72879  0.60280  0.36368  1.0000
  C   C246      1.0  0.72164  0.59061  0.43944  1.0000
  C   C247      1.0  0.71108  0.57107  0.42561  1.0000
  H   H87       1.0  0.70706  0.56244  0.48081  1.0000
  N   N188      1.0  0.72587  0.59812  0.52827  1.0000
  O   O87       1.0  0.71134  0.59407  0.57210  1.0000
  O   O88       1.0  0.73514  0.59248  0.57169  1.0000
  C   C248      1.0  0.74241  0.62134  0.37666  1.0000
  H   H88       1.0  0.75442  0.62367  0.40322  1.0000
  C   C249      1.0  0.89000  0.29115  0.36401  1.0000
  C   C250      1.0  0.88492  0.29828  0.43974  1.0000
  C   C251      1.0  0.87597  0.30886  0.42589  1.0000
  H   H89       1.0  0.87131  0.31283  0.48109  1.0000
  N   N189      1.0  0.88815  0.29401  0.52857  1.0000
  O   O89       1.0  0.89862  0.30852  0.57257  1.0000
  O   O90       1.0  0.87323  0.28473  0.57183  1.0000
  C   C252      1.0  0.89489  0.27752  0.37696  1.0000
  H   H90       1.0  0.88522  0.26551  0.40364  1.0000
  C   C253      1.0  0.60681  0.88601  0.36407  1.0000
  C   C254      1.0  0.59461  0.88095  0.43983  1.0000
  C   C255      1.0  0.57507  0.87199  0.42603  1.0000
  H   H91       1.0  0.56645  0.86735  0.48125  1.0000
  N   N190      1.0  0.60212  0.88420  0.52864  1.0000
  O   O91       1.0  0.59808  0.89468  0.57259  1.0000
  O   O92       1.0  0.59648  0.86928  0.57197  1.0000
  C   C256      1.0  0.62534  0.89090  0.37702  1.0000
  H   H92       1.0  0.62766  0.88120  0.40341  1.0000
  C   C257      1.0  0.29516  0.41316  0.36408  1.0000
  C   C258      1.0  0.30229  0.42534  0.43984  1.0000
  C   C259      1.0  0.31285  0.44488  0.42604  1.0000
  H   H93       1.0  0.31685  0.45350  0.48126  1.0000
  N   N191      1.0  0.29804  0.41782  0.52864  1.0000
  O   O93       1.0  0.31256  0.42187  0.57256  1.0000
  O   O94       1.0  0.28876  0.42345  0.57201  1.0000
  C   C260      1.0  0.28152  0.39462  0.37688  1.0000
  H   H94       1.0  0.26950  0.39228  0.40341  1.0000
  C   C261      1.0  0.13394  0.72476  0.36370  1.0000
  C   C262      1.0  0.13899  0.71762  0.43947  1.0000
  C   C263      1.0  0.14798  0.70707  0.42564  1.0000
  H   H95       1.0  0.15259  0.70306  0.48085  1.0000
  N   N192      1.0  0.13571  0.72185  0.52829  1.0000
  O   O95       1.0  0.12524  0.70732  0.57214  1.0000
  O   O96       1.0  0.15061  0.73113  0.57171  1.0000
  C   C264      1.0  0.12902  0.73838  0.37667  1.0000
  H   H96       1.0  0.13869  0.75040  0.40322  1.0000
  C   C265      1.0  0.28669  0.52363  0.35606  1.0000
  C   C266      1.0  0.27688  0.52518  0.43141  1.0000
  C   C267      1.0  0.26024  0.52564  0.41671  1.0000
  H   H97       1.0  0.25272  0.52566  0.47168  1.0000
  N   N193      1.0  0.28343  0.52549  0.52054  1.0000
  O   O97       1.0  0.28702  0.54019  0.56154  1.0000
  O   O98       1.0  0.27188  0.51178  0.56642  1.0000
  C   C268      1.0  0.30046  0.51915  0.37079  1.0000
  H   H98       1.0  0.29670  0.50719  0.40268  1.0000
  C   C269      1.0  0.49629  0.76710  0.35627  1.0000
  C   C270      1.0  0.49473  0.75573  0.43161  1.0000
  C   C271      1.0  0.49427  0.73864  0.41690  1.0000
  H   H99       1.0  0.49426  0.73109  0.47185  1.0000
  N   N194      1.0  0.49443  0.76198  0.52075  1.0000
  O   O99       1.0  0.47972  0.75087  0.56174  1.0000
  O   O100      1.0  0.50813  0.76413  0.56663  1.0000
  C   C272      1.0  0.50078  0.78535  0.37103  1.0000
  H   H100      1.0  0.51274  0.79354  0.40284  1.0000
  C   C273      1.0  0.25287  0.73327  0.35640  1.0000
  C   C274      1.0  0.26424  0.74308  0.43174  1.0000
  C   C275      1.0  0.28132  0.75973  0.41701  1.0000
  H   H101      1.0  0.28889  0.76724  0.47193  1.0000
  N   N195      1.0  0.25799  0.73651  0.52086  1.0000
  O   O101      1.0  0.26911  0.73293  0.56182  1.0000
  O   O102      1.0  0.25583  0.74806  0.56677  1.0000
  C   C276      1.0  0.23461  0.71951  0.37104  1.0000
  H   H102      1.0  0.22641  0.72328  0.40273  1.0000
  C   C277      1.0  0.73724  0.49234  0.35636  1.0000
  C   C278      1.0  0.74705  0.49079  0.43170  1.0000
  C   C279      1.0  0.76370  0.49035  0.41690  1.0000
  H   H103      1.0  0.77122  0.49030  0.47181  1.0000
  N   N196      1.0  0.74051  0.49049  0.52085  1.0000
  O   O103      1.0  0.73693  0.47579  0.56183  1.0000
  O   O104      1.0  0.75207  0.50420  0.56671  1.0000
  C   C280      1.0  0.72348  0.49684  0.37115  1.0000
  H   H104      1.0  0.72726  0.50882  0.40280  1.0000
  C   C281      1.0  0.52766  0.24893  0.35603  1.0000
  C   C282      1.0  0.52922  0.26029  0.43137  1.0000
  C   C283      1.0  0.52967  0.27739  0.41666  1.0000
  H   H105      1.0  0.52970  0.28493  0.47162  1.0000
  N   N197      1.0  0.52953  0.25405  0.52050  1.0000
  O   O105      1.0  0.54423  0.26516  0.56148  1.0000
  O   O106      1.0  0.51582  0.25190  0.56640  1.0000
  C   C284      1.0  0.52319  0.23068  0.37078  1.0000
  H   H106      1.0  0.51123  0.22248  0.40265  1.0000
  C   C285      1.0  0.77111  0.28276  0.35631  1.0000
  C   C286      1.0  0.75974  0.27296  0.43166  1.0000
  C   C287      1.0  0.74265  0.25631  0.41694  1.0000
  H   H107      1.0  0.73510  0.24879  0.47189  1.0000
  N   N198      1.0  0.76599  0.27951  0.52079  1.0000
  O   O107      1.0  0.75487  0.28310  0.56177  1.0000
  O   O108      1.0  0.76814  0.26796  0.56668  1.0000
  C   C288      1.0  0.78936  0.29653  0.37108  1.0000
  H   H108      1.0  0.79755  0.29276  0.40290  1.0000
  C   C289      1.0  0.18960  0.57955  0.36701  1.0000
  C   C290      1.0  0.18986  0.59010  0.44261  1.0000
  C   C291      1.0  0.19008  0.60721  0.43263  1.0000
  H   H109      1.0  0.19099  0.58589  0.50636  1.0000
  N   N199      1.0  0.19151  0.61805  0.50974  1.0000
  O   O109      1.0  0.20620  0.62275  0.55360  1.0000
  O   O110      1.0  0.17784  0.60939  0.56186  1.0000
  C   C292      1.0  0.19362  0.56532  0.37880  1.0000
  H   H110      1.0  0.20464  0.56820  0.41703  1.0000
  C   C293      1.0  0.44024  0.61410  0.36710  1.0000
  C   C294      1.0  0.42937  0.60406  0.44244  1.0000
  C   C295      1.0  0.41232  0.58713  0.43213  1.0000
  H   H111      1.0  0.43331  0.60959  0.50604  1.0000
  N   N200      1.0  0.40113  0.57796  0.50875  1.0000
  O   O111      1.0  0.40957  0.57316  0.56345  1.0000
  O   O112      1.0  0.39621  0.58808  0.54981  1.0000
  C   C296      1.0  0.45449  0.63236  0.37855  1.0000
  H   H112      1.0  0.45161  0.64057  0.41634  1.0000
  C   C297      1.0  0.40586  0.83023  0.36716  1.0000
  C   C298      1.0  0.41590  0.82939  0.44250  1.0000
  C   C299      1.0  0.43284  0.82928  0.43223  1.0000
  H   H113      1.0  0.41037  0.82780  0.50609  1.0000
  N   N201      1.0  0.44199  0.82726  0.50887  1.0000
  O   O113      1.0  0.44678  0.84049  0.56362  1.0000
  O   O114      1.0  0.43187  0.81222  0.54989  1.0000
  C   C300      1.0  0.38760  0.82619  0.37852  1.0000
  H   H114      1.0  0.37938  0.81508  0.41609  1.0000
  C   C301      1.0  0.83421  0.43631  0.36703  1.0000
  C   C302      1.0  0.83340  0.42545  0.44243  1.0000
  C   C303      1.0  0.83327  0.40840  0.43220  1.0000
  H   H115      1.0  0.83177  0.42939  0.50600  1.0000
  N   N202      1.0  0.83124  0.39722  0.50885  1.0000
  O   O115      1.0  0.84446  0.40566  0.56363  1.0000
  O   O116      1.0  0.81619  0.39231  0.54983  1.0000
  C   C304      1.0  0.83017  0.45054  0.37844  1.0000
  H   H116      1.0  0.81907  0.44764  0.41613  1.0000
  C   C305      1.0  0.58354  0.40193  0.36711  1.0000
  C   C306      1.0  0.59408  0.41222  0.44274  1.0000
  C   C307      1.0  0.61119  0.42911  0.43278  1.0000
  H   H117      1.0  0.58986  0.40688  0.50648  1.0000
  N   N203      1.0  0.62202  0.43852  0.50992  1.0000
  O   O117      1.0  0.62671  0.42853  0.55380  1.0000
  O   O118      1.0  0.61335  0.44353  0.56200  1.0000
  C   C308      1.0  0.56931  0.38368  0.37888  1.0000
  H   H118      1.0  0.57219  0.37553  0.41705  1.0000
  C   C309      1.0  0.61812  0.18583  0.36708  1.0000
  C   C310      1.0  0.60808  0.18666  0.44243  1.0000
  C   C311      1.0  0.59116  0.18679  0.43214  1.0000
  H   H119      1.0  0.61361  0.18824  0.50602  1.0000
  N   N204      1.0  0.58200  0.18881  0.50877  1.0000
  O   O119      1.0  0.57719  0.17557  0.56347  1.0000
  O   O120      1.0  0.59212  0.20385  0.54982  1.0000
  C   C312      1.0  0.63638  0.18984  0.37851  1.0000
  H   H120      1.0  0.64459  0.20093  0.41623  1.0000
  C   C313      1.0  0.99192  0.28664  0.35504  1.0000
  C   C314      1.0  0.00354  0.29150  0.43319  1.0000
  C   C315      1.0  0.02329  0.30123  0.42436  1.0000
  H   H121      1.0  0.03127  0.30550  0.48182  1.0000
  N   N205      1.0  0.99512  0.28722  0.52007  1.0000
  O   O121      1.0  0.99921  0.27673  0.56353  1.0000
  O   O122      1.0  0.99982  0.30166  0.56607  1.0000
  C   C316      1.0  0.97302  0.28134  0.36430  1.0000
  H   H122      1.0  0.97057  0.29123  0.38672  1.0000
  C   C317      1.0  0.73322  0.70922  0.35494  1.0000
  C   C318      1.0  0.72839  0.71600  0.43311  1.0000
  C   C319      1.0  0.71866  0.72603  0.42434  1.0000
  H   H123      1.0  0.71440  0.72973  0.48181  1.0000
  N   N206      1.0  0.73268  0.71186  0.51996  1.0000
  O   O123      1.0  0.74318  0.72644  0.56336  1.0000
  O   O124      1.0  0.71825  0.70213  0.56604  1.0000
  C   C320      1.0  0.73852  0.69561  0.36416  1.0000
  H   H124      1.0  0.72862  0.68327  0.38650  1.0000
  C   C321      1.0  0.31073  0.02797  0.35484  1.0000
  C   C322      1.0  0.30452  0.01644  0.43337  1.0000
  C   C323      1.0  0.29443  0.99667  0.42497  1.0000
  H   H125      1.0  0.29113  0.98875  0.48247  1.0000
  N   N207      1.0  0.30931  0.02493  0.52002  1.0000
  O   O125      1.0  0.29507  0.02089  0.56631  1.0000
  O   O126      1.0  0.31938  0.02026  0.56341  1.0000
  C   C324      1.0  0.32442  0.04688  0.36277  1.0000
  H   H126      1.0  0.33688  0.04932  0.38308  1.0000
  C   C325      1.0  0.03193  0.72917  0.35509  1.0000
  C   C326      1.0  0.02033  0.72434  0.43324  1.0000
  C   C327      1.0  0.00057  0.71461  0.42433  1.0000
  H   H127      1.0  0.99258  0.71036  0.48174  1.0000
  N   N208      1.0  0.02874  0.72862  0.52013  1.0000
  O   O127      1.0  0.02465  0.73912  0.56350  1.0000
  O   O128      1.0  0.02402  0.71419  0.56619  1.0000
  C   C328      1.0  0.05085  0.73449  0.36439  1.0000
  H   H128      1.0  0.05331  0.72463  0.38710  1.0000
  C   C329      1.0  0.29068  0.30671  0.35516  1.0000
  C   C330      1.0  0.29554  0.29996  0.43332  1.0000
  C   C331      1.0  0.30526  0.28992  0.42451  1.0000
  H   H129      1.0  0.30953  0.28622  0.48198  1.0000
  N   N209      1.0  0.29127  0.30412  0.52019  1.0000
  O   O129      1.0  0.28077  0.28954  0.56368  1.0000
  O   O130      1.0  0.30572  0.31385  0.56617  1.0000
  C   C332      1.0  0.28539  0.32033  0.36438  1.0000
  H   H130      1.0  0.29528  0.33266  0.38678  1.0000
  C   C333      1.0  0.71324  0.98794  0.35511  1.0000
  C   C334      1.0  0.72002  0.99956  0.43323  1.0000
  C   C335      1.0  0.73005  0.01932  0.42439  1.0000
  H   H131      1.0  0.73376  0.02730  0.48183  1.0000
  N   N210      1.0  0.71589  0.99115  0.52012  1.0000
  O   O131      1.0  0.73048  0.99524  0.56351  1.0000
  O   O132      1.0  0.70617  0.99585  0.56618  1.0000
  C   C336      1.0  0.69964  0.96903  0.36441  1.0000
  H   H132      1.0  0.68731  0.96659  0.38693  1.0000
  C   C337      1.0  0.19410  0.33759  0.35694  1.0000
  C   C338      1.0  0.18325  0.33648  0.43404  1.0000
  C   C339      1.0  0.16608  0.33627  0.42337  1.0000
  H   H133      1.0  0.15920  0.33671  0.48006  1.0000
  N   N211      1.0  0.19030  0.33658  0.52169  1.0000
  O   O133      1.0  0.17945  0.32217  0.56538  1.0000
  O   O134      1.0  0.19307  0.35061  0.56667  1.0000
  C   C340      1.0  0.21294  0.34285  0.36781  1.0000
  H   H134      1.0  0.22100  0.35563  0.39210  1.0000
  C   C341      1.0  0.68233  0.86046  0.35697  1.0000
  C   C342      1.0  0.68342  0.85069  0.43403  1.0000
  C   C343      1.0  0.68360  0.83371  0.42322  1.0000
  H   H135      1.0  0.68315  0.82637  0.47983  1.0000
  N   N212      1.0  0.68333  0.85762  0.52176  1.0000
  O   O135      1.0  0.69774  0.86115  0.56536  1.0000
  O   O136      1.0  0.66931  0.84636  0.56675  1.0000
  C   C344      1.0  0.67712  0.87408  0.36817  1.0000
  H   H136      1.0  0.66439  0.86940  0.39303  1.0000
  C   C345      1.0  0.15938  0.82579  0.35681  1.0000
  C   C346      1.0  0.16917  0.83665  0.43386  1.0000
  C   C347      1.0  0.18613  0.85382  0.42314  1.0000
  H   H137      1.0  0.19347  0.86068  0.47981  1.0000
  N   N213      1.0  0.16224  0.82961  0.52157  1.0000
  O   O137      1.0  0.15870  0.84048  0.56527  1.0000
  O   O138      1.0  0.17350  0.82684  0.56650  1.0000
  C   C348      1.0  0.14579  0.80696  0.36795  1.0000
  H   H138      1.0  0.15050  0.79891  0.39258  1.0000
  C   C349      1.0  0.82982  0.67837  0.35685  1.0000
  C   C350      1.0  0.84069  0.67946  0.43389  1.0000
  C   C351      1.0  0.85786  0.67965  0.42316  1.0000
  H   H139      1.0  0.86473  0.67919  0.47981  1.0000
  N   N214      1.0  0.83366  0.67936  0.52160  1.0000
  O   O139      1.0  0.84453  0.69377  0.56526  1.0000
  O   O140      1.0  0.83089  0.66533  0.56657  1.0000
  C   C352      1.0  0.81100  0.67314  0.36802  1.0000
  H   H140      1.0  0.80294  0.66038  0.39270  1.0000
  C   C353      1.0  0.34160  0.15545  0.35723  1.0000
  C   C354      1.0  0.34051  0.16521  0.43431  1.0000
  C   C355      1.0  0.34030  0.18217  0.42361  1.0000
  H   H141      1.0  0.34075  0.18950  0.48029  1.0000
  N   N215      1.0  0.34064  0.15827  0.52197  1.0000
  O   O141      1.0  0.32624  0.15473  0.56574  1.0000
  O   O142      1.0  0.35468  0.16954  0.56687  1.0000
  C   C356      1.0  0.34685  0.14186  0.36809  1.0000
  H   H142      1.0  0.35962  0.14657  0.39251  1.0000
  C   C357      1.0  0.86445  0.19007  0.35702  1.0000
  C   C358      1.0  0.85466  0.17921  0.43405  1.0000
  C   C359      1.0  0.83769  0.16205  0.42317  1.0000
  H   H143      1.0  0.83034  0.15515  0.47976  1.0000
  N   N216      1.0  0.86158  0.18622  0.52179  1.0000
  O   O143      1.0  0.86511  0.17534  0.56541  1.0000
  O   O144      1.0  0.85032  0.18899  0.56674  1.0000
  C   C360      1.0  0.87807  0.20890  0.36825  1.0000
  H   H144      1.0  0.87339  0.21695  0.39320  1.0000
