data_image0
_chemical_formula_structural       C5NCONH2C5NCONH2C2H2C2H2C2H3C2H3C2H2C2H2C5NCONH2C5NCONH2C2H2C2H2C5NCONH2C5NCONH2C2H2C2H2C2H2C2H2C5NCONH2C5NCONH2C2H2C2H2C5NCONH2C5NCONH2C2H2C2H2C2H2C2H2C5NCONH2C5NCONH2CNCNCNCNCNCNCNCNCNCNCNCNCNCNCNCNCNCNCNCNCNCNCNCNCNCNCNCNCNCNCNCNCNCNCNCNCNCNCNCNCNCNCNCNCNCNCNCNCNCNCNCNCNCNCNCNCNCNCNCNC2H2C2H2C5NCONH2C5NCONH2C5NCONHC5NCONHC5NCONH2C5NCONH2C2H2C2H2C5NCONH2C5NCONH2C2H2C2H2C5NCONH2C5NCONH2C5NCONH2C5NCONH2C2H2C2H2C5NCONH2C5NCONH2C2H2C2H2C5NCONH2C5NCONH2C5NCONH2C5NCONH2C2H2C2H2C5NCONH2C5NCONH2C2H2C2H2C2H3C2H3C2H2C2H2C5NCONH2C5NCONH2C2H2C2H2C5NCONH2C5NCONH2C2H2C2H2C2H2C2H2C5NCONH2C5NCONH2C2H2C2H2C5NCONH2C5NCONH2C2H2C2H2C2H2C2H2C5NCONH2C5NCONH2CNCNCNCNCNCNCNCNCNCNCNCNCNCNCNCNCNCNCNCNCNCNCNCNCNCNCNCNCNCNCNCNCNCNCNCNCNCNCNCNCNCNCNCNCNCNCNCNCNCNCNCNCNCNCNCNCNCNCNCNC2H2C2H2C5NCONH2C5NCONH2C5NCONHC5NCONHC5NCONH2C5NCONH2C2H2C2H2C5NCONH2C5NCONH2C2H2C2H2C5NCONH2C5NCONH2C5NCONH2C5NCONH2C2H2C2H2C5NCONH2C5NCONH2C2H2C2H2C5NCONH2C5NCONH2C5NCONH2C5NCONH2C2H2C2H2
_chemical_formula_sum              "C600 N240 O60 H240"
_cell_length_a       84.2471
_cell_length_b       44.377
_cell_length_c       14.8338
_cell_angle_alpha    90
_cell_angle_beta     90
_cell_angle_gamma    90

_space_group_name_H-M_alt    "P 1"
_space_group_IT_number       1

loop_
  _space_group_symop_operation_xyz
  'x, y, z'

loop_
  _atom_site_type_symbol
  _atom_site_label
  _atom_site_symmetry_multiplicity
  _atom_site_fract_x
  _atom_site_fract_y
  _atom_site_fract_z
  _atom_site_occupancy
  C   C1        1.0  0.23896  0.13640  0.34045  1.0000
  C   C2        1.0  0.24623  0.12895  0.25660  1.0000
  C   C3        1.0  0.26297  0.12298  0.25301  1.0000
  C   C4        1.0  0.27241  0.12548  0.33260  1.0000
  C   C5        1.0  0.26930  0.11531  0.16719  1.0000
  N   N1        1.0  0.25989  0.11438  0.09342  1.0000
  C   C6        1.0  0.24422  0.12040  0.09807  1.0000
  O   O1        1.0  0.28481  0.10956  0.15171  1.0000
  N   N2        1.0  0.23755  0.12759  0.17837  1.0000
  H   H1        1.0  0.23753  0.11948  0.04060  1.0000
  H   H2        1.0  0.22621  0.13164  0.17809  1.0000
  C   C7        1.0  0.77231  0.37471  0.34055  1.0000
  C   C8        1.0  0.76506  0.38225  0.25672  1.0000
  C   C9        1.0  0.74832  0.38823  0.25307  1.0000
  C   C10       1.0  0.73885  0.38567  0.33257  1.0000
  C   C11       1.0  0.74201  0.39599  0.16727  1.0000
  N   N3        1.0  0.75144  0.39697  0.09357  1.0000
  C   C12       1.0  0.76710  0.39094  0.09828  1.0000
  O   O2        1.0  0.72650  0.40174  0.15169  1.0000
  N   N4        1.0  0.77375  0.38368  0.17857  1.0000
  H   H3        1.0  0.77380  0.39189  0.04085  1.0000
  H   H4        1.0  0.78510  0.37961  0.17832  1.0000
  C   C13       1.0  0.74613  0.13267  0.28756  1.0000
  C   C14       1.0  0.76234  0.13982  0.28360  1.0000
  H   H5        1.0  0.76702  0.14649  0.22303  1.0000
  H   H6        1.0  0.73966  0.13328  0.22907  1.0000
  C   C15       1.0  0.26505  0.37833  0.28794  1.0000
  C   C16       1.0  0.24884  0.37116  0.28391  1.0000
  H   H7        1.0  0.24419  0.36432  0.22344  1.0000
  H   H8        1.0  0.27155  0.37755  0.22958  1.0000
  C   C17       1.0  0.30453  0.02197  0.27992  1.0000
  C   C18       1.0  0.30431  0.49049  0.28209  1.0000
  H   H9        1.0  0.30445  0.47890  0.22230  1.0000
  H   H10       1.0  0.30478  0.03254  0.21845  1.0000
  H   H11       1.0  0.30206  0.48134  0.00229  1.0000
  C   C19       1.0  0.70676  0.48917  0.27981  1.0000
  C   C20       1.0  0.70695  0.02065  0.28195  1.0000
  H   H12       1.0  0.70683  0.03223  0.22216  1.0000
  H   H13       1.0  0.70655  0.47860  0.21835  1.0000
  H   H14       1.0  0.70902  0.02985  0.00218  1.0000
  C   C21       1.0  0.80583  0.27287  0.28102  1.0000
  C   C22       1.0  0.80546  0.24140  0.27976  1.0000
  H   H15       1.0  0.80610  0.23050  0.21893  1.0000
  H   H16       1.0  0.80665  0.28414  0.22084  1.0000
  C   C23       1.0  0.20548  0.23824  0.28086  1.0000
  C   C24       1.0  0.20583  0.26971  0.27963  1.0000
  H   H17       1.0  0.20523  0.28061  0.21880  1.0000
  H   H18       1.0  0.20472  0.22698  0.22065  1.0000
  C   C25       1.0  0.36382  0.14788  0.32480  1.0000
  C   C26       1.0  0.35731  0.13420  0.24618  1.0000
  C   C27       1.0  0.34086  0.12585  0.24436  1.0000
  C   C28       1.0  0.33097  0.13127  0.32092  1.0000
  C   C29       1.0  0.33525  0.11250  0.16326  1.0000
  N   N5        1.0  0.34506  0.10834  0.09225  1.0000
  C   C30       1.0  0.36049  0.11630  0.09548  1.0000
  O   O3        1.0  0.31998  0.10451  0.14882  1.0000
  N   N6        1.0  0.36648  0.12904  0.17121  1.0000
  H   H19       1.0  0.36750  0.11288  0.04008  1.0000
  H   H20       1.0  0.37761  0.13481  0.16949  1.0000
  C   C31       1.0  0.64744  0.36339  0.32440  1.0000
  C   C32       1.0  0.65397  0.37703  0.24578  1.0000
  C   C33       1.0  0.67043  0.38534  0.24404  1.0000
  C   C34       1.0  0.68028  0.37991  0.32072  1.0000
  C   C35       1.0  0.67607  0.39866  0.16297  1.0000
  N   N7        1.0  0.66628  0.40279  0.09185  1.0000
  C   C36       1.0  0.65084  0.39487  0.09498  1.0000
  O   O4        1.0  0.69136  0.40658  0.14860  1.0000
  N   N8        1.0  0.64483  0.38217  0.17071  1.0000
  H   H21       1.0  0.64385  0.39825  0.03950  1.0000
  H   H22       1.0  0.63369  0.37642  0.16891  1.0000
  C   C37       1.0  0.67335  0.13593  0.28052  1.0000
  C   C38       1.0  0.65726  0.14397  0.27541  1.0000
  H   H23       1.0  0.65244  0.14834  0.21334  1.0000
  H   H24       1.0  0.67962  0.13388  0.22163  1.0000
  C   C39       1.0  0.33783  0.37535  0.28089  1.0000
  C   C40       1.0  0.35393  0.36737  0.27589  1.0000
  H   H25       1.0  0.35877  0.36310  0.21384  1.0000
  H   H26       1.0  0.33158  0.37748  0.22193  1.0000
  C   C41       1.0  0.86375  0.39805  0.32663  1.0000
  C   C42       1.0  0.85660  0.38709  0.24603  1.0000
  C   C43       1.0  0.84011  0.37897  0.24577  1.0000
  C   C44       1.0  0.83084  0.38199  0.32584  1.0000
  C   C45       1.0  0.83385  0.36818  0.16282  1.0000
  N   N9        1.0  0.84314  0.36617  0.08874  1.0000
  C   C46       1.0  0.85862  0.37389  0.09050  1.0000
  O   O5        1.0  0.81846  0.36061  0.15025  1.0000
  N   N10       1.0  0.86521  0.38417  0.16796  1.0000
  H   H27       1.0  0.86522  0.37209  0.03284  1.0000
  H   H28       1.0  0.87638  0.38972  0.16547  1.0000
  C   C47       1.0  0.14750  0.11323  0.32608  1.0000
  C   C48       1.0  0.15471  0.12398  0.24540  1.0000
  C   C49       1.0  0.17120  0.13205  0.24527  1.0000
  C   C50       1.0  0.18041  0.12914  0.32560  1.0000
  C   C51       1.0  0.17752  0.14267  0.16227  1.0000
  N   N11       1.0  0.16827  0.14457  0.08799  1.0000
  C   C52       1.0  0.15278  0.13688  0.08959  1.0000
  O   O6        1.0  0.19292  0.15019  0.14987  1.0000
  N   N12       1.0  0.14614  0.12679  0.16713  1.0000
  H   H29       1.0  0.14622  0.13859  0.03179  1.0000
  H   H30       1.0  0.13497  0.12127  0.16454  1.0000
  C   C53       1.0  0.17263  0.38304  0.27591  1.0000
  C   C54       1.0  0.15652  0.39101  0.27311  1.0000
  H   H31       1.0  0.15115  0.39331  0.21152  1.0000
  H   H32       1.0  0.17834  0.37897  0.21614  1.0000
  C   C55       1.0  0.83856  0.12824  0.27617  1.0000
  C   C56       1.0  0.85469  0.12039  0.27344  1.0000
  H   H33       1.0  0.86009  0.11825  0.21188  1.0000
  H   H34       1.0  0.83288  0.13242  0.21637  1.0000
  C   C57       1.0  0.07806  0.14683  0.32683  1.0000
  C   C58       1.0  0.06854  0.17309  0.32340  1.0000
  H   H35       1.0  0.05786  0.17149  0.29088  1.0000
  H   H36       1.0  0.07387  0.12779  0.29587  1.0000
  C   C59       1.0  0.93320  0.36458  0.32783  1.0000
  C   C60       1.0  0.94272  0.33831  0.32447  1.0000
  H   H37       1.0  0.95340  0.33990  0.29193  1.0000
  H   H38       1.0  0.93738  0.38361  0.29686  1.0000
  C   C61       1.0  0.93849  0.20069  0.30722  1.0000
  C   C62       1.0  0.94403  0.17180  0.27551  1.0000
  C   C63       1.0  0.93381  0.14534  0.27590  1.0000
  C   C64       1.0  0.91790  0.14646  0.31058  1.0000
  C   C65       1.0  0.93989  0.11929  0.23167  1.0000
  N   N13       1.0  0.95458  0.11893  0.19586  1.0000
  C   C66       1.0  0.96424  0.14291  0.20079  1.0000
  O   O7        1.0  0.93125  0.09504  0.20695  1.0000
  N   N14       1.0  0.95886  0.16883  0.23760  1.0000
  H   H39       1.0  0.97517  0.14186  0.17069  1.0000
  H   H40       1.0  0.96597  0.18571  0.23071  1.0000
  C   C67       1.0  0.07258  0.31083  0.30808  1.0000
  C   C68       1.0  0.06695  0.33987  0.27795  1.0000
  C   C69       1.0  0.07721  0.36627  0.27777  1.0000
  C   C70       1.0  0.09323  0.36501  0.31076  1.0000
  C   C71       1.0  0.07103  0.39246  0.23479  1.0000
  N   N15       1.0  0.05617  0.39305  0.20110  1.0000
  C   C72       1.0  0.04647  0.36916  0.20703  1.0000
  O   O8        1.0  0.07963  0.41662  0.20903  1.0000
  N   N16       1.0  0.05196  0.34310  0.24237  1.0000
  H   H41       1.0  0.03540  0.37042  0.17867  1.0000
  H   H42       1.0  0.04473  0.32635  0.23652  1.0000
  C   C73       1.0  0.57801  0.39678  0.32750  1.0000
  C   C74       1.0  0.56849  0.42305  0.32403  1.0000
  H   H43       1.0  0.55778  0.42143  0.29185  1.0000
  H   H44       1.0  0.57379  0.37769  0.29701  1.0000
  C   C75       1.0  0.43325  0.11459  0.32849  1.0000
  C   C76       1.0  0.44275  0.08831  0.32508  1.0000
  H   H45       1.0  0.45345  0.08988  0.29272  1.0000
  H   H46       1.0  0.43744  0.13365  0.29776  1.0000
  C   C77       1.0  0.43842  0.45073  0.30743  1.0000
  C   C78       1.0  0.44391  0.42193  0.27466  1.0000
  C   C79       1.0  0.43370  0.39547  0.27507  1.0000
  C   C80       1.0  0.41786  0.39649  0.31082  1.0000
  C   C81       1.0  0.43970  0.36957  0.22967  1.0000
  N   N17       1.0  0.45432  0.36932  0.19294  1.0000
  C   C82       1.0  0.46397  0.39332  0.19770  1.0000
  O   O9        1.0  0.43106  0.34525  0.20565  1.0000
  N   N18       1.0  0.45864  0.41914  0.23542  1.0000
  H   H47       1.0  0.47483  0.39240  0.16671  1.0000
  H   H48       1.0  0.46571  0.43607  0.22832  1.0000
  C   C83       1.0  0.57255  0.06080  0.30836  1.0000
  C   C84       1.0  0.56692  0.08980  0.27793  1.0000
  C   C85       1.0  0.57719  0.11620  0.27755  1.0000
  C   C86       1.0  0.59320  0.11497  0.31086  1.0000
  C   C87       1.0  0.57102  0.14233  0.23418  1.0000
  N   N19       1.0  0.55616  0.14292  0.20055  1.0000
  C   C88       1.0  0.54647  0.11903  0.20651  1.0000
  O   O10       1.0  0.57960  0.16658  0.20891  1.0000
  N   N20       1.0  0.55195  0.09300  0.24217  1.0000
  H   H49       1.0  0.53538  0.12027  0.17836  1.0000
  H   H50       1.0  0.54471  0.07625  0.23652  1.0000
  C   C89       1.0  0.09693  0.02104  0.32644  1.0000
  C   C90       1.0  0.09729  0.48908  0.32637  1.0000
  H   H51       1.0  0.09004  0.47802  0.28197  1.0000
  H   H52       1.0  0.08956  0.03161  0.28163  1.0000
  C   C91       1.0  0.91428  0.49033  0.32646  1.0000
  C   C92       1.0  0.91393  0.02229  0.32628  1.0000
  H   H53       1.0  0.92117  0.03333  0.28178  1.0000
  H   H54       1.0  0.92165  0.47974  0.28165  1.0000
  C   C93       1.0  0.59691  0.27105  0.32709  1.0000
  C   C94       1.0  0.59726  0.23910  0.32649  1.0000
  H   H55       1.0  0.58998  0.22809  0.28216  1.0000
  H   H56       1.0  0.58947  0.28170  0.28276  1.0000
  C   C95       1.0  0.41429  0.24030  0.32668  1.0000
  C   C96       1.0  0.41390  0.27225  0.32589  1.0000
  H   H57       1.0  0.42119  0.28327  0.28160  1.0000
  H   H58       1.0  0.42170  0.22965  0.28223  1.0000
  C   C97       1.0  0.98843  0.25770  0.30859  1.0000
  C   C98       1.0  0.99694  0.25528  0.22567  1.0000
  C   C99       1.0  0.01403  0.25357  0.22534  1.0000
  C   C100      1.0  0.02274  0.25355  0.30805  1.0000
  C   C101      1.0  0.02144  0.25174  0.13945  1.0000
  N   N21       1.0  0.01269  0.25163  0.06309  1.0000
  C   C102      1.0  0.99670  0.25321  0.06489  1.0000
  O   O11       1.0  0.03731  0.24985  0.12696  1.0000
  N   N22       1.0  0.98900  0.25500  0.14491  1.0000
  H   H59       1.0  0.99055  0.25312  0.00545  1.0000
  H   H60       1.0  0.97747  0.25633  0.14249  1.0000
  C   C103      1.0  0.48840  0.00760  0.30890  1.0000
  C   C104      1.0  0.49692  0.00552  0.22592  1.0000
  C   C105      1.0  0.51401  0.00382  0.22554  1.0000
  C   C106      1.0  0.52271  0.00349  0.30826  1.0000
  C   C107      1.0  0.52142  0.00232  0.13961  1.0000
  N   N23       1.0  0.51267  0.00246  0.06325  1.0000
  C   C108      1.0  0.49668  0.00403  0.06508  1.0000
  O   O12       1.0  0.53729  0.00044  0.12708  1.0000
  N   N24       1.0  0.48897  0.00553  0.14514  1.0000
  H   H61       1.0  0.49053  0.00414  0.00563  1.0000
  H   H62       1.0  0.47745  0.00685  0.14276  1.0000
  C   C109      1.0  0.31616  0.11664  0.33302  1.0000
  N   N25       1.0  0.30166  0.13054  0.33062  1.0000
  C   C110      1.0  0.28803  0.11396  0.33892  1.0000
  N   N26       1.0  0.28909  0.08370  0.34885  1.0000
  C   C111      1.0  0.30336  0.06991  0.35179  1.0000
  N   N27       1.0  0.31679  0.08628  0.34313  1.0000
  C   C112      1.0  0.69511  0.39452  0.33290  1.0000
  N   N28       1.0  0.70961  0.38061  0.33051  1.0000
  C   C113      1.0  0.72323  0.39720  0.33883  1.0000
  N   N29       1.0  0.72218  0.42745  0.34880  1.0000
  C   C114      1.0  0.70791  0.44124  0.35174  1.0000
  N   N30       1.0  0.69448  0.42487  0.34304  1.0000
  C   C115      1.0  0.69539  0.11428  0.36054  1.0000
  N   N31       1.0  0.70981  0.12841  0.36247  1.0000
  C   C116      1.0  0.72349  0.11181  0.36416  1.0000
  N   N32       1.0  0.72256  0.08133  0.36439  1.0000
  C   C117      1.0  0.70833  0.06733  0.36189  1.0000
  N   N33       1.0  0.69483  0.08376  0.36091  1.0000
  C   C118      1.0  0.31575  0.39685  0.36085  1.0000
  N   N34       1.0  0.30132  0.38275  0.36279  1.0000
  C   C119      1.0  0.28765  0.39938  0.36440  1.0000
  N   N35       1.0  0.28861  0.42986  0.36457  1.0000
  C   C120      1.0  0.30284  0.44383  0.36206  1.0000
  N   N36       1.0  0.31633  0.42737  0.36114  1.0000
  C   C121      1.0  0.81615  0.36697  0.33759  1.0000
  N   N37       1.0  0.80155  0.38050  0.33646  1.0000
  C   C122      1.0  0.78805  0.36365  0.34676  1.0000
  N   N38       1.0  0.78939  0.33341  0.35613  1.0000
  C   C123      1.0  0.80375  0.31993  0.35714  1.0000
  N   N39       1.0  0.81704  0.33662  0.34699  1.0000
  C   C124      1.0  0.19511  0.14414  0.33735  1.0000
  N   N40       1.0  0.20971  0.13060  0.33624  1.0000
  C   C125      1.0  0.22321  0.14745  0.34661  1.0000
  N   N41       1.0  0.22188  0.17770  0.35599  1.0000
  C   C126      1.0  0.20751  0.19117  0.35697  1.0000
  N   N42       1.0  0.19423  0.17449  0.34678  1.0000
  C   C127      1.0  0.19544  0.36426  0.35500  1.0000
  N   N43       1.0  0.20991  0.37823  0.35599  1.0000
  C   C128      1.0  0.22355  0.36149  0.35473  1.0000
  N   N44       1.0  0.22252  0.33103  0.35527  1.0000
  C   C129      1.0  0.20824  0.31720  0.35433  1.0000
  N   N45       1.0  0.19479  0.33376  0.35512  1.0000
  C   C130      1.0  0.81571  0.14681  0.35503  1.0000
  N   N46       1.0  0.80122  0.13288  0.35597  1.0000
  C   C131      1.0  0.78760  0.14965  0.35454  1.0000
  N   N47       1.0  0.78865  0.18011  0.35518  1.0000
  C   C132      1.0  0.80294  0.19391  0.35435  1.0000
  N   N48       1.0  0.81638  0.17731  0.35519  1.0000
  C   C133      1.0  0.10407  0.12198  0.34785  1.0000
  N   N49       1.0  0.09976  0.09201  0.35351  1.0000
  C   C134      1.0  0.11089  0.06921  0.35441  1.0000
  N   N50       1.0  0.12638  0.07734  0.34436  1.0000
  C   C135      1.0  0.13111  0.10610  0.33207  1.0000
  N   N51       1.0  0.11983  0.12784  0.33557  1.0000
  C   C136      1.0  0.90718  0.38940  0.34866  1.0000
  N   N52       1.0  0.91148  0.41938  0.35406  1.0000
  C   C137      1.0  0.90033  0.44215  0.35482  1.0000
  N   N53       1.0  0.88485  0.43401  0.34484  1.0000
  C   C138      1.0  0.88013  0.40523  0.33281  1.0000
  N   N54       1.0  0.89141  0.38351  0.33644  1.0000
  C   C139      1.0  0.90691  0.12189  0.32393  1.0000
  N   N55       1.0  0.91057  0.09182  0.33662  1.0000
  C   C140      1.0  0.89948  0.06999  0.35665  1.0000
  N   N56       1.0  0.88411  0.07933  0.35927  1.0000
  C   C141      1.0  0.87959  0.10811  0.34572  1.0000
  N   N57       1.0  0.89111  0.12868  0.33002  1.0000
  C   C142      1.0  0.10426  0.38952  0.32394  1.0000
  N   N58       1.0  0.10064  0.41960  0.33685  1.0000
  C   C143      1.0  0.11175  0.44140  0.35670  1.0000
  N   N59       1.0  0.12711  0.43203  0.35905  1.0000
  C   C144      1.0  0.13161  0.40324  0.34530  1.0000
  N   N60       1.0  0.12006  0.38271  0.32974  1.0000
  C   C145      1.0  0.60401  0.37191  0.34862  1.0000
  N   N61       1.0  0.59973  0.34193  0.35442  1.0000
  C   C146      1.0  0.61089  0.31919  0.35539  1.0000
  N   N62       1.0  0.62637  0.32735  0.34494  1.0000
  C   C147      1.0  0.63108  0.35613  0.33244  1.0000
  N   N63       1.0  0.61976  0.37779  0.33591  1.0000
  C   C148      1.0  0.40724  0.13944  0.34946  1.0000
  N   N64       1.0  0.41151  0.16943  0.35485  1.0000
  C   C149      1.0  0.40035  0.19216  0.35537  1.0000
  N   N65       1.0  0.38488  0.18397  0.34506  1.0000
  C   C150      1.0  0.38018  0.15518  0.33294  1.0000
  N   N66       1.0  0.39149  0.13352  0.33674  1.0000
  C   C151      1.0  0.40687  0.37191  0.32377  1.0000
  N   N67       1.0  0.41053  0.34182  0.33598  1.0000
  C   C152      1.0  0.39942  0.31997  0.35539  1.0000
  N   N68       1.0  0.38404  0.32927  0.35760  1.0000
  C   C153      1.0  0.37954  0.35807  0.34431  1.0000
  N   N69       1.0  0.39107  0.37872  0.32993  1.0000
  C   C154      1.0  0.60425  0.13948  0.32365  1.0000
  N   N70       1.0  0.60064  0.16957  0.33625  1.0000
  C   C155      1.0  0.61178  0.19139  0.35543  1.0000
  N   N71       1.0  0.62715  0.18202  0.35724  1.0000
  C   C156      1.0  0.63162  0.15322  0.34361  1.0000
  N   N72       1.0  0.62005  0.13263  0.32937  1.0000
  C   C157      1.0  0.06388  0.28283  0.31414  1.0000
  N   N73       1.0  0.04778  0.28008  0.30866  1.0000
  C   C158      1.0  0.03974  0.25347  0.31419  1.0000
  N   N74       1.0  0.04843  0.22777  0.32699  1.0000
  C   C159      1.0  0.06461  0.22813  0.33673  1.0000
  N   N75       1.0  0.07147  0.25596  0.32876  1.0000
  C   C160      1.0  0.94722  0.22864  0.31356  1.0000
  N   N76       1.0  0.96333  0.23130  0.30787  1.0000
  C   C161      1.0  0.97142  0.25784  0.31422  1.0000
  N   N77       1.0  0.96277  0.28355  0.32791  1.0000
  C   C162      1.0  0.94659  0.28325  0.33754  1.0000
  N   N78       1.0  0.93967  0.25550  0.32899  1.0000
  C   C163      1.0  0.56385  0.03279  0.31445  1.0000
  N   N79       1.0  0.54775  0.03003  0.30888  1.0000
  C   C164      1.0  0.53970  0.00342  0.31444  1.0000
  N   N80       1.0  0.54840  0.47773  0.32738  1.0000
  C   C165      1.0  0.56458  0.47810  0.33716  1.0000
  N   N81       1.0  0.57144  0.00592  0.32915  1.0000
  C   C166      1.0  0.44717  0.47865  0.31386  1.0000
  N   N82       1.0  0.46329  0.48125  0.30810  1.0000
  C   C167      1.0  0.47139  0.50777  0.31451  1.0000
  N   N83       1.0  0.46276  0.03349  0.32833  1.0000
  C   C168      1.0  0.44659  0.03324  0.33806  1.0000
  N   N84       1.0  0.43965  0.50551  0.32946  1.0000
  C   C169      1.0  0.26493  0.13307  0.41456  1.0000
  C   C170      1.0  0.24858  0.13900  0.41802  1.0000
  H   H63       1.0  0.24371  0.14510  0.47864  1.0000
  H   H64       1.0  0.27130  0.13399  0.47337  1.0000
  C   C171      1.0  0.74632  0.37795  0.41449  1.0000
  C   C172      1.0  0.76267  0.37202  0.41803  1.0000
  H   H65       1.0  0.76752  0.36584  0.47862  1.0000
  H   H66       1.0  0.73994  0.37698  0.47324  1.0000
  C   C173      1.0  0.77207  0.13769  0.36079  1.0000
  C   C174      1.0  0.76508  0.12957  0.44483  1.0000
  C   C175      1.0  0.74850  0.12234  0.44896  1.0000
  C   C176      1.0  0.73896  0.12408  0.36955  1.0000
  C   C177      1.0  0.74241  0.11444  0.53518  1.0000
  N   N85       1.0  0.75191  0.11420  0.60860  1.0000
  C   C178      1.0  0.76747  0.12114  0.60325  1.0000
  O   O13       1.0  0.72700  0.10811  0.55161  1.0000
  N   N86       1.0  0.77388  0.12876  0.52265  1.0000
  H   H67       1.0  0.77424  0.12073  0.66045  1.0000
  H   H68       1.0  0.78513  0.13360  0.52238  1.0000
  C   C179      1.0  0.23908  0.37350  0.36090  1.0000
  C   C180      1.0  0.24602  0.38185  0.44484  1.0000
  C   C181      1.0  0.26260  0.38908  0.44906  1.0000
  C   C182      1.0  0.27218  0.38714  0.36983  1.0000
  C   C183      1.0  0.26865  0.39716  0.53521  1.0000
  N   N87       1.0  0.25912  0.39758  0.60849  1.0000
  C   C184      1.0  0.24357  0.39066  0.60304  1.0000
  O   O14       1.0  0.28407  0.40345  0.55176  1.0000
  N   N88       1.0  0.23718  0.38286  0.52252  1.0000
  H   H69       1.0  0.23676  0.39122  0.66013  1.0000
  H   H70       1.0  0.22593  0.37804  0.52218  1.0000
  C   C185      1.0  0.30360  0.47524  0.36517  1.0000
  C   C186      1.0  0.30326  0.49149  0.44783  1.0000
  C   C187      1.0  0.30345  0.02370  0.44560  1.0000
  C   C188      1.0  0.30405  0.03863  0.36073  1.0000
  C   C189      1.0  0.30305  0.03874  0.53019  1.0000
  N   N89       1.0  0.30256  0.02288  0.60799  1.0000
  C   C190      1.0  0.30240  0.49248  0.60862  1.0000
  O   O15       1.0  0.30332  0.06904  0.53988  1.0000
  N   N90       1.0  0.30275  0.47710  0.52969  1.0000
  H   H71       1.0  0.30274  0.45523  0.53363  1.0000
  C   C191      1.0  0.70759  0.03592  0.36503  1.0000
  C   C192      1.0  0.70792  0.01967  0.44771  1.0000
  C   C193      1.0  0.70776  0.48747  0.44551  1.0000
  C   C194      1.0  0.70722  0.47252  0.36065  1.0000
  C   C195      1.0  0.70813  0.47243  0.53012  1.0000
  N   N91       1.0  0.70858  0.48830  0.60791  1.0000
  C   C196      1.0  0.70872  0.01870  0.60851  1.0000
  O   O16       1.0  0.70789  0.44214  0.53984  1.0000
  N   N92       1.0  0.70838  0.03408  0.52957  1.0000
  H   H72       1.0  0.70839  0.05595  0.53348  1.0000
  C   C197      1.0  0.80380  0.22523  0.36081  1.0000
  C   C198      1.0  0.80275  0.24050  0.44496  1.0000
  C   C199      1.0  0.80313  0.27270  0.44619  1.0000
  C   C200      1.0  0.80459  0.28860  0.36327  1.0000
  C   C201      1.0  0.80211  0.28677  0.53210  1.0000
  N   N93       1.0  0.80088  0.27003  0.60796  1.0000
  C   C202      1.0  0.80049  0.23965  0.60532  1.0000
  O   O17       1.0  0.80261  0.31692  0.54503  1.0000
  N   N94       1.0  0.80141  0.22517  0.52502  1.0000
  H   H73       1.0  0.79957  0.22783  0.66430  1.0000
  H   H74       1.0  0.80117  0.20324  0.52666  1.0000
  C   C203      1.0  0.20740  0.28587  0.36074  1.0000
  C   C204      1.0  0.20841  0.27060  0.44490  1.0000
  C   C205      1.0  0.20806  0.23840  0.44609  1.0000
  C   C206      1.0  0.20666  0.22251  0.36312  1.0000
  C   C207      1.0  0.20904  0.22432  0.53200  1.0000
  N   N95       1.0  0.21021  0.24105  0.60790  1.0000
  C   C208      1.0  0.21057  0.27144  0.60531  1.0000
  O   O18       1.0  0.20857  0.19416  0.54489  1.0000
  N   N96       1.0  0.20969  0.28592  0.52500  1.0000
  H   H75       1.0  0.21144  0.28325  0.66432  1.0000
  H   H76       1.0  0.20991  0.30785  0.52668  1.0000
  C   C209      1.0  0.33764  0.14553  0.39704  1.0000
  C   C210      1.0  0.35371  0.15401  0.39850  1.0000
  H   H77       1.0  0.35817  0.16328  0.45643  1.0000
  H   H78       1.0  0.33106  0.14842  0.45450  1.0000
  C   C211      1.0  0.67360  0.36568  0.39684  1.0000
  C   C212      1.0  0.65753  0.35725  0.39819  1.0000
  H   H79       1.0  0.65305  0.34801  0.45611  1.0000
  H   H80       1.0  0.68017  0.36279  0.45435  1.0000
  C   C213      1.0  0.64774  0.14499  0.35352  1.0000
  C   C214      1.0  0.65468  0.13843  0.43890  1.0000
  C   C215      1.0  0.67112  0.13020  0.44403  1.0000
  C   C216      1.0  0.68053  0.12912  0.36403  1.0000
  C   C217      1.0  0.67710  0.12335  0.53129  1.0000
  N   N97       1.0  0.66762  0.12482  0.60465  1.0000
  C   C218      1.0  0.65218  0.13253  0.59826  1.0000
  O   O19       1.0  0.69238  0.11600  0.54836  1.0000
  N   N98       1.0  0.64584  0.13916  0.51665  1.0000
  H   H81       1.0  0.64539  0.13327  0.65541  1.0000
  H   H82       1.0  0.63462  0.14437  0.51557  1.0000
  C   C219      1.0  0.36340  0.36622  0.35415  1.0000
  C   C220      1.0  0.35642  0.37261  0.43953  1.0000
  C   C221      1.0  0.33997  0.38079  0.44453  1.0000
  C   C222      1.0  0.33060  0.38199  0.36439  1.0000
  C   C223      1.0  0.33394  0.38750  0.53179  1.0000
  N   N99       1.0  0.34340  0.38594  0.60526  1.0000
  C   C224      1.0  0.35885  0.37826  0.59900  1.0000
  O   O20       1.0  0.31866  0.39481  0.54871  1.0000
  N   N100      1.0  0.36522  0.37177  0.51739  1.0000
  H   H83       1.0  0.36560  0.37745  0.65624  1.0000
  H   H84       1.0  0.37644  0.36660  0.51640  1.0000
  C   C225      1.0  0.83818  0.39340  0.40428  1.0000
  C   C226      1.0  0.85427  0.40165  0.40437  1.0000
  H   H85       1.0  0.85921  0.40895  0.46356  1.0000
  H   H86       1.0  0.83205  0.39445  0.46387  1.0000
  C   C227      1.0  0.17304  0.11792  0.40414  1.0000
  C   C228      1.0  0.15693  0.10976  0.40406  1.0000
  H   H87       1.0  0.15195  0.10260  0.46330  1.0000
  H   H88       1.0  0.17913  0.11699  0.46385  1.0000
  C   C229      1.0  0.14778  0.39505  0.35321  1.0000
  C   C230      1.0  0.15551  0.39129  0.43796  1.0000
  C   C231      1.0  0.17197  0.38302  0.44073  1.0000
  C   C232      1.0  0.18062  0.37917  0.35876  1.0000
  C   C233      1.0  0.17869  0.37868  0.52769  1.0000
  N   N101      1.0  0.16986  0.38249  0.60289  1.0000
  C   C234      1.0  0.15440  0.39027  0.59879  1.0000
  O   O21       1.0  0.19401  0.37108  0.54241  1.0000
  N   N102      1.0  0.14736  0.39442  0.51758  1.0000
  H   H89       1.0  0.14811  0.39270  0.65731  1.0000
  H   H90       1.0  0.13612  0.39939  0.51821  1.0000
  C   C235      1.0  0.86340  0.11624  0.35358  1.0000
  C   C236      1.0  0.85563  0.11981  0.43827  1.0000
  C   C237      1.0  0.83916  0.12797  0.44093  1.0000
  C   C238      1.0  0.83051  0.13186  0.35898  1.0000
  C   C239      1.0  0.83240  0.13216  0.52786  1.0000
  N   N103      1.0  0.84121  0.12830  0.60313  1.0000
  C   C240      1.0  0.85668  0.12063  0.59912  1.0000
  O   O22       1.0  0.81706  0.13962  0.54246  1.0000
  N   N104      1.0  0.86376  0.11663  0.51795  1.0000
  H   H91       1.0  0.86296  0.11815  0.65769  1.0000
  H   H92       1.0  0.87501  0.11175  0.51865  1.0000
  C   C241      1.0  0.07404  0.20167  0.35315  1.0000
  C   C242      1.0  0.08899  0.20167  0.39981  1.0000
  C   C243      1.0  0.09850  0.17465  0.40526  1.0000
  C   C244      1.0  0.09374  0.14732  0.36085  1.0000
  C   C245      1.0  0.11162  0.17570  0.46604  1.0000
  N   N105      1.0  0.11553  0.20118  0.51022  1.0000
  C   C246      1.0  0.10719  0.22671  0.49962  1.0000
  O   O23       1.0  0.11927  0.15121  0.49862  1.0000
  N   N106      1.0  0.09385  0.22636  0.44893  1.0000
  H   H93       1.0  0.11016  0.24521  0.53723  1.0000
  H   H94       1.0  0.08723  0.24401  0.45572  1.0000
  C   C247      1.0  0.93721  0.30974  0.35419  1.0000
  C   C248      1.0  0.92226  0.30974  0.40083  1.0000
  C   C249      1.0  0.91275  0.33676  0.40622  1.0000
  C   C250      1.0  0.91751  0.36407  0.36175  1.0000
  C   C251      1.0  0.89961  0.33572  0.46689  1.0000
  N   N107      1.0  0.89575  0.31026  0.51134  1.0000
  C   C252      1.0  0.90408  0.28471  0.50076  1.0000
  O   O24       1.0  0.89202  0.36022  0.49977  1.0000
  N   N108      1.0  0.91742  0.28507  0.45005  1.0000
  H   H95       1.0  0.90115  0.26630  0.53881  1.0000
  H   H96       1.0  0.92406  0.26744  0.45688  1.0000
  C   C253      1.0  0.91266  0.17566  0.33617  1.0000
  C   C254      1.0  0.92236  0.20132  0.33428  1.0000
  H   H97       1.0  0.91731  0.22076  0.35782  1.0000
  H   H98       1.0  0.90155  0.17887  0.36242  1.0000
  C   C255      1.0  0.09852  0.33571  0.33502  1.0000
  C   C256      1.0  0.08879  0.31010  0.33346  1.0000
  H   H99       1.0  0.09392  0.29056  0.35568  1.0000
  H   H100      1.0  0.10972  0.33237  0.35992  1.0000
  C   C257      1.0  0.57400  0.45163  0.35365  1.0000
  C   C258      1.0  0.58897  0.45166  0.40012  1.0000
  C   C259      1.0  0.59848  0.42463  0.40559  1.0000
  C   C260      1.0  0.59369  0.39727  0.36147  1.0000
  C   C261      1.0  0.61161  0.42569  0.46634  1.0000
  N   N109      1.0  0.61553  0.45122  0.51026  1.0000
  C   C262      1.0  0.60722  0.47677  0.49948  1.0000
  O   O25       1.0  0.61928  0.40123  0.49890  1.0000
  N   N110      1.0  0.59385  0.47638  0.44900  1.0000
  H   H101      1.0  0.61018  0.49523  0.53727  1.0000
  H   H102      1.0  0.58721  0.49398  0.45608  1.0000
  C   C263      1.0  0.43723  0.05975  0.35483  1.0000
  C   C264      1.0  0.42228  0.05976  0.40147  1.0000
  C   C265      1.0  0.41279  0.08680  0.40692  1.0000
  C   C266      1.0  0.41756  0.11410  0.36249  1.0000
  C   C267      1.0  0.39965  0.08575  0.46764  1.0000
  N   N111      1.0  0.39576  0.06028  0.51189  1.0000
  C   C268      1.0  0.40408  0.03473  0.50127  1.0000
  O   O26       1.0  0.39200  0.11025  0.50006  1.0000
  N   N112      1.0  0.41742  0.03507  0.45056  1.0000
  H   H103      1.0  0.40114  0.01630  0.53924  1.0000
  H   H104      1.0  0.42407  0.01747  0.45756  1.0000
  C   C269      1.0  0.41267  0.42561  0.33759  1.0000
  C   C270      1.0  0.42236  0.45128  0.33557  1.0000
  H   H105      1.0  0.41736  0.47065  0.35996  1.0000
  H   H106      1.0  0.40160  0.42872  0.36454  1.0000
  C   C271      1.0  0.59847  0.08570  0.33559  1.0000
  C   C272      1.0  0.58874  0.06008  0.33400  1.0000
  H   H107      1.0  0.59385  0.04057  0.35661  1.0000
  H   H108      1.0  0.60965  0.08240  0.36075  1.0000
  C   C273      1.0  0.10906  0.47273  0.37401  1.0000
  C   C274      1.0  0.11881  0.48963  0.43511  1.0000
  C   C275      1.0  0.11840  0.02198  0.43539  1.0000
  C   C276      1.0  0.10829  0.03816  0.37470  1.0000
  C   C277      1.0  0.12741  0.03658  0.50410  1.0000
  N   N113      1.0  0.13618  0.02067  0.56351  1.0000
  C   C278      1.0  0.13678  0.49042  0.56071  1.0000
  O   O27       1.0  0.12618  0.06617  0.52488  1.0000
  N   N114      1.0  0.12781  0.47539  0.49985  1.0000
  H   H109      1.0  0.14308  0.47911  0.60901  1.0000
  H   H110      1.0  0.12721  0.45378  0.50887  1.0000
  C   C279      1.0  0.90218  0.03866  0.37398  1.0000
  C   C280      1.0  0.89245  0.02179  0.43524  1.0000
  C   C281      1.0  0.89283  0.48943  0.43557  1.0000
  C   C282      1.0  0.90293  0.47323  0.37487  1.0000
  C   C283      1.0  0.88382  0.47484  0.50431  1.0000
  N   N115      1.0  0.87511  0.49079  0.56390  1.0000
  C   C284      1.0  0.87452  0.02105  0.56106  1.0000
  O   O28       1.0  0.88508  0.44529  0.52539  1.0000
  N   N116      1.0  0.88348  0.03605  0.50013  1.0000
  H   H111      1.0  0.86828  0.03236  0.60966  1.0000
  H   H112      1.0  0.88411  0.05765  0.50920  1.0000
  C   C285      1.0  0.60911  0.22268  0.37328  1.0000
  C   C286      1.0  0.61892  0.23945  0.43439  1.0000
  C   C287      1.0  0.61851  0.27180  0.43521  1.0000
  C   C288      1.0  0.60833  0.28807  0.37510  1.0000
  C   C289      1.0  0.62757  0.28630  0.50386  1.0000
  N   N117      1.0  0.63636  0.27027  0.56292  1.0000
  C   C290      1.0  0.63699  0.24002  0.55953  1.0000
  O   O29       1.0  0.62631  0.31581  0.52544  1.0000
  N   N118      1.0  0.62801  0.22508  0.49854  1.0000
  H   H113      1.0  0.64329  0.22865  0.60771  1.0000
  H   H114      1.0  0.62743  0.20344  0.50734  1.0000
  C   C291      1.0  0.40211  0.28868  0.37315  1.0000
  C   C292      1.0  0.39236  0.27190  0.43455  1.0000
  C   C293      1.0  0.39276  0.23955  0.43531  1.0000
  C   C294      1.0  0.40291  0.22327  0.37506  1.0000
  C   C295      1.0  0.38374  0.22505  0.50415  1.0000
  N   N119      1.0  0.37501  0.24107  0.56343  1.0000
  C   C296      1.0  0.37439  0.27132  0.56015  1.0000
  O   O30       1.0  0.38500  0.19552  0.52558  1.0000
  N   N120      1.0  0.38334  0.28627  0.49900  1.0000
  H   H115      1.0  0.36813  0.28269  0.60850  1.0000
  H   H116      1.0  0.38394  0.30790  0.50777  1.0000
  C   C297      1.0  0.01400  0.25591  0.38911  1.0000
  C   C298      1.0  0.99729  0.25792  0.38943  1.0000
  H   H117      1.0  0.99158  0.25927  0.45026  1.0000
  H   H118      1.0  0.01980  0.25635  0.44979  1.0000
  C   C299      1.0  0.51396  0.00548  0.38941  1.0000
  C   C300      1.0  0.49726  0.00748  0.38976  1.0000
  H   H119      1.0  0.49154  0.00859  0.45063  1.0000
  H   H120      1.0  0.51976  0.00569  0.45010  1.0000
  C   C301      1.0  0.23896  0.63640  0.34045  1.0000
  C   C302      1.0  0.24623  0.62895  0.25660  1.0000
  C   C303      1.0  0.26297  0.62299  0.25301  1.0000
  C   C304      1.0  0.27241  0.62548  0.33260  1.0000
  C   C305      1.0  0.26930  0.61531  0.16719  1.0000
  N   N121      1.0  0.25989  0.61438  0.09342  1.0000
  C   C306      1.0  0.24422  0.62040  0.09807  1.0000
  O   O31       1.0  0.28481  0.60956  0.15171  1.0000
  N   N122      1.0  0.23755  0.62759  0.17837  1.0000
  H   H121      1.0  0.23753  0.61948  0.04060  1.0000
  H   H122      1.0  0.22621  0.63164  0.17809  1.0000
  C   C307      1.0  0.77231  0.87471  0.34055  1.0000
  C   C308      1.0  0.76506  0.88225  0.25672  1.0000
  C   C309      1.0  0.74832  0.88823  0.25307  1.0000
  C   C310      1.0  0.73885  0.88567  0.33257  1.0000
  C   C311      1.0  0.74201  0.89599  0.16727  1.0000
  N   N123      1.0  0.75144  0.89697  0.09357  1.0000
  C   C312      1.0  0.76710  0.89094  0.09828  1.0000
  O   O32       1.0  0.72650  0.90173  0.15169  1.0000
  N   N124      1.0  0.77375  0.88368  0.17857  1.0000
  H   H123      1.0  0.77380  0.89189  0.04085  1.0000
  H   H124      1.0  0.78510  0.87961  0.17832  1.0000
  C   C313      1.0  0.74613  0.63266  0.28756  1.0000
  C   C314      1.0  0.76234  0.63982  0.28360  1.0000
  H   H125      1.0  0.76702  0.64649  0.22303  1.0000
  H   H126      1.0  0.73966  0.63328  0.22907  1.0000
  C   C315      1.0  0.26505  0.87833  0.28794  1.0000
  C   C316      1.0  0.24884  0.87116  0.28391  1.0000
  H   H127      1.0  0.24419  0.86432  0.22344  1.0000
  H   H128      1.0  0.27155  0.87755  0.22958  1.0000
  C   C317      1.0  0.30453  0.52197  0.27992  1.0000
  C   C318      1.0  0.30431  0.99049  0.28209  1.0000
  H   H129      1.0  0.30445  0.97890  0.22230  1.0000
  H   H130      1.0  0.30478  0.53254  0.21845  1.0000
  H   H131      1.0  0.30206  0.98135  0.00229  1.0000
  C   C319      1.0  0.70676  0.98917  0.27981  1.0000
  C   C320      1.0  0.70695  0.52065  0.28195  1.0000
  H   H132      1.0  0.70683  0.53223  0.22216  1.0000
  H   H133      1.0  0.70655  0.97859  0.21835  1.0000
  H   H134      1.0  0.70902  0.52985  0.00218  1.0000
  C   C321      1.0  0.80583  0.77287  0.28102  1.0000
  C   C322      1.0  0.80546  0.74140  0.27976  1.0000
  H   H135      1.0  0.80610  0.73050  0.21893  1.0000
  H   H136      1.0  0.80665  0.78414  0.22084  1.0000
  C   C323      1.0  0.20548  0.73824  0.28086  1.0000
  C   C324      1.0  0.20583  0.76971  0.27963  1.0000
  H   H137      1.0  0.20523  0.78061  0.21880  1.0000
  H   H138      1.0  0.20472  0.72698  0.22065  1.0000
  C   C325      1.0  0.36382  0.64788  0.32480  1.0000
  C   C326      1.0  0.35731  0.63420  0.24618  1.0000
  C   C327      1.0  0.34086  0.62584  0.24436  1.0000
  C   C328      1.0  0.33097  0.63126  0.32092  1.0000
  C   C329      1.0  0.33525  0.61250  0.16326  1.0000
  N   N125      1.0  0.34506  0.60835  0.09225  1.0000
  C   C330      1.0  0.36049  0.61630  0.09548  1.0000
  O   O33       1.0  0.31998  0.60451  0.14882  1.0000
  N   N126      1.0  0.36648  0.62904  0.17121  1.0000
  H   H139      1.0  0.36750  0.61288  0.04008  1.0000
  H   H140      1.0  0.37761  0.63480  0.16949  1.0000
  C   C331      1.0  0.64744  0.86339  0.32440  1.0000
  C   C332      1.0  0.65397  0.87703  0.24578  1.0000
  C   C333      1.0  0.67043  0.88534  0.24404  1.0000
  C   C334      1.0  0.68028  0.87991  0.32072  1.0000
  C   C335      1.0  0.67607  0.89866  0.16297  1.0000
  N   N127      1.0  0.66628  0.90279  0.09185  1.0000
  C   C336      1.0  0.65084  0.89487  0.09498  1.0000
  O   O34       1.0  0.69136  0.90658  0.14860  1.0000
  N   N128      1.0  0.64483  0.88217  0.17071  1.0000
  H   H141      1.0  0.64385  0.89825  0.03950  1.0000
  H   H142      1.0  0.63369  0.87642  0.16891  1.0000
  C   C337      1.0  0.67335  0.63593  0.28052  1.0000
  C   C338      1.0  0.65726  0.64397  0.27541  1.0000
  H   H143      1.0  0.65244  0.64834  0.21334  1.0000
  H   H144      1.0  0.67962  0.63388  0.22163  1.0000
  C   C339      1.0  0.33783  0.87535  0.28089  1.0000
  C   C340      1.0  0.35393  0.86737  0.27589  1.0000
  H   H145      1.0  0.35877  0.86310  0.21384  1.0000
  H   H146      1.0  0.33158  0.87748  0.22193  1.0000
  C   C341      1.0  0.86375  0.89805  0.32663  1.0000
  C   C342      1.0  0.85660  0.88709  0.24603  1.0000
  C   C343      1.0  0.84011  0.87897  0.24577  1.0000
  C   C344      1.0  0.83084  0.88199  0.32584  1.0000
  C   C345      1.0  0.83385  0.86818  0.16282  1.0000
  N   N129      1.0  0.84314  0.86617  0.08874  1.0000
  C   C346      1.0  0.85862  0.87389  0.09050  1.0000
  O   O35       1.0  0.81846  0.86061  0.15025  1.0000
  N   N130      1.0  0.86521  0.88416  0.16796  1.0000
  H   H147      1.0  0.86522  0.87209  0.03284  1.0000
  H   H148      1.0  0.87638  0.88972  0.16547  1.0000
  C   C347      1.0  0.14750  0.61323  0.32608  1.0000
  C   C348      1.0  0.15471  0.62398  0.24540  1.0000
  C   C349      1.0  0.17120  0.63205  0.24527  1.0000
  C   C350      1.0  0.18041  0.62914  0.32560  1.0000
  C   C351      1.0  0.17752  0.64266  0.16227  1.0000
  N   N131      1.0  0.16827  0.64457  0.08799  1.0000
  C   C352      1.0  0.15278  0.63688  0.08959  1.0000
  O   O36       1.0  0.19292  0.65019  0.14987  1.0000
  N   N132      1.0  0.14614  0.62679  0.16713  1.0000
  H   H149      1.0  0.14622  0.63860  0.03179  1.0000
  H   H150      1.0  0.13497  0.62127  0.16454  1.0000
  C   C353      1.0  0.17263  0.88304  0.27591  1.0000
  C   C354      1.0  0.15652  0.89101  0.27311  1.0000
  H   H151      1.0  0.15115  0.89331  0.21152  1.0000
  H   H152      1.0  0.17834  0.87897  0.21614  1.0000
  C   C355      1.0  0.83856  0.62824  0.27617  1.0000
  C   C356      1.0  0.85469  0.62039  0.27344  1.0000
  H   H153      1.0  0.86009  0.61825  0.21188  1.0000
  H   H154      1.0  0.83288  0.63242  0.21637  1.0000
  C   C357      1.0  0.07806  0.64682  0.32683  1.0000
  C   C358      1.0  0.06854  0.67309  0.32340  1.0000
  H   H155      1.0  0.05786  0.67149  0.29088  1.0000
  H   H156      1.0  0.07387  0.62779  0.29587  1.0000
  C   C359      1.0  0.93320  0.86458  0.32783  1.0000
  C   C360      1.0  0.94272  0.83831  0.32447  1.0000
  H   H157      1.0  0.95340  0.83990  0.29193  1.0000
  H   H158      1.0  0.93738  0.88361  0.29686  1.0000
  C   C361      1.0  0.93849  0.70069  0.30722  1.0000
  C   C362      1.0  0.94403  0.67180  0.27551  1.0000
  C   C363      1.0  0.93381  0.64534  0.27590  1.0000
  C   C364      1.0  0.91790  0.64646  0.31058  1.0000
  C   C365      1.0  0.93989  0.61928  0.23167  1.0000
  N   N133      1.0  0.95458  0.61893  0.19586  1.0000
  C   C366      1.0  0.96424  0.64292  0.20079  1.0000
  O   O37       1.0  0.93125  0.59504  0.20695  1.0000
  N   N134      1.0  0.95886  0.66883  0.23760  1.0000
  H   H159      1.0  0.97517  0.64186  0.17069  1.0000
  H   H160      1.0  0.96597  0.68571  0.23071  1.0000
  C   C367      1.0  0.07258  0.81083  0.30808  1.0000
  C   C368      1.0  0.06695  0.83987  0.27795  1.0000
  C   C369      1.0  0.07721  0.86627  0.27777  1.0000
  C   C370      1.0  0.09323  0.86501  0.31076  1.0000
  C   C371      1.0  0.07103  0.89246  0.23479  1.0000
  N   N135      1.0  0.05617  0.89305  0.20110  1.0000
  C   C372      1.0  0.04647  0.86916  0.20703  1.0000
  O   O38       1.0  0.07963  0.91662  0.20903  1.0000
  N   N136      1.0  0.05196  0.84310  0.24237  1.0000
  H   H161      1.0  0.03540  0.87042  0.17867  1.0000
  H   H162      1.0  0.04473  0.82635  0.23652  1.0000
  C   C373      1.0  0.57801  0.89678  0.32750  1.0000
  C   C374      1.0  0.56849  0.92305  0.32403  1.0000
  H   H163      1.0  0.55778  0.92143  0.29185  1.0000
  H   H164      1.0  0.57379  0.87769  0.29701  1.0000
  C   C375      1.0  0.43325  0.61459  0.32849  1.0000
  C   C376      1.0  0.44275  0.58830  0.32508  1.0000
  H   H165      1.0  0.45345  0.58988  0.29272  1.0000
  H   H166      1.0  0.43744  0.63365  0.29776  1.0000
  C   C377      1.0  0.43842  0.95073  0.30743  1.0000
  C   C378      1.0  0.44391  0.92194  0.27466  1.0000
  C   C379      1.0  0.43370  0.89546  0.27507  1.0000
  C   C380      1.0  0.41786  0.89649  0.31082  1.0000
  C   C381      1.0  0.43970  0.86956  0.22967  1.0000
  N   N137      1.0  0.45432  0.86932  0.19294  1.0000
  C   C382      1.0  0.46397  0.89332  0.19770  1.0000
  O   O39       1.0  0.43106  0.84525  0.20565  1.0000
  N   N138      1.0  0.45864  0.91914  0.23542  1.0000
  H   H167      1.0  0.47483  0.89240  0.16671  1.0000
  H   H168      1.0  0.46571  0.93607  0.22832  1.0000
  C   C383      1.0  0.57255  0.56080  0.30836  1.0000
  C   C384      1.0  0.56692  0.58980  0.27793  1.0000
  C   C385      1.0  0.57719  0.61620  0.27755  1.0000
  C   C386      1.0  0.59320  0.61497  0.31086  1.0000
  C   C387      1.0  0.57102  0.64233  0.23418  1.0000
  N   N139      1.0  0.55616  0.64292  0.20055  1.0000
  C   C388      1.0  0.54647  0.61903  0.20651  1.0000
  O   O40       1.0  0.57960  0.66658  0.20891  1.0000
  N   N140      1.0  0.55195  0.59300  0.24217  1.0000
  H   H169      1.0  0.53538  0.62027  0.17836  1.0000
  H   H170      1.0  0.54471  0.57625  0.23652  1.0000
  C   C389      1.0  0.09693  0.52104  0.32643  1.0000
  C   C390      1.0  0.09729  0.98908  0.32637  1.0000
  H   H171      1.0  0.09004  0.97802  0.28197  1.0000
  H   H172      1.0  0.08956  0.53161  0.28163  1.0000
  C   C391      1.0  0.91428  0.99033  0.32646  1.0000
  C   C392      1.0  0.91393  0.52229  0.32628  1.0000
  H   H173      1.0  0.92117  0.53333  0.28178  1.0000
  H   H174      1.0  0.92165  0.97973  0.28165  1.0000
  C   C393      1.0  0.59691  0.77105  0.32709  1.0000
  C   C394      1.0  0.59726  0.73909  0.32649  1.0000
  H   H175      1.0  0.58998  0.72809  0.28216  1.0000
  H   H176      1.0  0.58947  0.78170  0.28276  1.0000
  C   C395      1.0  0.41429  0.74030  0.32668  1.0000
  C   C396      1.0  0.41390  0.77225  0.32589  1.0000
  H   H177      1.0  0.42119  0.78327  0.28160  1.0000
  H   H178      1.0  0.42170  0.72964  0.28223  1.0000
  C   C397      1.0  0.98843  0.75770  0.30859  1.0000
  C   C398      1.0  0.99694  0.75528  0.22567  1.0000
  C   C399      1.0  0.01403  0.75357  0.22534  1.0000
  C   C400      1.0  0.02274  0.75355  0.30805  1.0000
  C   C401      1.0  0.02144  0.75174  0.13945  1.0000
  N   N141      1.0  0.01269  0.75162  0.06309  1.0000
  C   C402      1.0  0.99670  0.75321  0.06489  1.0000
  O   O41       1.0  0.03731  0.74985  0.12696  1.0000
  N   N142      1.0  0.98900  0.75499  0.14491  1.0000
  H   H179      1.0  0.99055  0.75312  0.00545  1.0000
  H   H180      1.0  0.97747  0.75633  0.14249  1.0000
  C   C403      1.0  0.48840  0.50760  0.30890  1.0000
  C   C404      1.0  0.49692  0.50552  0.22592  1.0000
  C   C405      1.0  0.51401  0.50382  0.22554  1.0000
  C   C406      1.0  0.52271  0.50349  0.30826  1.0000
  C   C407      1.0  0.52142  0.50232  0.13961  1.0000
  N   N143      1.0  0.51267  0.50246  0.06325  1.0000
  C   C408      1.0  0.49668  0.50403  0.06508  1.0000
  O   O42       1.0  0.53729  0.50044  0.12708  1.0000
  N   N144      1.0  0.48897  0.50553  0.14514  1.0000
  H   H181      1.0  0.49053  0.50414  0.00563  1.0000
  H   H182      1.0  0.47745  0.50685  0.14276  1.0000
  C   C409      1.0  0.31616  0.61664  0.33302  1.0000
  N   N145      1.0  0.30166  0.63054  0.33062  1.0000
  C   C410      1.0  0.28803  0.61396  0.33892  1.0000
  N   N146      1.0  0.28909  0.58370  0.34885  1.0000
  C   C411      1.0  0.30336  0.56991  0.35179  1.0000
  N   N147      1.0  0.31679  0.58628  0.34313  1.0000
  C   C412      1.0  0.69511  0.89452  0.33290  1.0000
  N   N148      1.0  0.70961  0.88061  0.33051  1.0000
  C   C413      1.0  0.72323  0.89719  0.33883  1.0000
  N   N149      1.0  0.72218  0.92745  0.34880  1.0000
  C   C414      1.0  0.70791  0.94124  0.35174  1.0000
  N   N150      1.0  0.69448  0.92487  0.34304  1.0000
  C   C415      1.0  0.69539  0.61428  0.36054  1.0000
  N   N151      1.0  0.70981  0.62841  0.36247  1.0000
  C   C416      1.0  0.72349  0.61181  0.36416  1.0000
  N   N152      1.0  0.72256  0.58133  0.36439  1.0000
  C   C417      1.0  0.70833  0.56733  0.36189  1.0000
  N   N153      1.0  0.69483  0.58376  0.36091  1.0000
  C   C418      1.0  0.31575  0.89685  0.36085  1.0000
  N   N154      1.0  0.30132  0.88275  0.36279  1.0000
  C   C419      1.0  0.28765  0.89938  0.36440  1.0000
  N   N155      1.0  0.28861  0.92986  0.36457  1.0000
  C   C420      1.0  0.30284  0.94383  0.36206  1.0000
  N   N156      1.0  0.31633  0.92737  0.36114  1.0000
  C   C421      1.0  0.81615  0.86697  0.33759  1.0000
  N   N157      1.0  0.80155  0.88050  0.33646  1.0000
  C   C422      1.0  0.78805  0.86365  0.34676  1.0000
  N   N158      1.0  0.78939  0.83340  0.35613  1.0000
  C   C423      1.0  0.80375  0.81993  0.35714  1.0000
  N   N159      1.0  0.81704  0.83662  0.34699  1.0000
  C   C424      1.0  0.19511  0.64414  0.33735  1.0000
  N   N160      1.0  0.20971  0.63060  0.33624  1.0000
  C   C425      1.0  0.22321  0.64745  0.34661  1.0000
  N   N161      1.0  0.22188  0.67770  0.35599  1.0000
  C   C426      1.0  0.20751  0.69117  0.35697  1.0000
  N   N162      1.0  0.19423  0.67449  0.34678  1.0000
  C   C427      1.0  0.19544  0.86426  0.35500  1.0000
  N   N163      1.0  0.20991  0.87823  0.35599  1.0000
  C   C428      1.0  0.22355  0.86149  0.35473  1.0000
  N   N164      1.0  0.22252  0.83103  0.35527  1.0000
  C   C429      1.0  0.20824  0.81720  0.35433  1.0000
  N   N165      1.0  0.19479  0.83376  0.35512  1.0000
  C   C430      1.0  0.81571  0.64681  0.35503  1.0000
  N   N166      1.0  0.80122  0.63288  0.35597  1.0000
  C   C431      1.0  0.78760  0.64965  0.35454  1.0000
  N   N167      1.0  0.78865  0.68011  0.35518  1.0000
  C   C432      1.0  0.80294  0.69391  0.35435  1.0000
  N   N168      1.0  0.81638  0.67731  0.35519  1.0000
  C   C433      1.0  0.10407  0.62198  0.34785  1.0000
  N   N169      1.0  0.09976  0.59201  0.35351  1.0000
  C   C434      1.0  0.11089  0.56921  0.35441  1.0000
  N   N170      1.0  0.12638  0.57734  0.34436  1.0000
  C   C435      1.0  0.13111  0.60610  0.33207  1.0000
  N   N171      1.0  0.11983  0.62784  0.33557  1.0000
  C   C436      1.0  0.90718  0.88939  0.34866  1.0000
  N   N172      1.0  0.91148  0.91938  0.35406  1.0000
  C   C437      1.0  0.90033  0.94215  0.35482  1.0000
  N   N173      1.0  0.88485  0.93401  0.34484  1.0000
  C   C438      1.0  0.88013  0.90523  0.33281  1.0000
  N   N174      1.0  0.89141  0.88351  0.33644  1.0000
  C   C439      1.0  0.90691  0.62189  0.32393  1.0000
  N   N175      1.0  0.91057  0.59182  0.33662  1.0000
  C   C440      1.0  0.89948  0.56999  0.35665  1.0000
  N   N176      1.0  0.88411  0.57933  0.35927  1.0000
  C   C441      1.0  0.87959  0.60811  0.34572  1.0000
  N   N177      1.0  0.89111  0.62868  0.33002  1.0000
  C   C442      1.0  0.10426  0.88952  0.32394  1.0000
  N   N178      1.0  0.10064  0.91960  0.33685  1.0000
  C   C443      1.0  0.11175  0.94140  0.35670  1.0000
  N   N179      1.0  0.12711  0.93203  0.35905  1.0000
  C   C444      1.0  0.13161  0.90324  0.34530  1.0000
  N   N180      1.0  0.12006  0.88271  0.32974  1.0000
  C   C445      1.0  0.60401  0.87191  0.34862  1.0000
  N   N181      1.0  0.59973  0.84193  0.35442  1.0000
  C   C446      1.0  0.61089  0.81919  0.35539  1.0000
  N   N182      1.0  0.62637  0.82735  0.34494  1.0000
  C   C447      1.0  0.63108  0.85613  0.33244  1.0000
  N   N183      1.0  0.61976  0.87779  0.33591  1.0000
  C   C448      1.0  0.40724  0.63943  0.34946  1.0000
  N   N184      1.0  0.41151  0.66943  0.35485  1.0000
  C   C449      1.0  0.40035  0.69216  0.35537  1.0000
  N   N185      1.0  0.38488  0.68397  0.34506  1.0000
  C   C450      1.0  0.38018  0.65517  0.33294  1.0000
  N   N186      1.0  0.39149  0.63352  0.33674  1.0000
  C   C451      1.0  0.40687  0.87191  0.32377  1.0000
  N   N187      1.0  0.41053  0.84182  0.33598  1.0000
  C   C452      1.0  0.39942  0.81996  0.35539  1.0000
  N   N188      1.0  0.38404  0.82927  0.35760  1.0000
  C   C453      1.0  0.37954  0.85807  0.34431  1.0000
  N   N189      1.0  0.39107  0.87872  0.32993  1.0000
  C   C454      1.0  0.60425  0.63948  0.32365  1.0000
  N   N190      1.0  0.60064  0.66957  0.33625  1.0000
  C   C455      1.0  0.61178  0.69139  0.35543  1.0000
  N   N191      1.0  0.62715  0.68202  0.35724  1.0000
  C   C456      1.0  0.63162  0.65322  0.34361  1.0000
  N   N192      1.0  0.62005  0.63263  0.32937  1.0000
  C   C457      1.0  0.06388  0.78283  0.31414  1.0000
  N   N193      1.0  0.04778  0.78008  0.30866  1.0000
  C   C458      1.0  0.03974  0.75347  0.31419  1.0000
  N   N194      1.0  0.04843  0.72777  0.32699  1.0000
  C   C459      1.0  0.06461  0.72813  0.33673  1.0000
  N   N195      1.0  0.07147  0.75596  0.32876  1.0000
  C   C460      1.0  0.94722  0.72864  0.31356  1.0000
  N   N196      1.0  0.96333  0.73130  0.30787  1.0000
  C   C461      1.0  0.97142  0.75784  0.31422  1.0000
  N   N197      1.0  0.96277  0.78354  0.32791  1.0000
  C   C462      1.0  0.94659  0.78325  0.33754  1.0000
  N   N198      1.0  0.93967  0.75550  0.32899  1.0000
  C   C463      1.0  0.56385  0.53279  0.31445  1.0000
  N   N199      1.0  0.54775  0.53003  0.30888  1.0000
  C   C464      1.0  0.53970  0.50342  0.31444  1.0000
  N   N200      1.0  0.54840  0.97773  0.32738  1.0000
  C   C465      1.0  0.56458  0.97810  0.33716  1.0000
  N   N201      1.0  0.57144  0.50592  0.32915  1.0000
  C   C466      1.0  0.44717  0.97864  0.31386  1.0000
  N   N202      1.0  0.46329  0.98125  0.30810  1.0000
  C   C467      1.0  0.47139  0.00777  0.31451  1.0000
  N   N203      1.0  0.46276  0.53349  0.32833  1.0000
  C   C468      1.0  0.44659  0.53324  0.33806  1.0000
  N   N204      1.0  0.43965  0.00551  0.32946  1.0000
  C   C469      1.0  0.26493  0.63307  0.41456  1.0000
  C   C470      1.0  0.24858  0.63899  0.41802  1.0000
  H   H183      1.0  0.24371  0.64510  0.47864  1.0000
  H   H184      1.0  0.27130  0.63399  0.47337  1.0000
  C   C471      1.0  0.74632  0.87795  0.41449  1.0000
  C   C472      1.0  0.76267  0.87202  0.41803  1.0000
  H   H185      1.0  0.76752  0.86584  0.47862  1.0000
  H   H186      1.0  0.73994  0.87697  0.47324  1.0000
  C   C473      1.0  0.77207  0.63769  0.36079  1.0000
  C   C474      1.0  0.76508  0.62957  0.44483  1.0000
  C   C475      1.0  0.74850  0.62234  0.44896  1.0000
  C   C476      1.0  0.73896  0.62408  0.36955  1.0000
  C   C477      1.0  0.74241  0.61444  0.53518  1.0000
  N   N205      1.0  0.75191  0.61420  0.60860  1.0000
  C   C478      1.0  0.76747  0.62114  0.60325  1.0000
  O   O43       1.0  0.72700  0.60811  0.55161  1.0000
  N   N206      1.0  0.77388  0.62876  0.52265  1.0000
  H   H187      1.0  0.77424  0.62072  0.66045  1.0000
  H   H188      1.0  0.78513  0.63360  0.52238  1.0000
  C   C479      1.0  0.23908  0.87350  0.36090  1.0000
  C   C480      1.0  0.24602  0.88185  0.44484  1.0000
  C   C481      1.0  0.26260  0.88908  0.44906  1.0000
  C   C482      1.0  0.27218  0.88714  0.36983  1.0000
  C   C483      1.0  0.26865  0.89716  0.53521  1.0000
  N   N207      1.0  0.25912  0.89758  0.60849  1.0000
  C   C484      1.0  0.24357  0.89066  0.60304  1.0000
  O   O44       1.0  0.28407  0.90345  0.55176  1.0000
  N   N208      1.0  0.23718  0.88286  0.52252  1.0000
  H   H189      1.0  0.23676  0.89122  0.66013  1.0000
  H   H190      1.0  0.22593  0.87804  0.52218  1.0000
  C   C485      1.0  0.30360  0.97524  0.36517  1.0000
  C   C486      1.0  0.30326  0.99149  0.44783  1.0000
  C   C487      1.0  0.30345  0.52370  0.44560  1.0000
  C   C488      1.0  0.30405  0.53863  0.36073  1.0000
  C   C489      1.0  0.30305  0.53874  0.53019  1.0000
  N   N209      1.0  0.30256  0.52288  0.60799  1.0000
  C   C490      1.0  0.30240  0.99248  0.60862  1.0000
  O   O45       1.0  0.30332  0.56904  0.53988  1.0000
  N   N210      1.0  0.30275  0.97710  0.52969  1.0000
  H   H191      1.0  0.30274  0.95523  0.53363  1.0000
  C   C491      1.0  0.70759  0.53592  0.36503  1.0000
  C   C492      1.0  0.70792  0.51967  0.44771  1.0000
  C   C493      1.0  0.70776  0.98747  0.44551  1.0000
  C   C494      1.0  0.70722  0.97252  0.36065  1.0000
  C   C495      1.0  0.70813  0.97243  0.53012  1.0000
  N   N211      1.0  0.70858  0.98830  0.60791  1.0000
  C   C496      1.0  0.70872  0.51870  0.60851  1.0000
  O   O46       1.0  0.70789  0.94213  0.53984  1.0000
  N   N212      1.0  0.70838  0.53407  0.52957  1.0000
  H   H192      1.0  0.70839  0.55595  0.53348  1.0000
  C   C497      1.0  0.80380  0.72523  0.36081  1.0000
  C   C498      1.0  0.80275  0.74050  0.44496  1.0000
  C   C499      1.0  0.80313  0.77270  0.44619  1.0000
  C   C500      1.0  0.80459  0.78860  0.36327  1.0000
  C   C501      1.0  0.80211  0.78677  0.53210  1.0000
  N   N213      1.0  0.80088  0.77003  0.60796  1.0000
  C   C502      1.0  0.80049  0.73965  0.60532  1.0000
  O   O47       1.0  0.80261  0.81692  0.54503  1.0000
  N   N214      1.0  0.80141  0.72517  0.52502  1.0000
  H   H193      1.0  0.79957  0.72784  0.66430  1.0000
  H   H194      1.0  0.80117  0.70324  0.52666  1.0000
  C   C503      1.0  0.20740  0.78587  0.36074  1.0000
  C   C504      1.0  0.20841  0.77060  0.44490  1.0000
  C   C505      1.0  0.20806  0.73840  0.44609  1.0000
  C   C506      1.0  0.20666  0.72250  0.36312  1.0000
  C   C507      1.0  0.20904  0.72432  0.53200  1.0000
  N   N215      1.0  0.21021  0.74105  0.60790  1.0000
  C   C508      1.0  0.21057  0.77144  0.60531  1.0000
  O   O48       1.0  0.20857  0.69416  0.54489  1.0000
  N   N216      1.0  0.20969  0.78592  0.52500  1.0000
  H   H195      1.0  0.21144  0.78324  0.66432  1.0000
  H   H196      1.0  0.20991  0.80785  0.52668  1.0000
  C   C509      1.0  0.33764  0.64553  0.39704  1.0000
  C   C510      1.0  0.35371  0.65401  0.39850  1.0000
  H   H197      1.0  0.35817  0.66328  0.45643  1.0000
  H   H198      1.0  0.33106  0.64842  0.45450  1.0000
  C   C511      1.0  0.67360  0.86568  0.39684  1.0000
  C   C512      1.0  0.65753  0.85725  0.39819  1.0000
  H   H199      1.0  0.65305  0.84800  0.45611  1.0000
  H   H200      1.0  0.68017  0.86279  0.45435  1.0000
  C   C513      1.0  0.64774  0.64499  0.35352  1.0000
  C   C514      1.0  0.65468  0.63843  0.43890  1.0000
  C   C515      1.0  0.67112  0.63020  0.44403  1.0000
  C   C516      1.0  0.68053  0.62912  0.36403  1.0000
  C   C517      1.0  0.67710  0.62335  0.53129  1.0000
  N   N217      1.0  0.66762  0.62482  0.60465  1.0000
  C   C518      1.0  0.65218  0.63253  0.59826  1.0000
  O   O49       1.0  0.69238  0.61600  0.54836  1.0000
  N   N218      1.0  0.64584  0.63916  0.51665  1.0000
  H   H201      1.0  0.64539  0.63327  0.65541  1.0000
  H   H202      1.0  0.63462  0.64438  0.51557  1.0000
  C   C519      1.0  0.36340  0.86622  0.35415  1.0000
  C   C520      1.0  0.35642  0.87260  0.43953  1.0000
  C   C521      1.0  0.33997  0.88079  0.44453  1.0000
  C   C522      1.0  0.33060  0.88199  0.36439  1.0000
  C   C523      1.0  0.33394  0.88750  0.53179  1.0000
  N   N219      1.0  0.34340  0.88594  0.60526  1.0000
  C   C524      1.0  0.35885  0.87826  0.59900  1.0000
  O   O50       1.0  0.31866  0.89481  0.54871  1.0000
  N   N220      1.0  0.36522  0.87177  0.51739  1.0000
  H   H203      1.0  0.36560  0.87745  0.65624  1.0000
  H   H204      1.0  0.37644  0.86660  0.51640  1.0000
  C   C525      1.0  0.83818  0.89340  0.40428  1.0000
  C   C526      1.0  0.85427  0.90165  0.40437  1.0000
  H   H205      1.0  0.85921  0.90895  0.46356  1.0000
  H   H206      1.0  0.83205  0.89445  0.46387  1.0000
  C   C527      1.0  0.17304  0.61792  0.40414  1.0000
  C   C528      1.0  0.15693  0.60976  0.40406  1.0000
  H   H207      1.0  0.15195  0.60259  0.46330  1.0000
  H   H208      1.0  0.17913  0.61699  0.46385  1.0000
  C   C529      1.0  0.14778  0.89505  0.35321  1.0000
  C   C530      1.0  0.15551  0.89129  0.43796  1.0000
  C   C531      1.0  0.17197  0.88302  0.44073  1.0000
  C   C532      1.0  0.18062  0.87917  0.35876  1.0000
  C   C533      1.0  0.17869  0.87868  0.52769  1.0000
  N   N221      1.0  0.16986  0.88249  0.60289  1.0000
  C   C534      1.0  0.15440  0.89028  0.59879  1.0000
  O   O51       1.0  0.19401  0.87108  0.54241  1.0000
  N   N222      1.0  0.14736  0.89442  0.51758  1.0000
  H   H209      1.0  0.14811  0.89270  0.65731  1.0000
  H   H210      1.0  0.13612  0.89939  0.51821  1.0000
  C   C535      1.0  0.86340  0.61624  0.35358  1.0000
  C   C536      1.0  0.85563  0.61981  0.43827  1.0000
  C   C537      1.0  0.83916  0.62797  0.44093  1.0000
  C   C538      1.0  0.83051  0.63186  0.35898  1.0000
  C   C539      1.0  0.83240  0.63216  0.52786  1.0000
  N   N223      1.0  0.84121  0.62830  0.60313  1.0000
  C   C540      1.0  0.85668  0.62063  0.59912  1.0000
  O   O52       1.0  0.81706  0.63962  0.54246  1.0000
  N   N224      1.0  0.86376  0.61663  0.51795  1.0000
  H   H211      1.0  0.86296  0.61815  0.65769  1.0000
  H   H212      1.0  0.87501  0.61175  0.51865  1.0000
  C   C541      1.0  0.07404  0.70167  0.35315  1.0000
  C   C542      1.0  0.08899  0.70168  0.39981  1.0000
  C   C543      1.0  0.09850  0.67465  0.40526  1.0000
  C   C544      1.0  0.09374  0.64732  0.36085  1.0000
  C   C545      1.0  0.11162  0.67570  0.46604  1.0000
  N   N225      1.0  0.11553  0.70118  0.51022  1.0000
  C   C546      1.0  0.10719  0.72671  0.49962  1.0000
  O   O53       1.0  0.11927  0.65121  0.49862  1.0000
  N   N226      1.0  0.09385  0.72636  0.44894  1.0000
  H   H213      1.0  0.11016  0.74521  0.53723  1.0000
  H   H214      1.0  0.08723  0.74401  0.45572  1.0000
  C   C547      1.0  0.93721  0.80974  0.35419  1.0000
  C   C548      1.0  0.92226  0.80974  0.40083  1.0000
  C   C549      1.0  0.91275  0.83676  0.40622  1.0000
  C   C550      1.0  0.91751  0.86407  0.36175  1.0000
  C   C551      1.0  0.89961  0.83572  0.46689  1.0000
  N   N227      1.0  0.89575  0.81026  0.51134  1.0000
  C   C552      1.0  0.90408  0.78472  0.50076  1.0000
  O   O54       1.0  0.89202  0.86022  0.49977  1.0000
  N   N228      1.0  0.91742  0.78507  0.45005  1.0000
  H   H215      1.0  0.90115  0.76630  0.53881  1.0000
  H   H216      1.0  0.92406  0.76744  0.45688  1.0000
  C   C553      1.0  0.91266  0.67566  0.33617  1.0000
  C   C554      1.0  0.92236  0.70132  0.33428  1.0000
  H   H217      1.0  0.91731  0.72076  0.35782  1.0000
  H   H218      1.0  0.90155  0.67887  0.36242  1.0000
  C   C555      1.0  0.09852  0.83571  0.33502  1.0000
  C   C556      1.0  0.08879  0.81010  0.33346  1.0000
  H   H219      1.0  0.09392  0.79055  0.35568  1.0000
  H   H220      1.0  0.10972  0.83237  0.35992  1.0000
  C   C557      1.0  0.57400  0.95163  0.35365  1.0000
  C   C558      1.0  0.58897  0.95166  0.40012  1.0000
  C   C559      1.0  0.59848  0.92463  0.40559  1.0000
  C   C560      1.0  0.59369  0.89727  0.36147  1.0000
  C   C561      1.0  0.61161  0.92569  0.46634  1.0000
  N   N229      1.0  0.61553  0.95122  0.51026  1.0000
  C   C562      1.0  0.60722  0.97677  0.49948  1.0000
  O   O55       1.0  0.61928  0.90123  0.49890  1.0000
  N   N230      1.0  0.59385  0.97638  0.44900  1.0000
  H   H221      1.0  0.61018  0.99523  0.53727  1.0000
  H   H222      1.0  0.58721  0.99398  0.45608  1.0000
  C   C563      1.0  0.43723  0.55975  0.35483  1.0000
  C   C564      1.0  0.42228  0.55976  0.40147  1.0000
  C   C565      1.0  0.41279  0.58679  0.40692  1.0000
  C   C566      1.0  0.41756  0.61410  0.36249  1.0000
  C   C567      1.0  0.39965  0.58575  0.46764  1.0000
  N   N231      1.0  0.39576  0.56027  0.51189  1.0000
  C   C568      1.0  0.40408  0.53473  0.50127  1.0000
  O   O56       1.0  0.39200  0.61025  0.50006  1.0000
  N   N232      1.0  0.41742  0.53507  0.45056  1.0000
  H   H223      1.0  0.40114  0.51630  0.53924  1.0000
  H   H224      1.0  0.42407  0.51747  0.45756  1.0000
  C   C569      1.0  0.41267  0.92561  0.33759  1.0000
  C   C570      1.0  0.42236  0.95128  0.33557  1.0000
  H   H225      1.0  0.41736  0.97065  0.35996  1.0000
  H   H226      1.0  0.40160  0.92872  0.36454  1.0000
  C   C571      1.0  0.59847  0.58570  0.33559  1.0000
  C   C572      1.0  0.58874  0.56008  0.33400  1.0000
  H   H227      1.0  0.59385  0.54058  0.35661  1.0000
  H   H228      1.0  0.60965  0.58239  0.36075  1.0000
  C   C573      1.0  0.10906  0.97273  0.37401  1.0000
  C   C574      1.0  0.11881  0.98963  0.43511  1.0000
  C   C575      1.0  0.11840  0.52198  0.43539  1.0000
  C   C576      1.0  0.10829  0.53816  0.37470  1.0000
  C   C577      1.0  0.12741  0.53658  0.50410  1.0000
  N   N233      1.0  0.13618  0.52067  0.56351  1.0000
  C   C578      1.0  0.13678  0.99042  0.56071  1.0000
  O   O57       1.0  0.12618  0.56617  0.52488  1.0000
  N   N234      1.0  0.12781  0.97539  0.49985  1.0000
  H   H229      1.0  0.14308  0.97911  0.60901  1.0000
  H   H230      1.0  0.12721  0.95377  0.50887  1.0000
  C   C579      1.0  0.90218  0.53866  0.37398  1.0000
  C   C580      1.0  0.89245  0.52179  0.43524  1.0000
  C   C581      1.0  0.89283  0.98943  0.43557  1.0000
  C   C582      1.0  0.90293  0.97323  0.37487  1.0000
  C   C583      1.0  0.88382  0.97484  0.50431  1.0000
  N   N235      1.0  0.87511  0.99079  0.56390  1.0000
  C   C584      1.0  0.87452  0.52105  0.56106  1.0000
  O   O58       1.0  0.88508  0.94529  0.52539  1.0000
  N   N236      1.0  0.88348  0.53605  0.50013  1.0000
  H   H231      1.0  0.86828  0.53236  0.60966  1.0000
  H   H232      1.0  0.88411  0.55765  0.50920  1.0000
  C   C585      1.0  0.60911  0.72268  0.37328  1.0000
  C   C586      1.0  0.61892  0.73945  0.43439  1.0000
  C   C587      1.0  0.61851  0.77180  0.43521  1.0000
  C   C588      1.0  0.60833  0.78807  0.37510  1.0000
  C   C589      1.0  0.62757  0.78629  0.50386  1.0000
  N   N237      1.0  0.63636  0.77027  0.56292  1.0000
  C   C590      1.0  0.63699  0.74002  0.55953  1.0000
  O   O59       1.0  0.62631  0.81581  0.52544  1.0000
  N   N238      1.0  0.62801  0.72508  0.49854  1.0000
  H   H233      1.0  0.64329  0.72865  0.60771  1.0000
  H   H234      1.0  0.62743  0.70344  0.50734  1.0000
  C   C591      1.0  0.40211  0.78868  0.37315  1.0000
  C   C592      1.0  0.39236  0.77190  0.43455  1.0000
  C   C593      1.0  0.39276  0.73955  0.43531  1.0000
  C   C594      1.0  0.40291  0.72327  0.37506  1.0000
  C   C595      1.0  0.38374  0.72504  0.50415  1.0000
  N   N239      1.0  0.37501  0.74107  0.56343  1.0000
  C   C596      1.0  0.37439  0.77132  0.56015  1.0000
  O   O60       1.0  0.38500  0.69552  0.52558  1.0000
  N   N240      1.0  0.38334  0.78626  0.49900  1.0000
  H   H235      1.0  0.36813  0.78269  0.60850  1.0000
  H   H236      1.0  0.38394  0.80790  0.50777  1.0000
  C   C597      1.0  0.01400  0.75591  0.38911  1.0000
  C   C598      1.0  0.99729  0.75792  0.38943  1.0000
  H   H237      1.0  0.99158  0.75927  0.45026  1.0000
  H   H238      1.0  0.01980  0.75635  0.44979  1.0000
  C   C599      1.0  0.51396  0.50548  0.38941  1.0000
  C   C600      1.0  0.49726  0.50748  0.38976  1.0000
  H   H239      1.0  0.49154  0.50859  0.45063  1.0000
  H   H240      1.0  0.51976  0.50569  0.45010  1.0000
