data_image0
_chemical_formula_structural       C4HC6HOHOHCNCHNHCNCHNHCNCHNHC4HC6HOHOHC4HC6HOHOHC4HC6HOHOHC4HC6HOHOHCNCHNHCNCHNHC4HC6HOHOHC4HC6HOHOHCNCHNHCNCHNHC4HC6HOHOHC4HC6HOHOHCNCHNHCNCHNHC4HC6HOHOHC4HC6HOHOHCNCHNHCNCHNHCNCHNHC4HC6HOHOHCNCNCNCNCNCNCNCNCNCNCNCNCNCNCNCNCNCNCNCNCNCNCNCNCNCNCNCNCNCNCNCNCNCNCNCNCNCNCNCNCNCNCNCNCNCNCNCNCNCHNHC4HC6HOHOHC4HC6HOHOHC4HC6HOHOHCNCHNHCNCHNHCNCHNHCNCHNHC4HC6HOHOHC4HC6HOHOHCNCHNHCNCHNHC4HC6HOHOHC4HC6HOHOHCNCHNHCNCHNHC4HC6HOHOHC4HC6HOHOHCNCHNHCNCHNHC4HC6HOHOHC4HC6HOHOHC4HC6HOHOHCNCHNH
_chemical_formula_sum              "C336 H144 O48 N96"
_cell_length_a       81.2348
_cell_length_b       41.8828
_cell_length_c       14.9601
_cell_angle_alpha    90
_cell_angle_beta     90
_cell_angle_gamma    90

_space_group_name_H-M_alt    "P 1"
_space_group_IT_number       1

loop_
  _space_group_symop_operation_xyz
  'x, y, z'

loop_
  _atom_site_type_symbol
  _atom_site_label
  _atom_site_symmetry_multiplicity
  _atom_site_fract_x
  _atom_site_fract_y
  _atom_site_fract_z
  _atom_site_occupancy
  C   C1        1.0  0.52063  0.57655  0.32570  1.0000
  C   C2        1.0  0.50585  0.51545  0.31452  1.0000
  C   C3        1.0  0.52300  0.51860  0.29770  1.0000
  C   C4        1.0  0.53017  0.54935  0.30416  1.0000
  H   H1        1.0  0.54248  0.55203  0.29187  1.0000
  C   C5        1.0  0.49815  0.48524  0.31051  1.0000
  C   C6        1.0  0.48252  0.42475  0.30845  1.0000
  C   C7        1.0  0.49954  0.42795  0.28860  1.0000
  C   C8        1.0  0.50760  0.45781  0.28936  1.0000
  C   C9        1.0  0.52464  0.46095  0.27089  1.0000
  C   C10       1.0  0.53229  0.49118  0.27509  1.0000
  H   H2        1.0  0.50633  0.40807  0.27385  1.0000
  O   O1        1.0  0.53410  0.43496  0.25190  1.0000
  H   H3        1.0  0.53361  0.43220  0.18666  1.0000
  O   O2        1.0  0.54879  0.49315  0.25981  1.0000
  H   H4        1.0  0.55007  0.49698  0.19533  1.0000
  C   C11       1.0  0.99904  0.07142  0.33092  1.0000
  N   N1        1.0  0.00568  0.04183  0.33654  1.0000
  C   C12       1.0  0.02882  0.95322  0.34507  1.0000
  H   H5        1.0  0.00675  0.08977  0.31446  1.0000
  N   N2        1.0  0.02087  0.98177  0.34408  1.0000
  H   H6        1.0  0.04107  0.95281  0.32956  1.0000
  C   C13       1.0  0.36336  0.28715  0.32454  1.0000
  N   N3        1.0  0.37922  0.29710  0.32418  1.0000
  C   C14       1.0  0.42858  0.32056  0.31824  1.0000
  H   H7        1.0  0.36119  0.26331  0.31597  1.0000
  N   N4        1.0  0.41228  0.31408  0.32088  1.0000
  H   H8        1.0  0.43637  0.30172  0.30852  1.0000
  C   C15       1.0  0.63914  0.71507  0.32461  1.0000
  N   N5        1.0  0.62326  0.70519  0.32567  1.0000
  C   C16       1.0  0.57379  0.68184  0.32578  1.0000
  H   H9        1.0  0.64131  0.73893  0.31659  1.0000
  N   N6        1.0  0.59011  0.68831  0.32613  1.0000
  H   H10       1.0  0.56593  0.70068  0.31783  1.0000
  C   C17       1.0  0.15238  0.80919  0.33702  1.0000
  C   C18       1.0  0.11889  0.82810  0.33768  1.0000
  C   C19       1.0  0.13123  0.85172  0.32603  1.0000
  C   C20       1.0  0.14791  0.84173  0.32640  1.0000
  H   H11       1.0  0.15696  0.85846  0.31809  1.0000
  C   C21       1.0  0.10209  0.83676  0.33925  1.0000
  C   C22       1.0  0.06814  0.85223  0.34462  1.0000
  C   C23       1.0  0.08016  0.87638  0.33256  1.0000
  C   C24       1.0  0.09723  0.86913  0.32915  1.0000
  C   C25       1.0  0.10956  0.89261  0.31601  1.0000
  C   C26       1.0  0.12640  0.88399  0.31449  1.0000
  H   H12       1.0  0.07642  0.89956  0.32532  1.0000
  O   O3        1.0  0.10546  0.92397  0.30692  1.0000
  H   H13       1.0  0.10392  0.92761  0.24251  1.0000
  O   O4        1.0  0.13788  0.90740  0.30403  1.0000
  H   H14       1.0  0.13988  0.90909  0.23937  1.0000
  C   C27       1.0  0.85045  0.19295  0.33856  1.0000
  C   C28       1.0  0.88396  0.17419  0.33637  1.0000
  C   C29       1.0  0.87160  0.15049  0.32668  1.0000
  C   C30       1.0  0.85491  0.16040  0.32845  1.0000
  H   H15       1.0  0.84586  0.14361  0.32140  1.0000
  C   C31       1.0  0.90078  0.16560  0.33610  1.0000
  C   C32       1.0  0.93475  0.15016  0.33674  1.0000
  C   C33       1.0  0.92267  0.12598  0.32710  1.0000
  C   C34       1.0  0.90560  0.13320  0.32607  1.0000
  C   C35       1.0  0.89325  0.10963  0.31509  1.0000
  C   C36       1.0  0.87639  0.11820  0.31541  1.0000
  H   H16       1.0  0.92637  0.10278  0.31961  1.0000
  O   O5        1.0  0.89733  0.07825  0.30621  1.0000
  H   H17       1.0  0.89859  0.07442  0.24171  1.0000
  O   O6        1.0  0.86490  0.09472  0.30686  1.0000
  H   H18       1.0  0.86265  0.09280  0.24249  1.0000
  C   C37       1.0  0.54022  0.17497  0.33848  1.0000
  C   C38       1.0  0.52170  0.23166  0.33704  1.0000
  C   C39       1.0  0.53750  0.23159  0.29622  1.0000
  C   C40       1.0  0.54672  0.20283  0.29831  1.0000
  H   H19       1.0  0.55771  0.20149  0.26505  1.0000
  C   C41       1.0  0.51149  0.25875  0.33262  1.0000
  C   C42       1.0  0.49011  0.31146  0.32314  1.0000
  C   C43       1.0  0.50617  0.31324  0.28640  1.0000
  C   C44       1.0  0.51703  0.28683  0.28908  1.0000
  C   C45       1.0  0.53287  0.28713  0.24942  1.0000
  C   C46       1.0  0.54299  0.25962  0.25238  1.0000
  H   H20       1.0  0.50985  0.33375  0.25504  1.0000
  O   O7        1.0  0.53866  0.31380  0.20783  1.0000
  H   H21       1.0  0.53518  0.31215  0.14503  1.0000
  O   O8        1.0  0.55812  0.26072  0.21340  1.0000
  H   H22       1.0  0.55652  0.25426  0.15079  1.0000
  C   C47       1.0  0.46329  0.82833  0.35035  1.0000
  C   C48       1.0  0.48129  0.77100  0.35441  1.0000
  C   C49       1.0  0.46512  0.77070  0.31831  1.0000
  C   C50       1.0  0.45618  0.79979  0.31765  1.0000
  H   H23       1.0  0.44485  0.80066  0.28779  1.0000
  C   C51       1.0  0.49121  0.74348  0.35220  1.0000
  C   C52       1.0  0.51218  0.69007  0.34468  1.0000
  C   C53       1.0  0.49573  0.68796  0.31355  1.0000
  C   C54       1.0  0.48505  0.71466  0.31538  1.0000
  C   C55       1.0  0.46882  0.71401  0.28069  1.0000
  C   C56       1.0  0.45896  0.74188  0.28166  1.0000
  H   H24       1.0  0.49164  0.66700  0.28629  1.0000
  O   O9        1.0  0.46241  0.68665  0.24584  1.0000
  H   H25       1.0  0.46516  0.68683  0.18182  1.0000
  O   O10       1.0  0.44343  0.74042  0.24764  1.0000
  H   H26       1.0  0.44441  0.74538  0.18360  1.0000
  C   C57       1.0  0.97796  0.67750  0.29081  1.0000
  N   N7        1.0  0.98657  0.70499  0.29376  1.0000
  C   C58       1.0  0.01724  0.78248  0.30785  1.0000
  H   H27       1.0  0.98334  0.65835  0.26009  1.0000
  N   N8        1.0  0.00657  0.75775  0.30406  1.0000
  H   H28       1.0  0.02855  0.77973  0.27889  1.0000
  C   C59       1.0  0.02351  0.32615  0.28299  1.0000
  N   N9        1.0  0.01517  0.29833  0.28321  1.0000
  C   C60       1.0  0.98528  0.21966  0.29207  1.0000
  H   H29       1.0  0.01767  0.34570  0.25717  1.0000
  N   N10       1.0  0.99574  0.24473  0.28925  1.0000
  H   H30       1.0  0.97366  0.22278  0.26745  1.0000
  C   C61       1.0  0.30217  0.05434  0.34673  1.0000
  C   C62       1.0  0.30428  0.12197  0.34582  1.0000
  C   C63       1.0  0.28904  0.10723  0.32444  1.0000
  C   C64       1.0  0.28821  0.07329  0.32601  1.0000
  H   H31       1.0  0.27744  0.06215  0.30909  1.0000
  C   C65       1.0  0.30602  0.15552  0.34412  1.0000
  C   C66       1.0  0.31066  0.22265  0.33977  1.0000
  C   C67       1.0  0.29507  0.20897  0.32041  1.0000
  C   C68       1.0  0.29251  0.17539  0.32138  1.0000
  C   C69       1.0  0.27726  0.16077  0.29988  1.0000
  C   C70       1.0  0.27555  0.12707  0.30126  1.0000
  H   H32       1.0  0.28552  0.22368  0.30343  1.0000
  O   O11       1.0  0.26390  0.17891  0.27882  1.0000
  H   H33       1.0  0.26416  0.18171  0.21356  1.0000
  O   O12       1.0  0.26062  0.11409  0.28146  1.0000
  H   H34       1.0  0.26060  0.11045  0.21652  1.0000
  C   C71       1.0  0.70073  0.94739  0.34910  1.0000
  C   C72       1.0  0.69853  0.87980  0.34633  1.0000
  C   C73       1.0  0.71379  0.89453  0.32518  1.0000
  C   C74       1.0  0.71466  0.92846  0.32769  1.0000
  H   H35       1.0  0.72543  0.93962  0.31087  1.0000
  C   C75       1.0  0.69673  0.84628  0.34369  1.0000
  C   C76       1.0  0.69198  0.77923  0.33767  1.0000
  C   C77       1.0  0.70759  0.79286  0.31845  1.0000
  C   C78       1.0  0.71021  0.82641  0.32026  1.0000
  C   C79       1.0  0.72547  0.84101  0.29898  1.0000
  C   C80       1.0  0.72723  0.87469  0.30128  1.0000
  H   H36       1.0  0.71711  0.77814  0.30101  1.0000
  O   O13       1.0  0.73879  0.82287  0.27728  1.0000
  H   H37       1.0  0.73850  0.82030  0.21195  1.0000
  O   O14       1.0  0.74217  0.88766  0.28168  1.0000
  H   H38       1.0  0.74218  0.89152  0.21682  1.0000
  C   C81       1.0  0.18588  0.57116  0.30347  1.0000
  N   N11       1.0  0.18531  0.60340  0.30480  1.0000
  C   C82       1.0  0.17922  0.70103  0.31023  1.0000
  H   H39       1.0  0.17528  0.55950  0.28658  1.0000
  N   N12       1.0  0.18190  0.66914  0.30869  1.0000
  H   H40       1.0  0.16766  0.70882  0.29462  1.0000
  C   C83       1.0  0.81656  0.43057  0.30122  1.0000
  N   N13       1.0  0.81717  0.39835  0.30344  1.0000
  C   C84       1.0  0.82342  0.30086  0.31148  1.0000
  H   H41       1.0  0.82714  0.44221  0.28381  1.0000
  N   N14       1.0  0.82068  0.33271  0.30916  1.0000
  H   H42       1.0  0.83500  0.29310  0.29588  1.0000
  C   C85       1.0  0.22682  0.44702  0.33059  1.0000
  C   C86       1.0  0.25341  0.40303  0.32728  1.0000
  C   C87       1.0  0.25664  0.43606  0.31420  1.0000
  C   C88       1.0  0.24317  0.45766  0.31643  1.0000
  H   H43       1.0  0.24527  0.48150  0.30674  1.0000
  C   C89       1.0  0.26634  0.38044  0.32646  1.0000
  C   C90       1.0  0.29191  0.33425  0.32777  1.0000
  C   C91       1.0  0.29537  0.36713  0.31409  1.0000
  C   C92       1.0  0.28281  0.39059  0.31279  1.0000
  C   C93       1.0  0.28605  0.42346  0.29857  1.0000
  C   C94       1.0  0.27307  0.44599  0.29918  1.0000
  H   H44       1.0  0.30729  0.37422  0.30448  1.0000
  O   O15       1.0  0.30173  0.43415  0.28642  1.0000
  H   H45       1.0  0.30378  0.43333  0.22167  1.0000
  O   O16       1.0  0.27676  0.47744  0.28753  1.0000
  H   H46       1.0  0.27608  0.48144  0.22285  1.0000
  C   C95       1.0  0.77564  0.55477  0.32538  1.0000
  C   C96       1.0  0.74905  0.59878  0.32219  1.0000
  C   C97       1.0  0.74579  0.56573  0.30995  1.0000
  C   C98       1.0  0.75926  0.54411  0.31212  1.0000
  H   H47       1.0  0.75713  0.52025  0.30314  1.0000
  C   C99       1.0  0.73613  0.62138  0.32160  1.0000
  C   C100      1.0  0.71057  0.66760  0.32358  1.0000
  C   C101      1.0  0.70708  0.63470  0.31054  1.0000
  C   C102      1.0  0.71963  0.61122  0.30895  1.0000
  C   C103      1.0  0.71636  0.57832  0.29549  1.0000
  C   C104      1.0  0.72933  0.55577  0.29592  1.0000
  H   H48       1.0  0.69514  0.62761  0.30174  1.0000
  O   O17       1.0  0.70066  0.56763  0.28433  1.0000
  H   H49       1.0  0.69849  0.56831  0.21968  1.0000
  O   O18       1.0  0.72562  0.52430  0.28508  1.0000
  H   H50       1.0  0.72618  0.52014  0.22045  1.0000
  C   C105      1.0  0.27796  0.91367  0.32896  1.0000
  N   N15       1.0  0.26499  0.89341  0.33085  1.0000
  C   C106      1.0  0.22750  0.82605  0.33221  1.0000
  H   H51       1.0  0.28929  0.90388  0.31791  1.0000
  N   N16       1.0  0.23939  0.84883  0.33282  1.0000
  H   H52       1.0  0.23101  0.80294  0.32149  1.0000
  C   C107      1.0  0.72490  0.08814  0.33517  1.0000
  N   N17       1.0  0.73786  0.10842  0.33692  1.0000
  C   C108      1.0  0.77532  0.17580  0.33736  1.0000
  H   H53       1.0  0.71355  0.09796  0.32480  1.0000
  N   N18       1.0  0.76345  0.15300  0.33831  1.0000
  H   H54       1.0  0.77178  0.19892  0.32718  1.0000
  C   C109      1.0  0.08629  0.40225  0.36043  1.0000
  C   C110      1.0  0.11943  0.42238  0.35609  1.0000
  C   C111      1.0  0.11560  0.39072  0.32942  1.0000
  C   C112      1.0  0.09887  0.38103  0.33245  1.0000
  H   H55       1.0  0.09574  0.35862  0.31122  1.0000
  C   C113      1.0  0.13568  0.43391  0.35202  1.0000
  C   C114      1.0  0.16777  0.45925  0.34272  1.0000
  C   C115      1.0  0.16472  0.42696  0.31939  1.0000
  C   C116      1.0  0.14865  0.41385  0.32242  1.0000
  C   C117      1.0  0.14494  0.38212  0.29634  1.0000
  C   C118      1.0  0.12854  0.37069  0.29943  1.0000
  H   H56       1.0  0.17427  0.41307  0.29746  1.0000
  O   O19       1.0  0.15708  0.36197  0.26874  1.0000
  H   H57       1.0  0.15788  0.36461  0.20356  1.0000
  O   O20       1.0  0.12547  0.33997  0.27470  1.0000
  H   H58       1.0  0.12322  0.34052  0.21012  1.0000
  C   C119      1.0  0.91602  0.59962  0.36202  1.0000
  C   C120      1.0  0.88297  0.57922  0.35394  1.0000
  C   C121      1.0  0.88697  0.61031  0.32305  1.0000
  C   C122      1.0  0.90364  0.62018  0.32825  1.0000
  H   H59       1.0  0.90690  0.64217  0.30429  1.0000
  C   C123      1.0  0.86673  0.56765  0.34877  1.0000
  C   C124      1.0  0.83466  0.54238  0.33845  1.0000
  C   C125      1.0  0.83790  0.57407  0.31020  1.0000
  C   C126      1.0  0.85398  0.58710  0.31361  1.0000
  C   C127      1.0  0.85790  0.61817  0.28269  1.0000
  C   C128      1.0  0.87428  0.62965  0.28705  1.0000
  H   H60       1.0  0.82851  0.58751  0.28441  1.0000
  O   O21       1.0  0.84598  0.63766  0.24914  1.0000
  H   H61       1.0  0.84558  0.63345  0.18449  1.0000
  O   O22       1.0  0.87754  0.65975  0.25756  1.0000
  H   H62       1.0  0.88027  0.65773  0.19376  1.0000
  C   C129      1.0  0.41137  0.93318  0.28404  1.0000
  N   N19       1.0  0.39543  0.94203  0.28758  1.0000
  C   C130      1.0  0.34854  0.97765  0.30093  1.0000
  H   H63       1.0  0.41961  0.94990  0.26224  1.0000
  N   N20       1.0  0.36374  0.96464  0.29702  1.0000
  H   H64       1.0  0.34727  0.00098  0.28213  1.0000
  C   C131      1.0  0.59180  0.06934  0.27865  1.0000
  N   N21       1.0  0.60772  0.06034  0.28397  1.0000
  C   C132      1.0  0.65461  0.02458  0.29970  1.0000
  H   H65       1.0  0.58368  0.05328  0.25224  1.0000
  N   N22       1.0  0.63941  0.03758  0.29538  1.0000
  H   H66       1.0  0.65608  0.00176  0.27681  1.0000
  C   C133      1.0  0.01324  0.43505  0.35554  1.0000
  N   N23       1.0  0.00271  0.45996  0.36098  1.0000
  C   C134      1.0  0.96815  0.53208  0.36370  1.0000
  H   H67       1.0  0.00843  0.41311  0.34095  1.0000
  N   N24       1.0  0.97984  0.50908  0.36549  1.0000
  H   H68       1.0  0.95631  0.52549  0.34983  1.0000
  C   C135      1.0  0.47235  0.93969  0.30382  1.0000
  C   C136      1.0  0.49506  0.99027  0.29253  1.0000
  C   C137      1.0  0.47811  0.99677  0.27828  1.0000
  C   C138      1.0  0.46693  0.97105  0.28422  1.0000
  H   H69       1.0  0.45465  0.97533  0.27481  1.0000
  C   C139      1.0  0.50667  0.01520  0.29047  1.0000
  C   C140      1.0  0.53018  0.06445  0.29519  1.0000
  C   C141      1.0  0.51342  0.07133  0.27749  1.0000
  C   C142      1.0  0.50143  0.04700  0.27460  1.0000
  C   C143      1.0  0.48458  0.05343  0.25813  1.0000
  C   C144      1.0  0.47296  0.02838  0.25984  1.0000
  H   H70       1.0  0.50983  0.09445  0.26712  1.0000
  O   O23       1.0  0.47914  0.08378  0.24399  1.0000
  H   H71       1.0  0.47983  0.08738  0.17914  1.0000
  O   O24       1.0  0.45677  0.03551  0.24716  1.0000
  H   H72       1.0  0.45473  0.03320  0.18269  1.0000
  C   C145      1.0  0.45181  0.35882  0.32399  1.0000
  N   N25       1.0  0.45834  0.38888  0.31838  1.0000
  C   C146      1.0  0.47494  0.39401  0.31282  1.0000
  N   N26       1.0  0.48484  0.36791  0.31401  1.0000
  C   C147      1.0  0.47912  0.33772  0.32029  1.0000
  N   N27       1.0  0.46259  0.33395  0.32535  1.0000
  C   C148      1.0  0.55063  0.64349  0.33547  1.0000
  N   N28       1.0  0.54424  0.61337  0.33076  1.0000
  C   C149      1.0  0.52766  0.60772  0.33061  1.0000
  N   N29       1.0  0.51753  0.63346  0.33492  1.0000
  C   C150      1.0  0.52316  0.66381  0.34009  1.0000
  N   N30       1.0  0.53971  0.66804  0.34035  1.0000
  C   C151      1.0  0.05085  0.85882  0.34801  1.0000
  N   N31       1.0  0.04433  0.88888  0.35360  1.0000
  C   C152      1.0  0.02773  0.89401  0.35916  1.0000
  N   N32       1.0  0.01782  0.86790  0.35800  1.0000
  C   C153      1.0  0.02355  0.83772  0.35172  1.0000
  N   N33       1.0  0.04008  0.83395  0.34665  1.0000
  C   C154      1.0  0.95203  0.14348  0.33652  1.0000
  N   N34       1.0  0.95842  0.11336  0.34124  1.0000
  C   C155      1.0  0.97500  0.10770  0.34143  1.0000
  N   N35       1.0  0.98513  0.13345  0.33716  1.0000
  C   C156      1.0  0.97950  0.16380  0.33198  1.0000
  N   N36       1.0  0.96294  0.16802  0.33166  1.0000
  C   C157      1.0  0.31374  0.25633  0.33654  1.0000
  N   N37       1.0  0.30154  0.27868  0.33304  1.0000
  C   C158      1.0  0.30469  0.31072  0.33037  1.0000
  N   N38       1.0  0.32078  0.31987  0.33135  1.0000
  C   C159      1.0  0.33351  0.29887  0.33450  1.0000
  N   N39       1.0  0.32950  0.26738  0.33703  1.0000
  C   C160      1.0  0.68884  0.74559  0.33384  1.0000
  N   N40       1.0  0.70101  0.72319  0.32966  1.0000
  C   C161      1.0  0.69781  0.69117  0.32668  1.0000
  N   N41       1.0  0.68171  0.68210  0.32812  1.0000
  C   C162      1.0  0.66901  0.70316  0.33194  1.0000
  N   N42       1.0  0.67306  0.73461  0.33476  1.0000
  C   C163      1.0  0.18892  0.75633  0.33543  1.0000
  N   N43       1.0  0.20113  0.77868  0.33894  1.0000
  C   C164      1.0  0.19798  0.81073  0.34159  1.0000
  N   N44       1.0  0.18189  0.81988  0.34061  1.0000
  C   C165      1.0  0.16915  0.79888  0.33746  1.0000
  N   N45       1.0  0.17316  0.76739  0.33494  1.0000
  C   C166      1.0  0.81382  0.24559  0.33799  1.0000
  N   N46       1.0  0.80165  0.22319  0.34221  1.0000
  C   C167      1.0  0.80485  0.19117  0.34521  1.0000
  N   N47       1.0  0.82095  0.18210  0.34375  1.0000
  C   C168      1.0  0.83365  0.20316  0.33989  1.0000
  N   N48       1.0  0.82960  0.23462  0.33705  1.0000
  C   C169      1.0  0.04674  0.35868  0.33470  1.0000
  N   N49       1.0  0.06326  0.36424  0.34170  1.0000
  C   C170      1.0  0.06923  0.39428  0.35676  1.0000
  N   N50       1.0  0.05809  0.41832  0.36490  1.0000
  C   C171      1.0  0.04162  0.41398  0.35960  1.0000
  N   N51       1.0  0.03640  0.38388  0.34441  1.0000
  C   C172      1.0  0.95523  0.64443  0.34502  1.0000
  N   N52       1.0  0.93876  0.63824  0.34886  1.0000
  C   C173      1.0  0.93304  0.60784  0.36129  1.0000
  N   N53       1.0  0.94432  0.58400  0.37008  1.0000
  C   C174      1.0  0.96075  0.58923  0.36845  1.0000
  N   N54       1.0  0.96573  0.61961  0.35561  1.0000
  C   C175      1.0  0.45595  0.85872  0.33712  1.0000
  N   N55       1.0  0.43943  0.86429  0.33030  1.0000
  C   C176      1.0  0.43346  0.89434  0.31525  1.0000
  N   N56       1.0  0.44460  0.91836  0.30696  1.0000
  C   C177      1.0  0.46106  0.91402  0.31212  1.0000
  N   N57       1.0  0.46628  0.88392  0.32731  1.0000
  C   C178      1.0  0.54745  0.14446  0.32690  1.0000
  N   N58       1.0  0.56392  0.13826  0.32319  1.0000
  C   C179      1.0  0.56964  0.10787  0.31065  1.0000
  N   N59       1.0  0.55836  0.08404  0.30168  1.0000
  C   C180      1.0  0.54193  0.08927  0.30323  1.0000
  N   N60       1.0  0.53695  0.11965  0.31616  1.0000
  C   C181      1.0  0.20044  0.52012  0.32884  1.0000
  N   N61       1.0  0.21410  0.50094  0.32830  1.0000
  C   C182      1.0  0.21298  0.46827  0.33150  1.0000
  N   N62       1.0  0.19760  0.45541  0.33555  1.0000
  C   C183      1.0  0.18369  0.47316  0.33732  1.0000
  N   N63       1.0  0.18562  0.50522  0.33397  1.0000
  C   C184      1.0  0.80197  0.48162  0.32559  1.0000
  N   N64       1.0  0.78833  0.50082  0.32438  1.0000
  C   C185      1.0  0.78947  0.53350  0.32664  1.0000
  N   N65       1.0  0.80485  0.54635  0.33045  1.0000
  C   C186      1.0  0.81873  0.52855  0.33295  1.0000
  N   N66       1.0  0.81681  0.49650  0.33057  1.0000
  C   C187      1.0  0.30222  0.02012  0.34315  1.0000
  N   N67       1.0  0.28857  0.00094  0.34370  1.0000
  C   C188      1.0  0.28969  0.96826  0.34051  1.0000
  N   N68       1.0  0.30507  0.95540  0.33645  1.0000
  C   C189      1.0  0.31898  0.97316  0.33466  1.0000
  N   N69       1.0  0.31705  0.00522  0.33802  1.0000
  C   C190      1.0  0.70069  0.98162  0.34640  1.0000
  N   N70       1.0  0.71434  0.00081  0.34765  1.0000
  C   C191      1.0  0.71320  0.03349  0.34544  1.0000
  N   N71       1.0  0.69782  0.04635  0.34165  1.0000
  C   C192      1.0  0.68393  0.02855  0.33912  1.0000
  N   N72       1.0  0.68586  0.99649  0.34145  1.0000
  C   C193      1.0  0.50362  0.57142  0.34114  1.0000
  N   N73       1.0  0.49698  0.54184  0.33551  1.0000
  C   C194      1.0  0.47384  0.45323  0.32695  1.0000
  H   H73       1.0  0.49591  0.58978  0.35762  1.0000
  N   N74       1.0  0.48179  0.48177  0.32795  1.0000
  H   H74       1.0  0.46160  0.45281  0.34248  1.0000
  C   C195      1.0  0.98203  0.07654  0.34634  1.0000
  C   C196      1.0  0.99681  0.01544  0.35749  1.0000
  C   C197      1.0  0.97966  0.01859  0.37429  1.0000
  C   C198      1.0  0.97249  0.04933  0.36783  1.0000
  H   H75       1.0  0.96018  0.05201  0.38012  1.0000
  C   C199      1.0  0.00451  0.98523  0.36150  1.0000
  C   C200      1.0  0.02014  0.92474  0.36355  1.0000
  C   C201      1.0  0.00312  0.92794  0.38336  1.0000
  C   C202      1.0  0.99505  0.95780  0.38262  1.0000
  C   C203      1.0  0.97802  0.96093  0.40108  1.0000
  C   C204      1.0  0.97037  0.99116  0.39686  1.0000
  H   H76       1.0  0.99633  0.90806  0.39811  1.0000
  O   O25       1.0  0.96856  0.93494  0.42000  1.0000
  H   H77       1.0  0.96904  0.93217  0.48522  1.0000
  O   O26       1.0  0.95386  0.99313  0.41210  1.0000
  H   H78       1.0  0.95258  0.99696  0.47659  1.0000
  C   C205      1.0  0.35029  0.30919  0.33494  1.0000
  C   C206      1.0  0.38378  0.32810  0.33428  1.0000
  C   C207      1.0  0.37144  0.35171  0.34595  1.0000
  C   C208      1.0  0.35476  0.34172  0.34559  1.0000
  H   H79       1.0  0.34571  0.35845  0.35392  1.0000
  C   C209      1.0  0.40057  0.33676  0.33271  1.0000
  C   C210      1.0  0.43453  0.35223  0.32735  1.0000
  C   C211      1.0  0.42250  0.37637  0.33945  1.0000
  C   C212      1.0  0.40544  0.36913  0.34284  1.0000
  C   C213      1.0  0.39311  0.39260  0.35601  1.0000
  C   C214      1.0  0.37626  0.38398  0.35752  1.0000
  H   H80       1.0  0.42625  0.39955  0.34670  1.0000
  O   O27       1.0  0.39721  0.42397  0.36512  1.0000
  H   H81       1.0  0.39875  0.42760  0.42954  1.0000
  O   O28       1.0  0.36479  0.40739  0.36802  1.0000
  H   H82       1.0  0.36278  0.40908  0.43268  1.0000
  C   C215      1.0  0.65221  0.69295  0.33326  1.0000
  C   C216      1.0  0.61870  0.67419  0.33547  1.0000
  C   C217      1.0  0.63106  0.65049  0.34521  1.0000
  C   C218      1.0  0.64775  0.66040  0.34341  1.0000
  H   H83       1.0  0.65680  0.64360  0.35053  1.0000
  C   C219      1.0  0.60188  0.66560  0.33576  1.0000
  C   C220      1.0  0.56791  0.65016  0.33520  1.0000
  C   C221      1.0  0.57999  0.62598  0.34486  1.0000
  C   C222      1.0  0.59706  0.63320  0.34586  1.0000
  C   C223      1.0  0.60941  0.60964  0.35690  1.0000
  C   C224      1.0  0.62626  0.61821  0.35654  1.0000
  H   H84       1.0  0.57629  0.60279  0.35242  1.0000
  O   O29       1.0  0.60533  0.57826  0.36585  1.0000
  H   H85       1.0  0.60407  0.57445  0.43036  1.0000
  O   O30       1.0  0.63776  0.59473  0.36516  1.0000
  H   H86       1.0  0.64000  0.59282  0.42954  1.0000
  C   C225      1.0  0.13931  0.78716  0.34743  1.0000
  N   N75       1.0  0.12344  0.79711  0.34777  1.0000
  C   C226      1.0  0.07408  0.82056  0.35368  1.0000
  H   H87       1.0  0.14148  0.76332  0.35593  1.0000
  N   N76       1.0  0.09038  0.81408  0.35105  1.0000
  H   H88       1.0  0.06630  0.80172  0.36341  1.0000
  C   C227      1.0  0.86352  0.21507  0.34715  1.0000
  N   N77       1.0  0.87940  0.20520  0.34611  1.0000
  C   C228      1.0  0.92887  0.18184  0.34608  1.0000
  H   H89       1.0  0.86135  0.23893  0.35514  1.0000
  N   N78       1.0  0.91255  0.18831  0.34569  1.0000
  H   H90       1.0  0.93673  0.20067  0.35398  1.0000
  C   C229      1.0  0.52472  0.17751  0.38122  1.0000
  N   N79       1.0  0.51610  0.20499  0.37820  1.0000
  C   C230      1.0  0.48542  0.28247  0.36407  1.0000
  H   H91       1.0  0.51931  0.15833  0.41165  1.0000
  N   N80       1.0  0.49609  0.25774  0.36787  1.0000
  H   H92       1.0  0.47411  0.27970  0.39292  1.0000
  C   C231      1.0  0.47918  0.82620  0.38878  1.0000
  N   N81       1.0  0.48752  0.79838  0.38864  1.0000
  C   C232      1.0  0.51739  0.71969  0.37986  1.0000
  H   H93       1.0  0.48503  0.84577  0.41447  1.0000
  N   N82       1.0  0.50694  0.74477  0.38268  1.0000
  H   H94       1.0  0.52903  0.72282  0.40438  1.0000
  C   C233      1.0  0.96247  0.67494  0.33365  1.0000
  C   C234      1.0  0.98097  0.73164  0.33505  1.0000
  C   C235      1.0  0.96519  0.73155  0.37600  1.0000
  C   C236      1.0  0.95598  0.70278  0.37396  1.0000
  H   H95       1.0  0.94499  0.70144  0.40716  1.0000
  C   C237      1.0  0.99118  0.75874  0.33943  1.0000
  C   C238      1.0  0.01256  0.81146  0.34888  1.0000
  C   C239      1.0  0.99651  0.81322  0.38573  1.0000
  C   C240      1.0  0.98565  0.78681  0.38309  1.0000
  C   C241      1.0  0.96982  0.78709  0.42289  1.0000
  C   C242      1.0  0.95971  0.75956  0.41994  1.0000
  H   H96       1.0  0.99284  0.83371  0.41720  1.0000
  O   O31       1.0  0.96404  0.81373  0.46460  1.0000
  H   H97       1.0  0.96754  0.81207  0.52736  1.0000
  O   O32       1.0  0.94458  0.76064  0.45907  1.0000
  H   H98       1.0  0.94621  0.75416  0.52165  1.0000
  C   C243      1.0  0.03939  0.32829  0.32156  1.0000
  C   C244      1.0  0.02138  0.27096  0.31765  1.0000
  C   C245      1.0  0.03754  0.27067  0.35391  1.0000
  C   C246      1.0  0.04648  0.29976  0.35452  1.0000
  H   H99       1.0  0.05781  0.30065  0.38437  1.0000
  C   C247      1.0  0.01146  0.24345  0.31988  1.0000
  C   C248      1.0  0.99049  0.19006  0.32742  1.0000
  C   C249      1.0  0.00692  0.18795  0.35873  1.0000
  C   C250      1.0  0.01760  0.21465  0.35687  1.0000
  C   C251      1.0  0.03383  0.21401  0.39170  1.0000
  C   C252      1.0  0.04369  0.24188  0.39071  1.0000
  H   H100      1.0  0.01101  0.16700  0.38605  1.0000
  O   O33       1.0  0.04022  0.18666  0.42671  1.0000
  H   H101      1.0  0.03745  0.18688  0.49071  1.0000
  O   O34       1.0  0.05921  0.24042  0.42487  1.0000
  H   H102      1.0  0.05821  0.24543  0.48887  1.0000
  C   C253      1.0  0.31679  0.07115  0.36853  1.0000
  N   N83       1.0  0.31736  0.10340  0.36719  1.0000
  C   C254      1.0  0.32344  0.20102  0.36176  1.0000
  H   H103      1.0  0.32739  0.05950  0.38539  1.0000
  N   N84       1.0  0.32077  0.16914  0.36329  1.0000
  H   H104      1.0  0.33501  0.20881  0.37735  1.0000
  C   C255      1.0  0.68610  0.93057  0.37069  1.0000
  N   N85       1.0  0.68549  0.89834  0.36844  1.0000
  C   C256      1.0  0.67924  0.80085  0.36033  1.0000
  H   H105      1.0  0.67552  0.94220  0.38808  1.0000
  N   N86       1.0  0.68197  0.83271  0.36268  1.0000
  H   H106      1.0  0.66766  0.79310  0.37591  1.0000
  C   C257      1.0  0.20050  0.55435  0.32529  1.0000
  C   C258      1.0  0.19838  0.62198  0.32619  1.0000
  C   C259      1.0  0.21363  0.60724  0.34758  1.0000
  C   C260      1.0  0.21446  0.57329  0.34604  1.0000
  H   H107      1.0  0.22523  0.56216  0.36292  1.0000
  C   C261      1.0  0.19664  0.65553  0.32788  1.0000
  C   C262      1.0  0.19201  0.72265  0.33222  1.0000
  C   C263      1.0  0.20760  0.70898  0.35156  1.0000
  C   C264      1.0  0.21016  0.67539  0.35062  1.0000
  C   C265      1.0  0.22541  0.66078  0.37214  1.0000
  C   C266      1.0  0.22711  0.62708  0.37077  1.0000
  H   H108      1.0  0.21715  0.72368  0.36859  1.0000
  O   O35       1.0  0.23876  0.67892  0.39321  1.0000
  H   H109      1.0  0.23850  0.68172  0.45847  1.0000
  O   O36       1.0  0.24204  0.61410  0.39059  1.0000
  H   H110      1.0  0.24206  0.61047  0.45554  1.0000
  C   C267      1.0  0.80194  0.44739  0.32289  1.0000
  C   C268      1.0  0.80413  0.37981  0.32557  1.0000
  C   C269      1.0  0.78887  0.39454  0.34678  1.0000
  C   C270      1.0  0.78800  0.42847  0.34430  1.0000
  H   H111      1.0  0.77723  0.43962  0.36111  1.0000
  C   C271      1.0  0.80593  0.34628  0.32818  1.0000
  C   C272      1.0  0.81068  0.27923  0.33416  1.0000
  C   C273      1.0  0.79508  0.29286  0.35343  1.0000
  C   C274      1.0  0.79245  0.32642  0.35163  1.0000
  C   C275      1.0  0.77719  0.34102  0.37294  1.0000
  C   C276      1.0  0.77543  0.37470  0.37067  1.0000
  H   H112      1.0  0.78555  0.27814  0.37086  1.0000
  O   O37       1.0  0.76387  0.32287  0.39466  1.0000
  H   H113      1.0  0.76417  0.32030  0.45998  1.0000
  O   O38       1.0  0.76049  0.38767  0.39031  1.0000
  H   H114      1.0  0.76049  0.39152  0.45516  1.0000
  C   C277      1.0  0.22471  0.41368  0.34305  1.0000
  N   N87       1.0  0.23768  0.39341  0.34115  1.0000
  C   C278      1.0  0.27516  0.32605  0.33980  1.0000
  H   H115      1.0  0.21338  0.40389  0.35411  1.0000
  N   N88       1.0  0.26328  0.34883  0.33918  1.0000
  H   H116      1.0  0.27166  0.30294  0.35049  1.0000
  C   C279      1.0  0.77776  0.58815  0.33690  1.0000
  N   N89       1.0  0.76480  0.60842  0.33513  1.0000
  C   C280      1.0  0.72735  0.67580  0.33458  1.0000
  H   H117      1.0  0.78912  0.59796  0.34728  1.0000
  N   N90       1.0  0.73922  0.65300  0.33367  1.0000
  H   H118      1.0  0.73088  0.69893  0.34478  1.0000
  C   C281      1.0  0.27586  0.94702  0.34143  1.0000
  C   C282      1.0  0.24926  0.90303  0.34472  1.0000
  C   C283      1.0  0.24604  0.93605  0.35781  1.0000
  C   C284      1.0  0.25951  0.95766  0.35559  1.0000
  H   H119      1.0  0.25740  0.98149  0.36526  1.0000
  C   C285      1.0  0.23633  0.88044  0.34553  1.0000
  C   C286      1.0  0.21076  0.83426  0.34420  1.0000
  C   C287      1.0  0.20730  0.86714  0.35788  1.0000
  C   C288      1.0  0.21986  0.89060  0.35920  1.0000
  C   C289      1.0  0.21662  0.92347  0.37340  1.0000
  C   C290      1.0  0.22960  0.94599  0.37281  1.0000
  H   H120      1.0  0.19538  0.87423  0.36748  1.0000
  O   O39       1.0  0.20094  0.93415  0.38556  1.0000
  H   H121      1.0  0.19889  0.93333  0.45031  1.0000
  O   O40       1.0  0.22592  0.97745  0.38447  1.0000
  H   H122      1.0  0.22659  0.98144  0.44915  1.0000
  C   C291      1.0  0.72703  0.05476  0.34670  1.0000
  C   C292      1.0  0.75361  0.09878  0.34984  1.0000
  C   C293      1.0  0.75687  0.06572  0.36208  1.0000
  C   C294      1.0  0.74340  0.04411  0.35994  1.0000
  H   H123      1.0  0.74553  0.02024  0.36890  1.0000
  C   C295      1.0  0.76653  0.12138  0.35040  1.0000
  C   C296      1.0  0.79209  0.16760  0.34833  1.0000
  C   C297      1.0  0.79558  0.13471  0.36138  1.0000
  C   C298      1.0  0.78303  0.11122  0.36301  1.0000
  C   C299      1.0  0.78631  0.07832  0.37648  1.0000
  C   C300      1.0  0.77334  0.05578  0.37609  1.0000
  H   H124      1.0  0.80752  0.12762  0.37016  1.0000
  O   O41       1.0  0.80201  0.06763  0.38760  1.0000
  H   H125      1.0  0.80418  0.06832  0.45225  1.0000
  O   O42       1.0  0.77705  0.02430  0.38692  1.0000
  H   H126      1.0  0.77649  0.02014  0.45154  1.0000
  C   C301      1.0  0.09131  0.43312  0.38812  1.0000
  N   N91       1.0  0.10726  0.44199  0.38453  1.0000
  C   C302      1.0  0.15414  0.47763  0.37110  1.0000
  H   H127      1.0  0.08307  0.44984  0.40985  1.0000
  N   N92       1.0  0.13894  0.46461  0.37502  1.0000
  H   H128      1.0  0.15540  0.50096  0.38990  1.0000
  C   C303      1.0  0.91089  0.56925  0.39292  1.0000
  N   N93       1.0  0.89497  0.56025  0.38766  1.0000
  C   C304      1.0  0.84807  0.52452  0.37194  1.0000
  H   H129      1.0  0.91902  0.55312  0.41895  1.0000
  N   N94       1.0  0.86328  0.53751  0.37629  1.0000
  H   H130      1.0  0.84662  0.50165  0.39448  1.0000
  C   C305      1.0  0.41640  0.90231  0.31168  1.0000
  C   C306      1.0  0.38326  0.92242  0.31599  1.0000
  C   C307      1.0  0.38708  0.89076  0.34265  1.0000
  C   C308      1.0  0.40382  0.88109  0.33965  1.0000
  H   H131      1.0  0.40694  0.85866  0.36079  1.0000
  C   C309      1.0  0.36700  0.93394  0.32002  1.0000
  C   C310      1.0  0.33491  0.95926  0.32927  1.0000
  C   C311      1.0  0.33795  0.92697  0.35257  1.0000
  C   C312      1.0  0.35403  0.91387  0.34958  1.0000
  C   C313      1.0  0.35774  0.88214  0.37567  1.0000
  C   C314      1.0  0.37415  0.87072  0.37260  1.0000
  H   H132      1.0  0.32841  0.91307  0.37453  1.0000
  O   O43       1.0  0.34561  0.86198  0.40323  1.0000
  H   H133      1.0  0.34480  0.86461  0.46842  1.0000
  O   O44       1.0  0.37722  0.84000  0.39733  1.0000
  H   H134      1.0  0.37947  0.84055  0.46191  1.0000
  C   C315      1.0  0.58665  0.09965  0.31003  1.0000
  C   C316      1.0  0.61970  0.07923  0.31817  1.0000
  C   C317      1.0  0.61569  0.11026  0.34955  1.0000
  C   C318      1.0  0.59902  0.12013  0.34431  1.0000
  H   H135      1.0  0.59576  0.14208  0.36855  1.0000
  C   C319      1.0  0.63594  0.06766  0.32335  1.0000
  C   C320      1.0  0.66801  0.04238  0.33365  1.0000
  C   C321      1.0  0.66476  0.07400  0.36241  1.0000
  C   C322      1.0  0.64867  0.08703  0.35900  1.0000
  C   C323      1.0  0.64474  0.11804  0.39042  1.0000
  C   C324      1.0  0.62836  0.12952  0.38605  1.0000
  H   H136      1.0  0.67414  0.08739  0.38849  1.0000
  O   O45       1.0  0.65664  0.13745  0.42447  1.0000
  H   H137      1.0  0.65702  0.13310  0.48904  1.0000
  O   O46       1.0  0.62509  0.15955  0.41603  1.0000
  H   H138      1.0  0.62232  0.15738  0.47975  1.0000
  C   C325      1.0  0.03034  0.43966  0.36779  1.0000
  C   C326      1.0  0.00763  0.49024  0.37897  1.0000
  C   C327      1.0  0.02458  0.49673  0.39327  1.0000
  C   C328      1.0  0.03576  0.47101  0.38739  1.0000
  H   H139      1.0  0.04803  0.47530  0.39686  1.0000
  C   C329      1.0  0.99602  0.51516  0.38101  1.0000
  C   C330      1.0  0.97251  0.56442  0.37639  1.0000
  C   C331      1.0  0.98926  0.57129  0.39406  1.0000
  C   C332      1.0  0.00126  0.54697  0.39691  1.0000
  C   C333      1.0  0.01810  0.55340  0.41341  1.0000
  C   C334      1.0  0.02972  0.52835  0.41174  1.0000
  H   H140      1.0  0.99285  0.59441  0.40449  1.0000
  O   O47       1.0  0.02354  0.58374  0.42759  1.0000
  H   H141      1.0  0.02286  0.58733  0.49246  1.0000
  O   O48       1.0  0.04591  0.53548  0.42445  1.0000
  H   H142      1.0  0.04795  0.53317  0.48893  1.0000
  C   C335      1.0  0.48945  0.93509  0.31603  1.0000
  N   N95       1.0  0.49998  0.96000  0.31052  1.0000
  C   C336      1.0  0.53454  0.03211  0.30773  1.0000
  H   H143      1.0  0.49426  0.91315  0.33057  1.0000
  N   N96       1.0  0.52284  0.00911  0.30596  1.0000
  H   H144      1.0  0.54638  0.02552  0.32170  1.0000
