data_image0
_chemical_formula_structural       C3O2HNC6H4C6H4NC3O2HC7H4C7H4C3OHC3OC3OHNH2C11H7C11H7NONHNOC3ONOCNC2O2HNOHCNC2O2HCNC2O2HCNC2O2HNONC3O2HN2C3O2HC3O2C3O2HNC3O2NC3O2HNC3O2HNC3O2HNC3O2HNC3O2HC24H15C24H15C24H15C24H15C24H15C24H15C24H15C24H15C24H15C24H15C3OHNC3O2HC3O2NC3O2HNC3O2HNC3O2HC3OHCNC2O2HC3O2HCNC2O2HNOHNCNC2O2HCNC2O2HCNC2O2HCNC2O2HCNC2O2HCNC2O2H
_chemical_formula_sum              "C396 O72 H216 N36"
_cell_length_a       75.5507
_cell_length_b       75.5507
_cell_length_c       14.9249
_cell_angle_alpha    90
_cell_angle_beta     90
_cell_angle_gamma    120

_space_group_name_H-M_alt    "P 1"
_space_group_IT_number       1

loop_
  _space_group_symop_operation_xyz
  'x, y, z'

loop_
  _atom_site_type_symbol
  _atom_site_label
  _atom_site_symmetry_multiplicity
  _atom_site_fract_x
  _atom_site_fract_y
  _atom_site_fract_z
  _atom_site_occupancy
  C   C1        1.0  0.00792  0.79918  0.25086  1.0000
  C   C2        1.0  0.02059  0.80707  0.32780  1.0000
  C   C3        1.0  0.01514  0.80236  0.16343  1.0000
  O   O1        1.0  0.00678  0.78820  0.11038  1.0000
  O   O2        1.0  0.02376  0.81959  0.12941  1.0000
  H   H1        1.0  0.02897  0.83123  0.15957  1.0000
  N   N1        1.0  0.01127  0.19790  0.26317  1.0000
  C   C4        1.0  0.08694  0.23405  0.33832  1.0000
  C   C5        1.0  0.07590  0.21656  0.39308  1.0000
  C   C6        1.0  0.05437  0.20582  0.39503  1.0000
  C   C7        1.0  0.04291  0.21217  0.34273  1.0000
  C   C8        1.0  0.05391  0.22939  0.28662  1.0000
  C   C9        1.0  0.07544  0.24017  0.28491  1.0000
  H   H2        1.0  0.08347  0.21157  0.43340  1.0000
  H   H3        1.0  0.04714  0.19304  0.43424  1.0000
  H   H4        1.0  0.08266  0.25244  0.24274  1.0000
  H   H5        1.0  0.04629  0.23449  0.24710  1.0000
  C   C10       1.0  0.08650  0.83993  0.33317  1.0000
  C   C11       1.0  0.07551  0.82247  0.27815  1.0000
  C   C12       1.0  0.05399  0.81169  0.27605  1.0000
  C   C13       1.0  0.04247  0.81794  0.32845  1.0000
  C   C14       1.0  0.05341  0.83514  0.38476  1.0000
  C   C15       1.0  0.07494  0.84597  0.38662  1.0000
  H   H6        1.0  0.04680  0.79893  0.23667  1.0000
  H   H7        1.0  0.08312  0.81753  0.23779  1.0000
  H   H8        1.0  0.04576  0.84018  0.42437  1.0000
  H   H9        1.0  0.08212  0.85821  0.42901  1.0000
  N   N2        1.0  0.01082  0.80360  0.40799  1.0000
  C   C16       1.0  0.02103  0.20135  0.34335  1.0000
  C   C17       1.0  0.00836  0.19350  0.42032  1.0000
  C   C18       1.0  0.01563  0.19671  0.50767  1.0000
  O   O3        1.0  0.00707  0.18258  0.56080  1.0000
  O   O4        1.0  0.02415  0.21389  0.54206  1.0000
  H   H10       1.0  0.02945  0.22555  0.51202  1.0000
  C   C19       1.0  0.14184  0.24527  0.33507  1.0000
  C   C20       1.0  0.14168  0.27805  0.33764  1.0000
  C   C21       1.0  0.12003  0.26676  0.33813  1.0000
  C   C22       1.0  0.10890  0.24511  0.33722  1.0000
  C   C23       1.0  0.12019  0.23475  0.33544  1.0000
  C   C24       1.0  0.14649  0.31122  0.39355  1.0000
  C   C25       1.0  0.14684  0.21675  0.38662  1.0000
  H   H11       1.0  0.13460  0.21168  0.42896  1.0000
  H   H12       1.0  0.13434  0.30378  0.43617  1.0000
  H   H13       1.0  0.11242  0.21913  0.33139  1.0000
  H   H14       1.0  0.11216  0.27453  0.33919  1.0000
  C   C26       1.0  0.10846  0.85098  0.33505  1.0000
  C   C27       1.0  0.11975  0.84062  0.33632  1.0000
  C   C28       1.0  0.14140  0.85113  0.33761  1.0000
  C   C29       1.0  0.14124  0.88392  0.33722  1.0000
  C   C30       1.0  0.11960  0.87263  0.33547  1.0000
  C   C31       1.0  0.14646  0.82289  0.28272  1.0000
  C   C32       1.0  0.14571  0.91692  0.39306  1.0000
  H   H15       1.0  0.13315  0.90936  0.43344  1.0000
  H   H16       1.0  0.13415  0.81793  0.24084  1.0000
  H   H17       1.0  0.11198  0.82499  0.33929  1.0000
  H   H18       1.0  0.11175  0.88040  0.33139  1.0000
  C   C33       1.0  0.18486  0.36592  0.33751  1.0000
  C   C34       1.0  0.19250  0.37885  0.26124  1.0000
  C   C35       1.0  0.18922  0.37193  0.17334  1.0000
  O   O5        1.0  0.17193  0.36321  0.13985  1.0000
  H   H19       1.0  0.16033  0.35772  0.17047  1.0000
  C   C36       1.0  0.18608  0.80795  0.33754  1.0000
  C   C37       1.0  0.19136  0.80029  0.26128  1.0000
  C   C38       1.0  0.18774  0.80359  0.17332  1.0000
  O   O6        1.0  0.18234  0.78956  0.11987  1.0000
  C   C39       1.0  0.19361  0.19650  0.25082  1.0000
  C   C40       1.0  0.18574  0.20129  0.32778  1.0000
  C   C41       1.0  0.19046  0.20058  0.16345  1.0000
  O   O7        1.0  0.17325  0.19208  0.12927  1.0000
  H   H20       1.0  0.16159  0.18573  0.15937  1.0000
  N   N3        1.0  0.19168  0.98155  0.26313  1.0000
  H   H21       1.0  0.19148  0.02343  0.15937  1.0000
  H   H22       1.0  0.19192  0.62076  0.20196  1.0000
  C   C42       1.0  0.15220  0.26692  0.33638  1.0000
  C   C43       1.0  0.15260  0.30001  0.33803  1.0000
  C   C44       1.0  0.16992  0.31135  0.28274  1.0000
  C   C45       1.0  0.18053  0.33288  0.28234  1.0000
  C   C46       1.0  0.17419  0.34405  0.33670  1.0000
  C   C47       1.0  0.15713  0.33276  0.39330  1.0000
  C   C48       1.0  0.15289  0.23436  0.33319  1.0000
  C   C49       1.0  0.17035  0.24083  0.27822  1.0000
  C   C50       1.0  0.18113  0.23008  0.27609  1.0000
  C   C51       1.0  0.17487  0.21231  0.32847  1.0000
  C   C52       1.0  0.15766  0.20604  0.38473  1.0000
  H   H23       1.0  0.19390  0.23567  0.23677  1.0000
  H   H24       1.0  0.17530  0.25339  0.23789  1.0000
  H   H25       1.0  0.15262  0.19335  0.42431  1.0000
  H   H26       1.0  0.15204  0.34015  0.43430  1.0000
  H   H27       1.0  0.19321  0.34033  0.24264  1.0000
  H   H28       1.0  0.17490  0.30401  0.24090  1.0000
  H   H29       1.0  0.16783  0.27478  0.33933  1.0000
  C   C53       1.0  0.15176  0.87278  0.33812  1.0000
  C   C54       1.0  0.15244  0.84022  0.33802  1.0000
  C   C55       1.0  0.15738  0.81229  0.28230  1.0000
  C   C56       1.0  0.17488  0.81862  0.33670  1.0000
  C   C57       1.0  0.18065  0.83568  0.39334  1.0000
  C   C58       1.0  0.16975  0.84632  0.39357  1.0000
  C   C59       1.0  0.15214  0.90587  0.33829  1.0000
  C   C60       1.0  0.15650  0.93845  0.39503  1.0000
  C   C61       1.0  0.17430  0.94991  0.34269  1.0000
  C   C62       1.0  0.18052  0.93891  0.28653  1.0000
  C   C63       1.0  0.16976  0.91738  0.28482  1.0000
  H   H30       1.0  0.15095  0.94568  0.43426  1.0000
  H   H31       1.0  0.17481  0.91015  0.24268  1.0000
  H   H32       1.0  0.19322  0.94652  0.24700  1.0000
  H   H33       1.0  0.17446  0.85847  0.43617  1.0000
  H   H34       1.0  0.19312  0.84076  0.43434  1.0000
  H   H35       1.0  0.15215  0.79961  0.24261  1.0000
  H   H36       1.0  0.16740  0.88066  0.33917  1.0000
  N   N4        1.0  0.18841  0.37541  0.41845  1.0000
  O   O8        1.0  0.18765  0.39437  0.57335  1.0000
  N   N5        1.0  0.19202  0.80440  0.41848  1.0000
  H   H37       1.0  0.19146  0.76223  0.52304  1.0000
  N   N6        1.0  0.18920  0.19499  0.40797  1.0000
  O   O9        1.0  0.18832  0.17465  0.56085  1.0000
  C   C64       1.0  0.18537  0.97179  0.34331  1.0000
  C   C65       1.0  0.19019  0.98446  0.42027  1.0000
  C   C66       1.0  0.18614  0.97723  0.50771  1.0000
  O   O10       1.0  0.18039  0.98562  0.56087  1.0000
  N   N7        1.0  0.20254  0.39942  0.27493  1.0000
  O   O11       1.0  0.20311  0.38069  0.11933  1.0000
  C   C67       1.0  0.62688  0.80672  0.33750  1.0000
  N   N8        1.0  0.59339  0.79091  0.27494  1.0000
  C   C68       1.0  0.61395  0.80145  0.26124  1.0000
  C   C69       1.0  0.62086  0.80505  0.17333  1.0000
  O   O12       1.0  0.61211  0.81019  0.11929  1.0000
  O   O13       1.0  0.62956  0.79646  0.13989  1.0000
  H   H38       1.0  0.63504  0.79035  0.17055  1.0000
  N   N9        1.0  0.20190  0.79027  0.27496  1.0000
  O   O14       1.0  0.19642  0.82090  0.14000  1.0000
  H   H39       1.0  0.20261  0.83248  0.17068  1.0000
  C   C70       1.0  0.81368  0.62115  0.33752  1.0000
  N   N10       1.0  0.79602  0.58765  0.27494  1.0000
  C   C71       1.0  0.80603  0.60821  0.26124  1.0000
  C   C72       1.0  0.80936  0.61517  0.17337  1.0000
  O   O15       1.0  0.79534  0.60639  0.11996  1.0000
  O   O16       1.0  0.82660  0.62365  0.13955  1.0000
  H   H40       1.0  0.83821  0.62911  0.17003  1.0000
  C   C73       1.0  0.37168  0.18035  0.33754  1.0000
  N   N11       1.0  0.40518  0.19617  0.27497  1.0000
  C   C74       1.0  0.38461  0.18564  0.26126  1.0000
  C   C75       1.0  0.37769  0.18201  0.17336  1.0000
  O   O17       1.0  0.38645  0.17687  0.11935  1.0000
  O   O18       1.0  0.36897  0.19057  0.13988  1.0000
  H   H41       1.0  0.36348  0.19667  0.17051  1.0000
  C   C76       1.0  0.81248  0.17913  0.33750  1.0000
  N   N12       1.0  0.79667  0.19681  0.27496  1.0000
  C   C77       1.0  0.80720  0.18679  0.26124  1.0000
  C   C78       1.0  0.81081  0.18348  0.17332  1.0000
  O   O19       1.0  0.81595  0.19737  0.11929  1.0000
  O   O20       1.0  0.80221  0.16618  0.13989  1.0000
  H   H42       1.0  0.79611  0.15460  0.17055  1.0000
  N   N13       1.0  0.20367  0.18594  0.26311  1.0000
  O   O21       1.0  0.20449  0.20612  0.10984  1.0000
  N   N14       1.0  0.80689  0.00552  0.26315  1.0000
  C   C79       1.0  0.79634  0.98490  0.25086  1.0000
  C   C80       1.0  0.79152  0.97223  0.32782  1.0000
  C   C81       1.0  0.79224  0.97767  0.16349  1.0000
  O   O22       1.0  0.78671  0.98617  0.10988  1.0000
  O   O23       1.0  0.80073  0.96894  0.12928  1.0000
  H   H43       1.0  0.80707  0.96362  0.15937  1.0000
  N   N15       1.0  0.98730  0.78913  0.26314  1.0000
  N   N16       1.0  0.79489  0.80114  0.26314  1.0000
  C   C82       1.0  0.80495  0.79058  0.25084  1.0000
  C   C83       1.0  0.81283  0.78578  0.32779  1.0000
  C   C84       1.0  0.80810  0.78650  0.16346  1.0000
  O   O24       1.0  0.79408  0.78097  0.10984  1.0000
  O   O25       1.0  0.82532  0.79500  0.12928  1.0000
  H   H44       1.0  0.83698  0.80135  0.15938  1.0000
  C   C85       1.0  0.20224  0.00217  0.25084  1.0000
  C   C86       1.0  0.20704  0.01484  0.32779  1.0000
  C   C87       1.0  0.20633  0.00940  0.16346  1.0000
  O   O26       1.0  0.21186  0.00091  0.10985  1.0000
  O   O27       1.0  0.19782  0.01811  0.12928  1.0000
  C   C88       1.0  0.99065  0.18784  0.25086  1.0000
  C   C89       1.0  0.97797  0.17998  0.32781  1.0000
  C   C90       1.0  0.98342  0.18470  0.16348  1.0000
  O   O28       1.0  0.99192  0.19873  0.10988  1.0000
  O   O29       1.0  0.97469  0.16749  0.12928  1.0000
  H   H45       1.0  0.96937  0.15583  0.15936  1.0000
  N   N17       1.0  0.21928  0.59428  0.26393  1.0000
  C   C91       1.0  0.21850  0.61173  0.25261  1.0000
  C   C92       1.0  0.22380  0.62516  0.32702  1.0000
  C   C93       1.0  0.21297  0.61544  0.16889  1.0000
  O   O30       1.0  0.21837  0.61008  0.10191  1.0000
  O   O31       1.0  0.19848  0.61850  0.15831  1.0000
  N   N18       1.0  0.39854  0.61276  0.26386  1.0000
  C   C94       1.0  0.38111  0.59452  0.25256  1.0000
  C   C95       1.0  0.36770  0.58634  0.32703  1.0000
  C   C96       1.0  0.37737  0.58527  0.16884  1.0000
  O   O32       1.0  0.38297  0.59602  0.10181  1.0000
  O   O33       1.0  0.37439  0.56776  0.15813  1.0000
  H   H46       1.0  0.37202  0.55889  0.20169  1.0000
  N   N19       1.0  0.38005  0.77355  0.26376  1.0000
  C   C97       1.0  0.39829  0.77436  0.25248  1.0000
  C   C98       1.0  0.40643  0.76907  0.32693  1.0000
  C   C99       1.0  0.40756  0.77989  0.16882  1.0000
  O   O34       1.0  0.39683  0.77477  0.10174  1.0000
  O   O35       1.0  0.42507  0.79443  0.15825  1.0000
  H   H47       1.0  0.43393  0.80092  0.20187  1.0000
  N   N20       1.0  0.77930  0.39278  0.26381  1.0000
  C   C100      1.0  0.78011  0.37535  0.25255  1.0000
  C   C101      1.0  0.77486  0.36193  0.32702  1.0000
  C   C102      1.0  0.78564  0.37161  0.16889  1.0000
  O   O36       1.0  0.78053  0.37722  0.10180  1.0000
  O   O37       1.0  0.80016  0.36861  0.15831  1.0000
  H   H48       1.0  0.80665  0.36623  0.20193  1.0000
  N   N21       1.0  0.60004  0.37429  0.26386  1.0000
  C   C103      1.0  0.61748  0.39252  0.25257  1.0000
  C   C104      1.0  0.63092  0.40064  0.32699  1.0000
  C   C105      1.0  0.62120  0.40178  0.16889  1.0000
  O   O38       1.0  0.61584  0.39104  0.10187  1.0000
  O   O39       1.0  0.62425  0.41932  0.15838  1.0000
  H   H49       1.0  0.62651  0.42814  0.20207  1.0000
  N   N22       1.0  0.61851  0.21351  0.26381  1.0000
  C   C106      1.0  0.60027  0.21269  0.25255  1.0000
  C   C107      1.0  0.59210  0.21795  0.32701  1.0000
  C   C108      1.0  0.59101  0.20717  0.16887  1.0000
  O   O40       1.0  0.60173  0.21230  0.10179  1.0000
  O   O41       1.0  0.57349  0.19264  0.15825  1.0000
  H   H50       1.0  0.56462  0.18615  0.20185  1.0000
  C   C109      1.0  0.74753  0.88435  0.33506  1.0000
  C   C110      1.0  0.72589  0.87306  0.33636  1.0000
  C   C111      1.0  0.71476  0.85141  0.33761  1.0000
  C   C112      1.0  0.72604  0.84105  0.33811  1.0000
  C   C113      1.0  0.74769  0.85157  0.33720  1.0000
  C   C114      1.0  0.75805  0.87322  0.33543  1.0000
  C   C115      1.0  0.69279  0.84037  0.33801  1.0000
  C   C116      1.0  0.68145  0.84635  0.28270  1.0000
  C   C117      1.0  0.65992  0.83542  0.28227  1.0000
  C   C118      1.0  0.64876  0.81792  0.33667  1.0000
  C   C119      1.0  0.66005  0.81215  0.39328  1.0000
  C   C120      1.0  0.68158  0.82305  0.39353  1.0000
  C   C121      1.0  0.75844  0.90631  0.33320  1.0000
  C   C122      1.0  0.75197  0.91730  0.27822  1.0000
  C   C123      1.0  0.76273  0.93883  0.27609  1.0000
  C   C124      1.0  0.78050  0.95034  0.32850  1.0000
  C   C125      1.0  0.78676  0.93940  0.38477  1.0000
  C   C126      1.0  0.77605  0.91787  0.38665  1.0000
  C   C127      1.0  0.75875  0.84067  0.33828  1.0000
  C   C128      1.0  0.77624  0.84711  0.39304  1.0000
  C   C129      1.0  0.78698  0.83632  0.39499  1.0000
  C   C130      1.0  0.78063  0.81852  0.34268  1.0000
  C   C131      1.0  0.76341  0.81230  0.28652  1.0000
  C   C132      1.0  0.75264  0.82305  0.28483  1.0000
  H   H51       1.0  0.75715  0.94602  0.23677  1.0000
  H   H52       1.0  0.73942  0.90970  0.23788  1.0000
  H   H53       1.0  0.79945  0.94705  0.42435  1.0000
  H   H54       1.0  0.78112  0.91069  0.42898  1.0000
  H   H55       1.0  0.78122  0.85966  0.43342  1.0000
  H   H56       1.0  0.79975  0.84186  0.43427  1.0000
  H   H57       1.0  0.74037  0.81800  0.24267  1.0000
  H   H58       1.0  0.75831  0.79959  0.24702  1.0000
  H   H59       1.0  0.68902  0.81835  0.43616  1.0000
  H   H60       1.0  0.65266  0.79968  0.43430  1.0000
  H   H61       1.0  0.65248  0.84066  0.24260  1.0000
  H   H62       1.0  0.68879  0.85866  0.24085  1.0000
  H   H63       1.0  0.71803  0.88083  0.33931  1.0000
  H   H64       1.0  0.77367  0.88107  0.33139  1.0000
  H   H65       1.0  0.71828  0.82541  0.33916  1.0000
  C   C133      1.0  0.85673  0.74181  0.33505  1.0000
  C   C134      1.0  0.84637  0.72016  0.33634  1.0000
  C   C135      1.0  0.85688  0.70902  0.33762  1.0000
  C   C136      1.0  0.87853  0.72030  0.33811  1.0000
  C   C137      1.0  0.88966  0.74196  0.33720  1.0000
  C   C138      1.0  0.87838  0.75232  0.33546  1.0000
  C   C139      1.0  0.84596  0.68706  0.33801  1.0000
  C   C140      1.0  0.82863  0.67572  0.28274  1.0000
  C   C141      1.0  0.81802  0.65419  0.28230  1.0000
  C   C142      1.0  0.82435  0.64302  0.33668  1.0000
  C   C143      1.0  0.84142  0.65431  0.39328  1.0000
  C   C144      1.0  0.85206  0.67585  0.39353  1.0000
  C   C145      1.0  0.84568  0.75271  0.33318  1.0000
  C   C146      1.0  0.82822  0.74625  0.27818  1.0000
  C   C147      1.0  0.81743  0.75699  0.27609  1.0000
  C   C148      1.0  0.82370  0.77477  0.32847  1.0000
  C   C149      1.0  0.84090  0.78103  0.38475  1.0000
  C   C150      1.0  0.85173  0.77033  0.38660  1.0000
  C   C151      1.0  0.91162  0.75301  0.33827  1.0000
  C   C152      1.0  0.92267  0.77050  0.39303  1.0000
  C   C153      1.0  0.94420  0.78124  0.39495  1.0000
  C   C154      1.0  0.95565  0.77489  0.34266  1.0000
  C   C155      1.0  0.94465  0.75766  0.28656  1.0000
  C   C156      1.0  0.92312  0.74689  0.28483  1.0000
  H   H66       1.0  0.80467  0.75142  0.23673  1.0000
  H   H67       1.0  0.82327  0.73369  0.23787  1.0000
  H   H68       1.0  0.84595  0.79373  0.42431  1.0000
  H   H69       1.0  0.86397  0.77539  0.42896  1.0000
  H   H70       1.0  0.91511  0.77550  0.43338  1.0000
  H   H71       1.0  0.95144  0.79401  0.43420  1.0000
  H   H72       1.0  0.91590  0.73462  0.24269  1.0000
  H   H73       1.0  0.95226  0.75255  0.24704  1.0000
  H   H74       1.0  0.86422  0.68329  0.43611  1.0000
  H   H75       1.0  0.84650  0.64692  0.43426  1.0000
  H   H76       1.0  0.80534  0.64675  0.24266  1.0000
  H   H77       1.0  0.82366  0.68307  0.24089  1.0000
  H   H78       1.0  0.83073  0.71230  0.33933  1.0000
  H   H79       1.0  0.88615  0.76794  0.33137  1.0000
  H   H80       1.0  0.88640  0.71254  0.33917  1.0000
  C   C157      1.0  0.25102  0.10272  0.33506  1.0000
  C   C158      1.0  0.27267  0.11400  0.33631  1.0000
  C   C159      1.0  0.28381  0.13565  0.33763  1.0000
  C   C160      1.0  0.27252  0.14602  0.33813  1.0000
  C   C161      1.0  0.25087  0.13550  0.33722  1.0000
  C   C162      1.0  0.24051  0.11385  0.33547  1.0000
  C   C163      1.0  0.30577  0.14670  0.33804  1.0000
  C   C164      1.0  0.31711  0.14071  0.28276  1.0000
  C   C165      1.0  0.33864  0.15163  0.28236  1.0000
  C   C166      1.0  0.34981  0.16914  0.33671  1.0000
  C   C167      1.0  0.33851  0.17491  0.39333  1.0000
  C   C168      1.0  0.31698  0.16401  0.39357  1.0000
  C   C169      1.0  0.24011  0.08076  0.33319  1.0000
  C   C170      1.0  0.24658  0.06976  0.27819  1.0000
  C   C171      1.0  0.23583  0.04824  0.27610  1.0000
  C   C172      1.0  0.21805  0.03672  0.32847  1.0000
  C   C173      1.0  0.21179  0.04767  0.38473  1.0000
  C   C174      1.0  0.22250  0.06920  0.38661  1.0000
  C   C175      1.0  0.23981  0.14640  0.33828  1.0000
  C   C176      1.0  0.22233  0.13996  0.39306  1.0000
  C   C177      1.0  0.21159  0.15075  0.39498  1.0000
  C   C178      1.0  0.21793  0.16855  0.34265  1.0000
  C   C179      1.0  0.23515  0.17477  0.28651  1.0000
  C   C180      1.0  0.24593  0.16402  0.28483  1.0000
  H   H81       1.0  0.24141  0.04105  0.23675  1.0000
  H   H82       1.0  0.25914  0.07737  0.23789  1.0000
  H   H83       1.0  0.19910  0.04002  0.42433  1.0000
  H   H84       1.0  0.21744  0.07638  0.42898  1.0000
  H   H85       1.0  0.21734  0.12741  0.43343  1.0000
  H   H86       1.0  0.19881  0.14521  0.43424  1.0000
  H   H87       1.0  0.25820  0.16907  0.24268  1.0000
  H   H88       1.0  0.24026  0.18748  0.24701  1.0000
  H   H89       1.0  0.30954  0.16872  0.43618  1.0000
  H   H90       1.0  0.34590  0.18739  0.43432  1.0000
  H   H91       1.0  0.34608  0.14640  0.24265  1.0000
  H   H92       1.0  0.30977  0.12840  0.24089  1.0000
  H   H93       1.0  0.28053  0.10623  0.33934  1.0000
  H   H94       1.0  0.22489  0.10600  0.33139  1.0000
  H   H95       1.0  0.28029  0.16166  0.33919  1.0000
  C   C181      1.0  0.89010  0.13609  0.33501  1.0000
  C   C182      1.0  0.87882  0.14645  0.33625  1.0000
  C   C183      1.0  0.85716  0.13594  0.33758  1.0000
  C   C184      1.0  0.84680  0.11429  0.33809  1.0000
  C   C185      1.0  0.85732  0.10315  0.33720  1.0000
  C   C186      1.0  0.87896  0.11444  0.33545  1.0000
  C   C187      1.0  0.84612  0.14685  0.33798  1.0000
  C   C188      1.0  0.85210  0.16417  0.28266  1.0000
  C   C189      1.0  0.84118  0.17479  0.28227  1.0000
  C   C190      1.0  0.82368  0.16845  0.33665  1.0000
  C   C191      1.0  0.81792  0.15140  0.39330  1.0000
  C   C192      1.0  0.82881  0.14075  0.39353  1.0000
  C   C193      1.0  0.91206  0.14714  0.33316  1.0000
  C   C194      1.0  0.92305  0.16459  0.27816  1.0000
  C   C195      1.0  0.94458  0.17538  0.27609  1.0000
  C   C196      1.0  0.95609  0.16912  0.32849  1.0000
  C   C197      1.0  0.94514  0.15191  0.38475  1.0000
  C   C198      1.0  0.92361  0.14109  0.38663  1.0000
  C   C199      1.0  0.84642  0.08119  0.33830  1.0000
  C   C200      1.0  0.85286  0.07015  0.39306  1.0000
  C   C201      1.0  0.84207  0.04862  0.39502  1.0000
  C   C202      1.0  0.82427  0.03716  0.34270  1.0000
  C   C203      1.0  0.81804  0.04816  0.28660  1.0000
  C   C204      1.0  0.82879  0.06969  0.28487  1.0000
  H   H96       1.0  0.95177  0.18814  0.23673  1.0000
  H   H97       1.0  0.91545  0.16955  0.23783  1.0000
  H   H98       1.0  0.95279  0.14686  0.42434  1.0000
  H   H99       1.0  0.91643  0.12885  0.42896  1.0000
  H   H100      1.0  0.86542  0.07772  0.43340  1.0000
  H   H101      1.0  0.84763  0.04139  0.43422  1.0000
  H   H102      1.0  0.82374  0.07691  0.24273  1.0000
  H   H103      1.0  0.80533  0.04054  0.24708  1.0000
  H   H104      1.0  0.82410  0.12861  0.43615  1.0000
  H   H105      1.0  0.80544  0.14631  0.43429  1.0000
  H   H106      1.0  0.84642  0.18746  0.24256  1.0000
  H   H107      1.0  0.86441  0.16915  0.24081  1.0000
  H   H108      1.0  0.88658  0.16208  0.33927  1.0000
  H   H109      1.0  0.88681  0.10667  0.33137  1.0000
  H   H110      1.0  0.83116  0.10641  0.33917  1.0000
  C   C205      1.0  0.24983  0.52935  0.33943  1.0000
  C   C206      1.0  0.23934  0.50784  0.34784  1.0000
  C   C207      1.0  0.24996  0.49675  0.35032  1.0000
  C   C208      1.0  0.27166  0.50796  0.34606  1.0000
  C   C209      1.0  0.28254  0.52947  0.33741  1.0000
  C   C210      1.0  0.27137  0.53984  0.33551  1.0000
  C   C211      1.0  0.23907  0.47481  0.35312  1.0000
  C   C212      1.0  0.22180  0.46377  0.40906  1.0000
  C   C213      1.0  0.21100  0.44224  0.41057  1.0000
  C   C214      1.0  0.21705  0.43079  0.35648  1.0000
  C   C215      1.0  0.23408  0.44179  0.29939  1.0000
  C   C216      1.0  0.24491  0.46331  0.29808  1.0000
  C   C217      1.0  0.23967  0.54090  0.33292  1.0000
  C   C218      1.0  0.22751  0.54138  0.40377  1.0000
  C   C219      1.0  0.22137  0.55621  0.40534  1.0000
  C   C220      1.0  0.22723  0.57099  0.33643  1.0000
  C   C221      1.0  0.23824  0.56951  0.26283  1.0000
  C   C222      1.0  0.24439  0.55478  0.26117  1.0000
  C   C223      1.0  0.30420  0.54103  0.32831  1.0000
  C   C224      1.0  0.31293  0.55489  0.25617  1.0000
  C   C225      1.0  0.33394  0.56915  0.25409  1.0000
  C   C226      1.0  0.34709  0.56991  0.32337  1.0000
  C   C227      1.0  0.33841  0.55567  0.39442  1.0000
  C   C228      1.0  0.31731  0.54130  0.39653  1.0000
  H   H111      1.0  0.21319  0.55657  0.45923  1.0000
  H   H112      1.0  0.22425  0.53189  0.45780  1.0000
  H   H113      1.0  0.24319  0.58007  0.21220  1.0000
  H   H114      1.0  0.25343  0.55509  0.20934  1.0000
  H   H115      1.0  0.30384  0.55552  0.20678  1.0000
  H   H116      1.0  0.33921  0.57988  0.20422  1.0000
  H   H117      1.0  0.31140  0.53197  0.45124  1.0000
  H   H118      1.0  0.34732  0.55611  0.44702  1.0000
  H   H119      1.0  0.25693  0.47052  0.25464  1.0000
  H   H120      1.0  0.23896  0.43420  0.25849  1.0000
  H   H121      1.0  0.19835  0.43500  0.45053  1.0000
  H   H122      1.0  0.21697  0.47136  0.45016  1.0000
  H   H123      1.0  0.22369  0.50014  0.34786  1.0000
  H   H124      1.0  0.27916  0.55549  0.33137  1.0000
  H   H125      1.0  0.27972  0.50039  0.34768  1.0000
  C   C229      1.0  0.46345  0.70824  0.33949  1.0000
  C   C230      1.0  0.48496  0.71926  0.34788  1.0000
  C   C231      1.0  0.49605  0.74097  0.35036  1.0000
  C   C232      1.0  0.48484  0.75145  0.34612  1.0000
  C   C233      1.0  0.46333  0.74084  0.33748  1.0000
  C   C234      1.0  0.45296  0.71929  0.33555  1.0000
  C   C235      1.0  0.51799  0.75202  0.35313  1.0000
  C   C236      1.0  0.52903  0.74579  0.40903  1.0000
  C   C237      1.0  0.55057  0.75653  0.41053  1.0000
  C   C238      1.0  0.56202  0.77404  0.35646  1.0000
  C   C239      1.0  0.55100  0.78006  0.29942  1.0000
  C   C240      1.0  0.52949  0.76936  0.29812  1.0000
  C   C241      1.0  0.45190  0.68654  0.33290  1.0000
  C   C242      1.0  0.45142  0.67389  0.40377  1.0000
  C   C243      1.0  0.43660  0.65292  0.40531  1.0000
  C   C244      1.0  0.42182  0.64399  0.33639  1.0000
  C   C245      1.0  0.42330  0.65649  0.26279  1.0000
  C   C246      1.0  0.43802  0.67736  0.26114  1.0000
  C   C247      1.0  0.45178  0.75094  0.32833  1.0000
  C   C248      1.0  0.43793  0.74581  0.25614  1.0000
  C   C249      1.0  0.42368  0.75256  0.25395  1.0000
  C   C250      1.0  0.42288  0.76492  0.32331  1.0000
  C   C251      1.0  0.43710  0.77047  0.39443  1.0000
  C   C252      1.0  0.45149  0.76377  0.39655  1.0000
  H   H126      1.0  0.43623  0.64439  0.45925  1.0000
  H   H127      1.0  0.46090  0.68012  0.45783  1.0000
  H   H128      1.0  0.41274  0.65088  0.21214  1.0000
  H   H129      1.0  0.43772  0.68609  0.20932  1.0000
  H   H130      1.0  0.43733  0.73612  0.20669  1.0000
  H   H131      1.0  0.41296  0.74711  0.20406  1.0000
  H   H132      1.0  0.46078  0.76715  0.45138  1.0000
  H   H133      1.0  0.43662  0.77890  0.44710  1.0000
  H   H134      1.0  0.52228  0.77419  0.25471  1.0000
  H   H135      1.0  0.55859  0.79254  0.25856  1.0000
  H   H136      1.0  0.55782  0.75112  0.45047  1.0000
  H   H137      1.0  0.52146  0.73337  0.45011  1.0000
  H   H138      1.0  0.49266  0.71131  0.34788  1.0000
  H   H139      1.0  0.43731  0.71142  0.33138  1.0000
  H   H140      1.0  0.49241  0.76709  0.34774  1.0000
  C   C253      1.0  0.28457  0.74301  0.33941  1.0000
  C   C254      1.0  0.27355  0.75350  0.34782  1.0000
  C   C255      1.0  0.25183  0.74287  0.35029  1.0000
  C   C256      1.0  0.24136  0.72118  0.34603  1.0000
  C   C257      1.0  0.25198  0.71029  0.33741  1.0000
  C   C258      1.0  0.27352  0.72147  0.33546  1.0000
  C   C259      1.0  0.24078  0.75375  0.35311  1.0000
  C   C260      1.0  0.24702  0.77103  0.40901  1.0000
  C   C261      1.0  0.23627  0.78182  0.41054  1.0000
  C   C262      1.0  0.21877  0.77577  0.35647  1.0000
  C   C263      1.0  0.21273  0.75872  0.29944  1.0000
  C   C264      1.0  0.22344  0.74791  0.29812  1.0000
  C   C265      1.0  0.30627  0.75316  0.33279  1.0000
  C   C266      1.0  0.31892  0.76533  0.40365  1.0000
  C   C267      1.0  0.33988  0.77145  0.40524  1.0000
  C   C268      1.0  0.34881  0.76561  0.33626  1.0000
  C   C269      1.0  0.33632  0.75462  0.26262  1.0000
  C   C270      1.0  0.31544  0.74848  0.26099  1.0000
  C   C271      1.0  0.24188  0.68863  0.32826  1.0000
  C   C272      1.0  0.24702  0.67992  0.25608  1.0000
  C   C273      1.0  0.24027  0.65891  0.25394  1.0000
  C   C274      1.0  0.22793  0.64576  0.32329  1.0000
  C   C275      1.0  0.22238  0.65443  0.39444  1.0000
  C   C276      1.0  0.22905  0.67552  0.39649  1.0000
  H   H141      1.0  0.34841  0.77958  0.45922  1.0000
  H   H142      1.0  0.31269  0.76853  0.45784  1.0000
  H   H143      1.0  0.34192  0.74968  0.21194  1.0000
  H   H144      1.0  0.30671  0.73944  0.20914  1.0000
  H   H145      1.0  0.25667  0.68901  0.20656  1.0000
  H   H146      1.0  0.24570  0.65364  0.20395  1.0000
  H   H147      1.0  0.22570  0.68142  0.45142  1.0000
  H   H148      1.0  0.21397  0.64553  0.44715  1.0000
  H   H149      1.0  0.21861  0.73588  0.25468  1.0000
  H   H150      1.0  0.20026  0.75384  0.25856  1.0000
  H   H151      1.0  0.24169  0.79448  0.45047  1.0000
  H   H152      1.0  0.25944  0.77587  0.45009  1.0000
  H   H153      1.0  0.28149  0.76914  0.34782  1.0000
  H   H154      1.0  0.28139  0.71368  0.33128  1.0000
  H   H155      1.0  0.22571  0.71311  0.34772  1.0000
  C   C277      1.0  0.74876  0.45772  0.33939  1.0000
  C   C278      1.0  0.75925  0.47923  0.34781  1.0000
  C   C279      1.0  0.74863  0.49032  0.35028  1.0000
  C   C280      1.0  0.72693  0.47910  0.34603  1.0000
  C   C281      1.0  0.71604  0.45760  0.33740  1.0000
  C   C282      1.0  0.72722  0.44723  0.33544  1.0000
  C   C283      1.0  0.75951  0.51226  0.35310  1.0000
  C   C284      1.0  0.77679  0.52330  0.40900  1.0000
  C   C285      1.0  0.78757  0.54484  0.41055  1.0000
  C   C286      1.0  0.78152  0.55628  0.35646  1.0000
  C   C287      1.0  0.76448  0.54527  0.29941  1.0000
  C   C288      1.0  0.75366  0.52375  0.29809  1.0000
  C   C289      1.0  0.75891  0.44617  0.33277  1.0000
  C   C290      1.0  0.77109  0.44570  0.40360  1.0000
  C   C291      1.0  0.77721  0.43085  0.40519  1.0000
  C   C292      1.0  0.77133  0.41606  0.33630  1.0000
  C   C293      1.0  0.76036  0.41757  0.26262  1.0000
  C   C294      1.0  0.75421  0.43230  0.26099  1.0000
  C   C295      1.0  0.69439  0.44604  0.32822  1.0000
  C   C296      1.0  0.68567  0.43222  0.25594  1.0000
  C   C297      1.0  0.66467  0.41792  0.25393  1.0000
  C   C298      1.0  0.65151  0.41711  0.32327  1.0000
  C   C299      1.0  0.66019  0.43133  0.39440  1.0000
  C   C300      1.0  0.68128  0.44573  0.39652  1.0000
  H   H156      1.0  0.78534  0.43046  0.45917  1.0000
  H   H157      1.0  0.77430  0.45514  0.45776  1.0000
  H   H158      1.0  0.75539  0.40700  0.21203  1.0000
  H   H159      1.0  0.74518  0.43200  0.20917  1.0000
  H   H160      1.0  0.69476  0.43163  0.20648  1.0000
  H   H161      1.0  0.65940  0.40724  0.20388  1.0000
  H   H162      1.0  0.68718  0.45499  0.45144  1.0000
  H   H163      1.0  0.65129  0.43083  0.44718  1.0000
  H   H164      1.0  0.74164  0.51655  0.25465  1.0000
  H   H165      1.0  0.75960  0.55286  0.25852  1.0000
  H   H166      1.0  0.80024  0.55208  0.45046  1.0000
  H   H167      1.0  0.78163  0.51572  0.45008  1.0000
  H   H168      1.0  0.77490  0.48693  0.34782  1.0000
  H   H169      1.0  0.71943  0.43158  0.33124  1.0000
  H   H170      1.0  0.71886  0.48668  0.34771  1.0000
  C   C301      1.0  0.53511  0.27882  0.33953  1.0000
  C   C302      1.0  0.51359  0.26780  0.34800  1.0000
  C   C303      1.0  0.50251  0.24609  0.35039  1.0000
  C   C304      1.0  0.51372  0.23561  0.34611  1.0000
  C   C305      1.0  0.53523  0.24623  0.33752  1.0000
  C   C306      1.0  0.54560  0.26778  0.33557  1.0000
  C   C307      1.0  0.48057  0.23504  0.35319  1.0000
  C   C308      1.0  0.46953  0.24126  0.40911  1.0000
  C   C309      1.0  0.44799  0.23051  0.41065  1.0000
  C   C310      1.0  0.43654  0.21302  0.35653  1.0000
  C   C311      1.0  0.44755  0.20700  0.29944  1.0000
  C   C312      1.0  0.46907  0.21770  0.29811  1.0000
  C   C313      1.0  0.54665  0.30053  0.33290  1.0000
  C   C314      1.0  0.54711  0.31317  0.40370  1.0000
  C   C315      1.0  0.56196  0.33413  0.40527  1.0000
  C   C316      1.0  0.57674  0.34306  0.33631  1.0000
  C   C317      1.0  0.57523  0.33056  0.26269  1.0000
  C   C318      1.0  0.56049  0.30969  0.26103  1.0000
  C   C319      1.0  0.54679  0.23614  0.32833  1.0000
  C   C320      1.0  0.56066  0.24128  0.25622  1.0000
  C   C321      1.0  0.57490  0.23451  0.25401  1.0000
  C   C322      1.0  0.57569  0.22215  0.32336  1.0000
  C   C323      1.0  0.56145  0.21658  0.39442  1.0000
  C   C324      1.0  0.54707  0.22330  0.39655  1.0000
  H   H171      1.0  0.56234  0.34267  0.45919  1.0000
  H   H172      1.0  0.53767  0.30695  0.45787  1.0000
  H   H173      1.0  0.58580  0.33616  0.21210  1.0000
  H   H174      1.0  0.56083  0.30095  0.20931  1.0000
  H   H175      1.0  0.56125  0.25096  0.20672  1.0000
  H   H176      1.0  0.58563  0.23996  0.20412  1.0000
  H   H177      1.0  0.53776  0.21988  0.45130  1.0000
  H   H178      1.0  0.56190  0.20813  0.44706  1.0000
  H   H179      1.0  0.47628  0.21288  0.25471  1.0000
  H   H180      1.0  0.43997  0.19454  0.25853  1.0000
  H   H181      1.0  0.44075  0.23593  0.45058  1.0000
  H   H182      1.0  0.47711  0.25368  0.45024  1.0000
  H   H183      1.0  0.50589  0.27575  0.34792  1.0000
  H   H184      1.0  0.56125  0.27565  0.33139  1.0000
  H   H185      1.0  0.50615  0.21997  0.34775  1.0000
  C   C325      1.0  0.71398  0.24405  0.33942  1.0000
  C   C326      1.0  0.72501  0.23356  0.34792  1.0000
  C   C327      1.0  0.74672  0.24420  0.35034  1.0000
  C   C328      1.0  0.75719  0.26589  0.34605  1.0000
  C   C329      1.0  0.74657  0.27677  0.33744  1.0000
  C   C330      1.0  0.72502  0.26559  0.33549  1.0000
  C   C331      1.0  0.75778  0.23332  0.35314  1.0000
  C   C332      1.0  0.75155  0.21604  0.40904  1.0000
  C   C333      1.0  0.76230  0.20526  0.41059  1.0000
  C   C334      1.0  0.77980  0.21131  0.35649  1.0000
  C   C335      1.0  0.78583  0.22835  0.29945  1.0000
  C   C336      1.0  0.77512  0.23916  0.29811  1.0000
  C   C337      1.0  0.69228  0.23388  0.33286  1.0000
  C   C338      1.0  0.67964  0.22175  0.40378  1.0000
  C   C339      1.0  0.65867  0.21561  0.40530  1.0000
  C   C340      1.0  0.64974  0.22144  0.33629  1.0000
  C   C341      1.0  0.66223  0.23241  0.26260  1.0000
  C   C342      1.0  0.68311  0.23856  0.26100  1.0000
  C   C343      1.0  0.75665  0.29843  0.32830  1.0000
  C   C344      1.0  0.75150  0.30715  0.25620  1.0000
  C   C345      1.0  0.75825  0.32816  0.25410  1.0000
  C   C346      1.0  0.77064  0.34131  0.32338  1.0000
  C   C347      1.0  0.77621  0.33264  0.39442  1.0000
  C   C348      1.0  0.76951  0.31154  0.39649  1.0000
  H   H186      1.0  0.65013  0.20746  0.45925  1.0000
  H   H187      1.0  0.68586  0.21849  0.45786  1.0000
  H   H188      1.0  0.65665  0.23741  0.21206  1.0000
  H   H189      1.0  0.69184  0.24762  0.20924  1.0000
  H   H190      1.0  0.74183  0.29807  0.20670  1.0000
  H   H191      1.0  0.75285  0.33345  0.20409  1.0000
  H   H192      1.0  0.77291  0.30564  0.45127  1.0000
  H   H193      1.0  0.78468  0.34154  0.44703  1.0000
  H   H194      1.0  0.77995  0.25120  0.25472  1.0000
  H   H195      1.0  0.79830  0.23323  0.25856  1.0000
  H   H196      1.0  0.75688  0.19259  0.45048  1.0000
  H   H197      1.0  0.73913  0.21120  0.45013  1.0000
  H   H198      1.0  0.71706  0.21792  0.34784  1.0000
  H   H199      1.0  0.71714  0.27336  0.33131  1.0000
  H   H200      1.0  0.77283  0.27397  0.34772  1.0000
  C   C349      1.0  0.19840  0.39598  0.43209  1.0000
  C   C350      1.0  0.20613  0.40891  0.35584  1.0000
  C   C351      1.0  0.20172  0.40294  0.51998  1.0000
  O   O42       1.0  0.21901  0.41148  0.55341  1.0000
  H   H201      1.0  0.23060  0.41681  0.52281  1.0000
  N   N23       1.0  0.61739  0.80078  0.41844  1.0000
  C   C352      1.0  0.59682  0.79021  0.43210  1.0000
  C   C353      1.0  0.58389  0.78500  0.35586  1.0000
  C   C354      1.0  0.58987  0.78654  0.51994  1.0000
  O   O43       1.0  0.59857  0.78131  0.57384  1.0000
  O   O44       1.0  0.58122  0.79517  0.55357  1.0000
  H   H202      1.0  0.57579  0.80135  0.52304  1.0000
  C   C355      1.0  0.20259  0.79439  0.43213  1.0000
  C   C356      1.0  0.20780  0.78668  0.35588  1.0000
  C   C357      1.0  0.20626  0.79111  0.51996  1.0000
  O   O45       1.0  0.21149  0.80503  0.57387  1.0000
  O   O46       1.0  0.19763  0.77383  0.55357  1.0000
  N   N24       1.0  0.81013  0.61166  0.41846  1.0000
  C   C358      1.0  0.80013  0.59109  0.43211  1.0000
  C   C359      1.0  0.79243  0.57816  0.35586  1.0000
  C   C360      1.0  0.79685  0.58413  0.51994  1.0000
  O   O47       1.0  0.81078  0.59284  0.57383  1.0000
  O   O48       1.0  0.77958  0.57547  0.55359  1.0000
  H   H203      1.0  0.76797  0.57003  0.52307  1.0000
  N   N25       1.0  0.38117  0.18628  0.41848  1.0000
  C   C361      1.0  0.40174  0.19686  0.43213  1.0000
  C   C362      1.0  0.41467  0.20207  0.35589  1.0000
  C   C363      1.0  0.40869  0.20050  0.52002  1.0000
  O   O49       1.0  0.40012  0.20600  0.57338  1.0000
  O   O50       1.0  0.41723  0.19176  0.55345  1.0000
  H   H204      1.0  0.42256  0.18550  0.52286  1.0000
  N   N26       1.0  0.80654  0.18268  0.41844  1.0000
  C   C364      1.0  0.79598  0.19268  0.43212  1.0000
  C   C365      1.0  0.79076  0.20040  0.35588  1.0000
  C   C366      1.0  0.79231  0.19597  0.51995  1.0000
  O   O51       1.0  0.78708  0.18204  0.57385  1.0000
  O   O52       1.0  0.80095  0.21324  0.55358  1.0000
  H   H205      1.0  0.80712  0.22485  0.52305  1.0000
  C   C367      1.0  0.20712  0.17962  0.34329  1.0000
  C   C368      1.0  0.19927  0.18444  0.42025  1.0000
  C   C369      1.0  0.20245  0.18039  0.50768  1.0000
  O   O53       1.0  0.21970  0.18896  0.54156  1.0000
  H   H206      1.0  0.23133  0.19535  0.51132  1.0000
  C   C370      1.0  0.81321  0.01528  0.34334  1.0000
  N   N27       1.0  0.79782  0.98199  0.40800  1.0000
  C   C371      1.0  0.80838  0.00261  0.42031  1.0000
  C   C372      1.0  0.81244  0.00988  0.50766  1.0000
  O   O54       1.0  0.81801  0.00133  0.56079  1.0000
  O   O55       1.0  0.80379  0.01841  0.54204  1.0000
  H   H207      1.0  0.79743  0.02371  0.51200  1.0000
  C   C373      1.0  0.97753  0.78568  0.34333  1.0000
  C   C374      1.0  0.99021  0.79352  0.42030  1.0000
  C   C375      1.0  0.98296  0.79036  0.50767  1.0000
  O   O56       1.0  0.99149  0.80435  0.56142  1.0000
  O   O57       1.0  0.97419  0.77313  0.54170  1.0000
  H   H208      1.0  0.96885  0.76148  0.51150  1.0000
  C   C376      1.0  0.79144  0.80745  0.34333  1.0000
  N   N28       1.0  0.80937  0.79209  0.40798  1.0000
  C   C377      1.0  0.79930  0.80263  0.42029  1.0000
  C   C378      1.0  0.79611  0.80668  0.50768  1.0000
  O   O58       1.0  0.81010  0.81215  0.56145  1.0000
  O   O59       1.0  0.77887  0.79819  0.54165  1.0000
  H   H209      1.0  0.76723  0.79187  0.51141  1.0000
  N   N29       1.0  0.20074  0.00508  0.40798  1.0000
  O   O60       1.0  0.19471  0.96855  0.54159  1.0000
  H   H210      1.0  0.20111  0.96332  0.51135  1.0000
  N   N30       1.0  0.98774  0.18344  0.40800  1.0000
  C   C379      1.0  0.22401  0.58807  0.34137  1.0000
  N   N31       1.0  0.22831  0.61892  0.40489  1.0000
  C   C380      1.0  0.22816  0.60099  0.41700  1.0000
  C   C381      1.0  0.23471  0.59793  0.49919  1.0000
  O   O61       1.0  0.22659  0.59990  0.56632  1.0000
  O   O62       1.0  0.25250  0.60177  0.51044  1.0000
  H   H211      1.0  0.26086  0.60250  0.46706  1.0000
  C   C382      1.0  0.40475  0.62369  0.34132  1.0000
  N   N32       1.0  0.37394  0.59712  0.40486  1.0000
  C   C383      1.0  0.39186  0.61490  0.41702  1.0000
  C   C384      1.0  0.39485  0.62453  0.49912  1.0000
  O   O63       1.0  0.39288  0.61447  0.56634  1.0000
  O   O64       1.0  0.39096  0.63845  0.51012  1.0000
  H   H212      1.0  0.39021  0.64604  0.46661  1.0000
  C   C385      1.0  0.36910  0.76881  0.34117  1.0000
  N   N33       1.0  0.39566  0.76454  0.40477  1.0000
  C   C386      1.0  0.37788  0.76469  0.41684  1.0000
  C   C387      1.0  0.36824  0.75807  0.49902  1.0000
  O   O65       1.0  0.37831  0.76647  0.56581  1.0000
  O   O66       1.0  0.35450  0.74018  0.50988  1.0000
  H   H213      1.0  0.34696  0.73180  0.46638  1.0000
  C   C388      1.0  0.77453  0.39897  0.34121  1.0000
  N   N34       1.0  0.77030  0.36817  0.40484  1.0000
  C   C389      1.0  0.77044  0.38609  0.41693  1.0000
  C   C390      1.0  0.76383  0.38915  0.49900  1.0000
  O   O67       1.0  0.77226  0.38740  0.56555  1.0000
  O   O68       1.0  0.74591  0.38480  0.51076  1.0000
  H   H214      1.0  0.73745  0.38390  0.46760  1.0000
  C   C391      1.0  0.59385  0.36333  0.34126  1.0000
  N   N35       1.0  0.62467  0.38988  0.40485  1.0000
  C   C392      1.0  0.60675  0.37210  0.41694  1.0000
  C   C393      1.0  0.60369  0.36248  0.49912  1.0000
  O   O69       1.0  0.60568  0.37258  0.56626  1.0000
  O   O70       1.0  0.60750  0.34851  0.51031  1.0000
  H   H215      1.0  0.60822  0.34089  0.46691  1.0000
  C   C394      1.0  0.62946  0.21826  0.34123  1.0000
  N   N36       1.0  0.60289  0.22250  0.40481  1.0000
  C   C395      1.0  0.62067  0.22235  0.41696  1.0000
  C   C396      1.0  0.63032  0.22901  0.49903  1.0000
  O   O71       1.0  0.62026  0.22093  0.56630  1.0000
  O   O72       1.0  0.64425  0.24682  0.50995  1.0000
  H   H216      1.0  0.65184  0.25513  0.46641  1.0000
