data_image0
_chemical_formula_structural       C8HC7HCH4C8HC7HCH4C2H2C2H2C2H2C2H2C2H2C2H2C8HC7HCH4C4NC2NH2C4NC2NH2C4NC2NH2C4NC2NH2C4NC2NH2C4NC2NH2C8HC7HCH4C8HC7HCH4C2H2C2H2C2H2C2H2C2H2C2H2C8HC7HCH4C4NC2NH2C4NC2NH2C4NC2NH2C4NC2NH2C4NC2NH2C4NC2NH2C8HC7HCH4C8HC7HCH4C2H2C2H2C2H2C2H2C2H2C2H2C8HC7HCH4C4NC2NH2C4NC2NH2C4NC2NH2C4NC2NH2C4NC2NH2C4NC2NH2C8HC7HCH4C8HC7HCH4C2H2C2H2C2H2C2H2C2H2C2H2C8HC7HCH4C4NC2NH2C4NC2NH2C4NC2NH2C4NC2NH2C4NC2NH2C4NC2NH2
_chemical_formula_sum              "C384 H168 N48"
_cell_length_a       42.7939
_cell_length_b       42.794
_cell_length_c       14.8576
_cell_angle_alpha    90.0022
_cell_angle_beta     89.9978
_cell_angle_gamma    120

_space_group_name_H-M_alt    "P 1"
_space_group_IT_number       1

loop_
  _space_group_symop_operation_xyz
  'x, y, z'

loop_
  _atom_site_type_symbol
  _atom_site_label
  _atom_site_symmetry_multiplicity
  _atom_site_fract_x
  _atom_site_fract_y
  _atom_site_fract_z
  _atom_site_occupancy
  C   C1        1.0  0.26529  0.28780  0.34213  1.0000
  C   C2        1.0  0.26510  0.25431  0.34220  1.0000
  C   C3        1.0  0.23178  0.22101  0.34192  1.0000
  C   C4        1.0  0.19909  0.22161  0.34211  1.0000
  C   C5        1.0  0.19850  0.25430  0.34198  1.0000
  C   C6        1.0  0.23181  0.28762  0.34231  1.0000
  C   C7        1.0  0.29863  0.25531  0.34268  1.0000
  C   C8        1.0  0.23281  0.32114  0.34273  1.0000
  H   H1        1.0  0.17510  0.19763  0.34273  1.0000
  C   C9        1.0  0.29886  0.32137  0.34213  1.0000
  C   C10       1.0  0.33235  0.32156  0.34220  1.0000
  C   C11       1.0  0.36566  0.35488  0.34193  1.0000
  C   C12       1.0  0.36505  0.38757  0.34211  1.0000
  C   C13       1.0  0.33236  0.38816  0.34197  1.0000
  C   C14       1.0  0.29905  0.35486  0.34231  1.0000
  C   C15       1.0  0.33135  0.28803  0.34268  1.0000
  H   H2        1.0  0.38904  0.41156  0.34273  1.0000
  C   C16       1.0  0.26552  0.35386  0.34274  1.0000
  H   H3        1.0  0.35460  0.28679  0.34288  1.0000
  H   H4        1.0  0.29987  0.23206  0.34288  1.0000
  H   H5        1.0  0.26428  0.37711  0.34285  1.0000
  H   H6        1.0  0.20955  0.32239  0.34285  1.0000
  C   C17       1.0  0.29885  0.05458  0.34212  1.0000
  C   C18       1.0  0.33234  0.08788  0.34220  1.0000
  C   C19       1.0  0.36565  0.08787  0.34194  1.0000
  C   C20       1.0  0.36505  0.05458  0.34211  1.0000
  C   C21       1.0  0.33236  0.02129  0.34196  1.0000
  C   C22       1.0  0.29905  0.02129  0.34230  1.0000
  C   C23       1.0  0.33134  0.12041  0.34268  1.0000
  C   C24       1.0  0.26552  0.48876  0.34273  1.0000
  H   H7        1.0  0.38903  0.05458  0.34273  1.0000
  C   C25       1.0  0.26529  0.05458  0.34212  1.0000
  C   C26       1.0  0.26509  0.08788  0.34219  1.0000
  C   C27       1.0  0.23177  0.08786  0.34194  1.0000
  C   C28       1.0  0.19909  0.05457  0.34211  1.0000
  C   C29       1.0  0.19849  0.02129  0.34197  1.0000
  C   C30       1.0  0.23180  0.02128  0.34230  1.0000
  C   C31       1.0  0.29862  0.12041  0.34268  1.0000
  H   H8        1.0  0.17510  0.05457  0.34273  1.0000
  C   C32       1.0  0.23280  0.48875  0.34274  1.0000
  H   H9        1.0  0.29986  0.14490  0.34287  1.0000
  H   H10       1.0  0.35460  0.14490  0.34288  1.0000
  H   H11       1.0  0.20955  0.46426  0.34285  1.0000
  H   H12       1.0  0.26428  0.46426  0.34284  1.0000
  C   C33       1.0  0.11437  0.25212  0.26242  1.0000
  C   C34       1.0  0.14730  0.25211  0.26241  1.0000
  H   H13       1.0  0.15903  0.25255  0.20200  1.0000
  H   H14       1.0  0.10307  0.25254  0.20200  1.0000
  C   C35       1.0  0.33453  0.43934  0.26241  1.0000
  C   C36       1.0  0.33452  0.47227  0.26241  1.0000
  H   H15       1.0  0.33409  0.48357  0.20199  1.0000
  H   H16       1.0  0.33409  0.42761  0.20200  1.0000
  C   C37       1.0  0.14730  0.47228  0.26242  1.0000
  C   C38       1.0  0.11437  0.43935  0.26242  1.0000
  H   H17       1.0  0.10308  0.42762  0.20201  1.0000
  H   H18       1.0  0.15903  0.48358  0.20200  1.0000
  C   C39       1.0  0.44955  0.35659  0.26231  1.0000
  C   C40       1.0  0.41661  0.35659  0.26231  1.0000
  H   H19       1.0  0.40473  0.35585  0.20192  1.0000
  H   H20       1.0  0.46069  0.35585  0.20191  1.0000
  C   C41       1.0  0.23007  0.17005  0.26232  1.0000
  C   C42       1.0  0.23007  0.13711  0.26231  1.0000
  H   H21       1.0  0.23083  0.12598  0.20192  1.0000
  H   H22       1.0  0.23083  0.18194  0.20192  1.0000
  C   C43       1.0  0.41661  0.13711  0.26232  1.0000
  C   C44       1.0  0.44955  0.17004  0.26232  1.0000
  H   H23       1.0  0.46068  0.18192  0.20192  1.0000
  H   H24       1.0  0.40473  0.12597  0.20193  1.0000
  C   C45       1.0  0.03208  0.32136  0.34214  1.0000
  C   C46       1.0  0.49878  0.32156  0.34221  1.0000
  C   C47       1.0  0.49879  0.35488  0.34192  1.0000
  C   C48       1.0  0.03208  0.38756  0.34211  1.0000
  C   C49       1.0  0.06537  0.38816  0.34199  1.0000
  C   C50       1.0  0.06537  0.35485  0.34232  1.0000
  C   C51       1.0  0.46625  0.28803  0.34269  1.0000
  C   C52       1.0  0.09790  0.35385  0.34275  1.0000
  H   H25       1.0  0.03209  0.41155  0.34273  1.0000
  C   C53       1.0  0.03208  0.28780  0.34214  1.0000
  C   C54       1.0  0.49878  0.25431  0.34221  1.0000
  C   C55       1.0  0.49879  0.22100  0.34192  1.0000
  C   C56       1.0  0.03208  0.22161  0.34210  1.0000
  C   C57       1.0  0.06537  0.25430  0.34199  1.0000
  C   C58       1.0  0.06537  0.28761  0.34232  1.0000
  C   C59       1.0  0.46625  0.25531  0.34270  1.0000
  H   H26       1.0  0.03209  0.19762  0.34273  1.0000
  C   C60       1.0  0.09790  0.32114  0.34275  1.0000
  H   H27       1.0  0.44176  0.23206  0.34288  1.0000
  H   H28       1.0  0.44176  0.28679  0.34289  1.0000
  H   H29       1.0  0.12240  0.32238  0.34287  1.0000
  H   H30       1.0  0.12240  0.37710  0.34287  1.0000
  C   C61       1.0  0.16439  0.25222  0.34394  1.0000
  C   C62       1.0  0.14784  0.25280  0.42605  1.0000
  C   C63       1.0  0.11453  0.25280  0.42606  1.0000
  C   C64       1.0  0.09739  0.25220  0.34395  1.0000
  N   N1        1.0  0.10001  0.25370  0.50695  1.0000
  C   C65       1.0  0.11564  0.25452  0.58698  1.0000
  C   C66       1.0  0.14845  0.25452  0.58698  1.0000
  N   N2        1.0  0.16326  0.25371  0.50694  1.0000
  H   H31       1.0  0.10367  0.25517  0.64588  1.0000
  H   H32       1.0  0.16107  0.25518  0.64588  1.0000
  C   C67       1.0  0.33445  0.48927  0.34394  1.0000
  C   C68       1.0  0.33386  0.47214  0.42604  1.0000
  C   C69       1.0  0.33386  0.43882  0.42604  1.0000
  C   C70       1.0  0.33445  0.42227  0.34394  1.0000
  N   N3        1.0  0.33296  0.42341  0.50694  1.0000
  C   C71       1.0  0.33214  0.43822  0.58698  1.0000
  C   C72       1.0  0.33214  0.47103  0.58698  1.0000
  N   N4        1.0  0.33296  0.48666  0.50694  1.0000
  H   H33       1.0  0.33148  0.42560  0.64587  1.0000
  H   H34       1.0  0.33149  0.48299  0.64587  1.0000
  C   C73       1.0  0.09739  0.42227  0.34396  1.0000
  C   C74       1.0  0.11452  0.43882  0.42606  1.0000
  C   C75       1.0  0.14784  0.47213  0.42606  1.0000
  C   C76       1.0  0.16438  0.48927  0.34395  1.0000
  N   N5        1.0  0.16326  0.48665  0.50695  1.0000
  C   C77       1.0  0.14844  0.47103  0.58699  1.0000
  C   C78       1.0  0.11563  0.43822  0.58699  1.0000
  N   N6        1.0  0.10001  0.42340  0.50696  1.0000
  H   H35       1.0  0.16106  0.48299  0.64588  1.0000
  H   H36       1.0  0.10367  0.42560  0.64589  1.0000
  C   C79       1.0  0.39978  0.35699  0.34383  1.0000
  C   C80       1.0  0.41658  0.35692  0.42595  1.0000
  C   C81       1.0  0.44990  0.35692  0.42594  1.0000
  C   C82       1.0  0.46678  0.35698  0.34382  1.0000
  N   N7        1.0  0.46463  0.35643  0.50687  1.0000
  C   C83       1.0  0.44921  0.35605  0.58692  1.0000
  C   C84       1.0  0.41640  0.35606  0.58692  1.0000
  N   N8        1.0  0.40138  0.35644  0.50687  1.0000
  H   H37       1.0  0.46132  0.35569  0.64584  1.0000
  H   H38       1.0  0.40393  0.35570  0.64584  1.0000
  C   C85       1.0  0.22967  0.11988  0.34383  1.0000
  C   C86       1.0  0.22974  0.13676  0.42595  1.0000
  C   C87       1.0  0.22974  0.17008  0.42595  1.0000
  C   C88       1.0  0.22966  0.18688  0.34383  1.0000
  N   N9        1.0  0.23022  0.18529  0.50687  1.0000
  C   C89       1.0  0.23061  0.17026  0.58692  1.0000
  C   C90       1.0  0.23061  0.13745  0.58692  1.0000
  N   N10       1.0  0.23022  0.12204  0.50687  1.0000
  H   H39       1.0  0.23096  0.18273  0.64584  1.0000
  H   H40       1.0  0.23096  0.12534  0.64584  1.0000
  C   C91       1.0  0.46678  0.18688  0.34384  1.0000
  C   C92       1.0  0.44990  0.17008  0.42596  1.0000
  C   C93       1.0  0.41658  0.13676  0.42596  1.0000
  C   C94       1.0  0.39977  0.11988  0.34385  1.0000
  N   N11       1.0  0.40137  0.12204  0.50689  1.0000
  C   C95       1.0  0.41640  0.13745  0.58694  1.0000
  C   C96       1.0  0.44921  0.17026  0.58694  1.0000
  N   N12       1.0  0.46463  0.18529  0.50688  1.0000
  H   H41       1.0  0.40393  0.12534  0.64586  1.0000
  H   H42       1.0  0.46133  0.18273  0.64584  1.0000
  C   C97       1.0  0.26529  0.78780  0.34213  1.0000
  C   C98       1.0  0.26510  0.75431  0.34220  1.0000
  C   C99       1.0  0.23178  0.72101  0.34192  1.0000
  C   C100      1.0  0.19909  0.72162  0.34211  1.0000
  C   C101      1.0  0.19850  0.75430  0.34198  1.0000
  C   C102      1.0  0.23181  0.78762  0.34231  1.0000
  C   C103      1.0  0.29863  0.75531  0.34268  1.0000
  C   C104      1.0  0.23281  0.82115  0.34273  1.0000
  H   H43       1.0  0.17510  0.69763  0.34273  1.0000
  C   C105      1.0  0.29886  0.82137  0.34213  1.0000
  C   C106      1.0  0.33235  0.82156  0.34220  1.0000
  C   C107      1.0  0.36566  0.85488  0.34193  1.0000
  C   C108      1.0  0.36505  0.88757  0.34211  1.0000
  C   C109      1.0  0.33236  0.88816  0.34197  1.0000
  C   C110      1.0  0.29905  0.85486  0.34231  1.0000
  C   C111      1.0  0.33135  0.78803  0.34268  1.0000
  H   H44       1.0  0.38904  0.91156  0.34273  1.0000
  C   C112      1.0  0.26552  0.85386  0.34274  1.0000
  H   H45       1.0  0.35460  0.78679  0.34288  1.0000
  H   H46       1.0  0.29987  0.73206  0.34288  1.0000
  H   H47       1.0  0.26428  0.87711  0.34285  1.0000
  H   H48       1.0  0.20955  0.82239  0.34285  1.0000
  C   C113      1.0  0.29885  0.55458  0.34212  1.0000
  C   C114      1.0  0.33235  0.58788  0.34220  1.0000
  C   C115      1.0  0.36565  0.58787  0.34194  1.0000
  C   C116      1.0  0.36505  0.55458  0.34211  1.0000
  C   C117      1.0  0.33236  0.52129  0.34196  1.0000
  C   C118      1.0  0.29905  0.52129  0.34230  1.0000
  C   C119      1.0  0.33134  0.62041  0.34268  1.0000
  C   C120      1.0  0.26552  0.98876  0.34273  1.0000
  H   H49       1.0  0.38904  0.55458  0.34273  1.0000
  C   C121      1.0  0.26529  0.55458  0.34212  1.0000
  C   C122      1.0  0.26509  0.58788  0.34219  1.0000
  C   C123      1.0  0.23177  0.58786  0.34194  1.0000
  C   C124      1.0  0.19909  0.55457  0.34211  1.0000
  C   C125      1.0  0.19850  0.52129  0.34197  1.0000
  C   C126      1.0  0.23180  0.52128  0.34230  1.0000
  C   C127      1.0  0.29863  0.62041  0.34268  1.0000
  H   H50       1.0  0.17510  0.55457  0.34273  1.0000
  C   C128      1.0  0.23280  0.98875  0.34274  1.0000
  H   H51       1.0  0.29986  0.64490  0.34287  1.0000
  H   H52       1.0  0.35460  0.64490  0.34288  1.0000
  H   H53       1.0  0.20955  0.96426  0.34285  1.0000
  H   H54       1.0  0.26428  0.96426  0.34284  1.0000
  C   C129      1.0  0.11438  0.75212  0.26242  1.0000
  C   C130      1.0  0.14731  0.75211  0.26241  1.0000
  H   H55       1.0  0.15903  0.75255  0.20200  1.0000
  H   H56       1.0  0.10307  0.75254  0.20200  1.0000
  C   C131      1.0  0.33453  0.93934  0.26241  1.0000
  C   C132      1.0  0.33452  0.97227  0.26241  1.0000
  H   H57       1.0  0.33409  0.98357  0.20199  1.0000
  H   H58       1.0  0.33409  0.92761  0.20200  1.0000
  C   C133      1.0  0.14730  0.97228  0.26242  1.0000
  C   C134      1.0  0.11437  0.93935  0.26242  1.0000
  H   H59       1.0  0.10308  0.92762  0.20201  1.0000
  H   H60       1.0  0.15903  0.98357  0.20200  1.0000
  C   C135      1.0  0.44955  0.85659  0.26231  1.0000
  C   C136      1.0  0.41661  0.85659  0.26231  1.0000
  H   H61       1.0  0.40473  0.85585  0.20192  1.0000
  H   H62       1.0  0.46069  0.85585  0.20191  1.0000
  C   C137      1.0  0.23007  0.67005  0.26232  1.0000
  C   C138      1.0  0.23007  0.63712  0.26231  1.0000
  H   H63       1.0  0.23083  0.62598  0.20192  1.0000
  H   H64       1.0  0.23083  0.68194  0.20192  1.0000
  C   C139      1.0  0.41661  0.63710  0.26232  1.0000
  C   C140      1.0  0.44955  0.67004  0.26232  1.0000
  H   H65       1.0  0.46068  0.68192  0.20192  1.0000
  H   H66       1.0  0.40473  0.62597  0.20193  1.0000
  C   C141      1.0  0.03208  0.82136  0.34214  1.0000
  C   C142      1.0  0.49878  0.82156  0.34221  1.0000
  C   C143      1.0  0.49879  0.85488  0.34192  1.0000
  C   C144      1.0  0.03208  0.88756  0.34211  1.0000
  C   C145      1.0  0.06537  0.88816  0.34199  1.0000
  C   C146      1.0  0.06537  0.85485  0.34232  1.0000
  C   C147      1.0  0.46625  0.78803  0.34269  1.0000
  C   C148      1.0  0.09791  0.85385  0.34275  1.0000
  H   H67       1.0  0.03209  0.91156  0.34273  1.0000
  C   C149      1.0  0.03208  0.78780  0.34214  1.0000
  C   C150      1.0  0.49878  0.75431  0.34221  1.0000
  C   C151      1.0  0.49879  0.72100  0.34192  1.0000
  C   C152      1.0  0.03208  0.72161  0.34210  1.0000
  C   C153      1.0  0.06537  0.75429  0.34199  1.0000
  C   C154      1.0  0.06537  0.78761  0.34232  1.0000
  C   C155      1.0  0.46625  0.75531  0.34270  1.0000
  H   H68       1.0  0.03209  0.69762  0.34273  1.0000
  C   C156      1.0  0.09791  0.82114  0.34275  1.0000
  H   H69       1.0  0.44176  0.73206  0.34288  1.0000
  H   H70       1.0  0.44176  0.78679  0.34289  1.0000
  H   H71       1.0  0.12240  0.82238  0.34287  1.0000
  H   H72       1.0  0.12240  0.87710  0.34287  1.0000
  C   C157      1.0  0.16439  0.75222  0.34394  1.0000
  C   C158      1.0  0.14784  0.75280  0.42605  1.0000
  C   C159      1.0  0.11453  0.75280  0.42606  1.0000
  C   C160      1.0  0.09739  0.75220  0.34395  1.0000
  N   N13       1.0  0.10001  0.75370  0.50695  1.0000
  C   C161      1.0  0.11564  0.75452  0.58698  1.0000
  C   C162      1.0  0.14845  0.75452  0.58698  1.0000
  N   N14       1.0  0.16326  0.75371  0.50694  1.0000
  H   H73       1.0  0.10367  0.75517  0.64588  1.0000
  H   H74       1.0  0.16107  0.75518  0.64588  1.0000
  C   C163      1.0  0.33445  0.98927  0.34394  1.0000
  C   C164      1.0  0.33386  0.97214  0.42604  1.0000
  C   C165      1.0  0.33386  0.93882  0.42604  1.0000
  C   C166      1.0  0.33445  0.92228  0.34394  1.0000
  N   N15       1.0  0.33296  0.92341  0.50694  1.0000
  C   C167      1.0  0.33214  0.93822  0.58698  1.0000
  C   C168      1.0  0.33214  0.97103  0.58698  1.0000
  N   N16       1.0  0.33296  0.98666  0.50694  1.0000
  H   H75       1.0  0.33148  0.92560  0.64587  1.0000
  H   H76       1.0  0.33149  0.98299  0.64587  1.0000
  C   C169      1.0  0.09739  0.92227  0.34396  1.0000
  C   C170      1.0  0.11452  0.93882  0.42606  1.0000
  C   C171      1.0  0.14784  0.97213  0.42606  1.0000
  C   C172      1.0  0.16438  0.98927  0.34395  1.0000
  N   N17       1.0  0.16326  0.98665  0.50695  1.0000
  C   C173      1.0  0.14845  0.97103  0.58699  1.0000
  C   C174      1.0  0.11564  0.93822  0.58699  1.0000
  N   N18       1.0  0.10001  0.92340  0.50696  1.0000
  H   H77       1.0  0.16106  0.98299  0.64588  1.0000
  H   H78       1.0  0.10367  0.92560  0.64589  1.0000
  C   C175      1.0  0.39978  0.85699  0.34383  1.0000
  C   C176      1.0  0.41659  0.85692  0.42595  1.0000
  C   C177      1.0  0.44990  0.85692  0.42594  1.0000
  C   C178      1.0  0.46678  0.85698  0.34382  1.0000
  N   N19       1.0  0.46463  0.85644  0.50687  1.0000
  C   C179      1.0  0.44921  0.85605  0.58692  1.0000
  C   C180      1.0  0.41640  0.85605  0.58692  1.0000
  N   N20       1.0  0.40138  0.85644  0.50687  1.0000
  H   H79       1.0  0.46132  0.85570  0.64584  1.0000
  H   H80       1.0  0.40393  0.85570  0.64584  1.0000
  C   C181      1.0  0.22967  0.61988  0.34383  1.0000
  C   C182      1.0  0.22974  0.63676  0.42595  1.0000
  C   C183      1.0  0.22974  0.67008  0.42595  1.0000
  C   C184      1.0  0.22966  0.68688  0.34383  1.0000
  N   N21       1.0  0.23022  0.68529  0.50687  1.0000
  C   C185      1.0  0.23061  0.67026  0.58692  1.0000
  C   C186      1.0  0.23061  0.63745  0.58692  1.0000
  N   N22       1.0  0.23022  0.62203  0.50687  1.0000
  H   H81       1.0  0.23097  0.68273  0.64584  1.0000
  H   H82       1.0  0.23096  0.62534  0.64584  1.0000
  C   C187      1.0  0.46678  0.68688  0.34384  1.0000
  C   C188      1.0  0.44990  0.67008  0.42596  1.0000
  C   C189      1.0  0.41658  0.63676  0.42596  1.0000
  C   C190      1.0  0.39977  0.61988  0.34385  1.0000
  N   N23       1.0  0.40137  0.62204  0.50689  1.0000
  C   C191      1.0  0.41640  0.63745  0.58694  1.0000
  C   C192      1.0  0.44921  0.67026  0.58694  1.0000
  N   N24       1.0  0.46463  0.68529  0.50688  1.0000
  H   H83       1.0  0.40393  0.62534  0.64586  1.0000
  H   H84       1.0  0.46133  0.68273  0.64584  1.0000
  C   C193      1.0  0.76529  0.28780  0.34213  1.0000
  C   C194      1.0  0.76510  0.25431  0.34220  1.0000
  C   C195      1.0  0.73178  0.22101  0.34192  1.0000
  C   C196      1.0  0.69909  0.22161  0.34211  1.0000
  C   C197      1.0  0.69850  0.25430  0.34198  1.0000
  C   C198      1.0  0.73181  0.28762  0.34231  1.0000
  C   C199      1.0  0.79863  0.25531  0.34268  1.0000
  C   C200      1.0  0.73281  0.32114  0.34273  1.0000
  H   H85       1.0  0.67510  0.19763  0.34273  1.0000
  C   C201      1.0  0.79886  0.32137  0.34213  1.0000
  C   C202      1.0  0.83235  0.32156  0.34220  1.0000
  C   C203      1.0  0.86565  0.35488  0.34193  1.0000
  C   C204      1.0  0.86505  0.38757  0.34211  1.0000
  C   C205      1.0  0.83236  0.38816  0.34197  1.0000
  C   C206      1.0  0.79905  0.35486  0.34231  1.0000
  C   C207      1.0  0.83135  0.28803  0.34268  1.0000
  H   H86       1.0  0.88904  0.41156  0.34273  1.0000
  C   C208      1.0  0.76552  0.35386  0.34274  1.0000
  H   H87       1.0  0.85460  0.28679  0.34288  1.0000
  H   H88       1.0  0.79987  0.23206  0.34288  1.0000
  H   H89       1.0  0.76428  0.37711  0.34285  1.0000
  H   H90       1.0  0.70955  0.32239  0.34285  1.0000
  C   C209      1.0  0.79885  0.05458  0.34212  1.0000
  C   C210      1.0  0.83235  0.08788  0.34220  1.0000
  C   C211      1.0  0.86565  0.08787  0.34194  1.0000
  C   C212      1.0  0.86505  0.05458  0.34211  1.0000
  C   C213      1.0  0.83236  0.02129  0.34196  1.0000
  C   C214      1.0  0.79905  0.02129  0.34230  1.0000
  C   C215      1.0  0.83134  0.12041  0.34268  1.0000
  C   C216      1.0  0.76552  0.48876  0.34273  1.0000
  H   H91       1.0  0.88904  0.05458  0.34273  1.0000
  C   C217      1.0  0.76529  0.05458  0.34212  1.0000
  C   C218      1.0  0.76509  0.08788  0.34219  1.0000
  C   C219      1.0  0.73177  0.08786  0.34194  1.0000
  C   C220      1.0  0.69909  0.05457  0.34211  1.0000
  C   C221      1.0  0.69850  0.02129  0.34197  1.0000
  C   C222      1.0  0.73180  0.02128  0.34230  1.0000
  C   C223      1.0  0.79863  0.12041  0.34268  1.0000
  H   H92       1.0  0.67510  0.05457  0.34273  1.0000
  C   C224      1.0  0.73280  0.48875  0.34274  1.0000
  H   H93       1.0  0.79986  0.14490  0.34287  1.0000
  H   H94       1.0  0.85459  0.14490  0.34288  1.0000
  H   H95       1.0  0.70955  0.46426  0.34285  1.0000
  H   H96       1.0  0.76428  0.46426  0.34284  1.0000
  C   C225      1.0  0.61437  0.25212  0.26242  1.0000
  C   C226      1.0  0.64731  0.25211  0.26241  1.0000
  H   H97       1.0  0.65903  0.25255  0.20200  1.0000
  H   H98       1.0  0.60308  0.25254  0.20200  1.0000
  C   C227      1.0  0.83452  0.43934  0.26241  1.0000
  C   C228      1.0  0.83452  0.47227  0.26241  1.0000
  H   H99       1.0  0.83409  0.48357  0.20199  1.0000
  H   H100      1.0  0.83409  0.42761  0.20200  1.0000
  C   C229      1.0  0.64730  0.47228  0.26242  1.0000
  C   C230      1.0  0.61437  0.43935  0.26242  1.0000
  H   H101      1.0  0.60308  0.42762  0.20201  1.0000
  H   H102      1.0  0.65903  0.48358  0.20200  1.0000
  C   C231      1.0  0.94955  0.35659  0.26231  1.0000
  C   C232      1.0  0.91661  0.35659  0.26231  1.0000
  H   H103      1.0  0.90474  0.35585  0.20192  1.0000
  H   H104      1.0  0.96069  0.35585  0.20191  1.0000
  C   C233      1.0  0.73007  0.17005  0.26232  1.0000
  C   C234      1.0  0.73007  0.13711  0.26231  1.0000
  H   H105      1.0  0.73083  0.12598  0.20192  1.0000
  H   H106      1.0  0.73083  0.18194  0.20192  1.0000
  C   C235      1.0  0.91661  0.13711  0.26232  1.0000
  C   C236      1.0  0.94954  0.17004  0.26232  1.0000
  H   H107      1.0  0.96068  0.18192  0.20192  1.0000
  H   H108      1.0  0.90473  0.12597  0.20193  1.0000
  C   C237      1.0  0.53208  0.32136  0.34214  1.0000
  C   C238      1.0  0.99878  0.32156  0.34221  1.0000
  C   C239      1.0  0.99879  0.35488  0.34192  1.0000
  C   C240      1.0  0.53208  0.38756  0.34211  1.0000
  C   C241      1.0  0.56537  0.38816  0.34199  1.0000
  C   C242      1.0  0.56538  0.35485  0.34232  1.0000
  C   C243      1.0  0.96625  0.28803  0.34269  1.0000
  C   C244      1.0  0.59790  0.35385  0.34275  1.0000
  H   H109      1.0  0.53209  0.41155  0.34273  1.0000
  C   C245      1.0  0.53208  0.28780  0.34214  1.0000
  C   C246      1.0  0.99878  0.25431  0.34221  1.0000
  C   C247      1.0  0.99879  0.22100  0.34192  1.0000
  C   C248      1.0  0.53208  0.22161  0.34210  1.0000
  C   C249      1.0  0.56537  0.25430  0.34199  1.0000
  C   C250      1.0  0.56537  0.28761  0.34232  1.0000
  C   C251      1.0  0.96625  0.25531  0.34270  1.0000
  H   H110      1.0  0.53209  0.19762  0.34273  1.0000
  C   C252      1.0  0.59790  0.32114  0.34275  1.0000
  H   H111      1.0  0.94176  0.23206  0.34288  1.0000
  H   H112      1.0  0.94176  0.28679  0.34289  1.0000
  H   H113      1.0  0.62240  0.32238  0.34287  1.0000
  H   H114      1.0  0.62240  0.37710  0.34287  1.0000
  C   C253      1.0  0.66439  0.25222  0.34394  1.0000
  C   C254      1.0  0.64784  0.25280  0.42605  1.0000
  C   C255      1.0  0.61452  0.25280  0.42606  1.0000
  C   C256      1.0  0.59739  0.25220  0.34395  1.0000
  N   N25       1.0  0.60001  0.25370  0.50695  1.0000
  C   C257      1.0  0.61564  0.25452  0.58698  1.0000
  C   C258      1.0  0.64845  0.25452  0.58698  1.0000
  N   N26       1.0  0.66326  0.25371  0.50694  1.0000
  H   H115      1.0  0.60367  0.25517  0.64588  1.0000
  H   H116      1.0  0.66107  0.25518  0.64588  1.0000
  C   C259      1.0  0.83445  0.48927  0.34394  1.0000
  C   C260      1.0  0.83386  0.47214  0.42604  1.0000
  C   C261      1.0  0.83386  0.43882  0.42604  1.0000
  C   C262      1.0  0.83445  0.42227  0.34394  1.0000
  N   N27       1.0  0.83296  0.42341  0.50694  1.0000
  C   C263      1.0  0.83214  0.43822  0.58698  1.0000
  C   C264      1.0  0.83214  0.47103  0.58698  1.0000
  N   N28       1.0  0.83296  0.48666  0.50694  1.0000
  H   H117      1.0  0.83148  0.42560  0.64587  1.0000
  H   H118      1.0  0.83149  0.48299  0.64587  1.0000
  C   C265      1.0  0.59739  0.42227  0.34396  1.0000
  C   C266      1.0  0.61453  0.43882  0.42606  1.0000
  C   C267      1.0  0.64784  0.47213  0.42606  1.0000
  C   C268      1.0  0.66439  0.48927  0.34395  1.0000
  N   N29       1.0  0.66326  0.48665  0.50695  1.0000
  C   C269      1.0  0.64844  0.47103  0.58699  1.0000
  C   C270      1.0  0.61563  0.43822  0.58699  1.0000
  N   N30       1.0  0.60001  0.42340  0.50696  1.0000
  H   H119      1.0  0.66106  0.48299  0.64588  1.0000
  H   H120      1.0  0.60368  0.42560  0.64589  1.0000
  C   C271      1.0  0.89978  0.35699  0.34383  1.0000
  C   C272      1.0  0.91659  0.35692  0.42595  1.0000
  C   C273      1.0  0.94990  0.35692  0.42594  1.0000
  C   C274      1.0  0.96678  0.35698  0.34382  1.0000
  N   N31       1.0  0.96463  0.35643  0.50687  1.0000
  C   C275      1.0  0.94921  0.35605  0.58692  1.0000
  C   C276      1.0  0.91640  0.35606  0.58692  1.0000
  N   N32       1.0  0.90138  0.35644  0.50687  1.0000
  H   H121      1.0  0.96132  0.35569  0.64584  1.0000
  H   H122      1.0  0.90393  0.35570  0.64584  1.0000
  C   C277      1.0  0.72967  0.11988  0.34383  1.0000
  C   C278      1.0  0.72974  0.13676  0.42595  1.0000
  C   C279      1.0  0.72974  0.17008  0.42595  1.0000
  C   C280      1.0  0.72966  0.18688  0.34383  1.0000
  N   N33       1.0  0.73022  0.18529  0.50687  1.0000
  C   C281      1.0  0.73061  0.17026  0.58692  1.0000
  C   C282      1.0  0.73061  0.13745  0.58692  1.0000
  N   N34       1.0  0.73022  0.12204  0.50687  1.0000
  H   H123      1.0  0.73096  0.18273  0.64584  1.0000
  H   H124      1.0  0.73097  0.12534  0.64584  1.0000
  C   C283      1.0  0.96678  0.18688  0.34384  1.0000
  C   C284      1.0  0.94990  0.17008  0.42596  1.0000
  C   C285      1.0  0.91658  0.13676  0.42596  1.0000
  C   C286      1.0  0.89977  0.11988  0.34385  1.0000
  N   N35       1.0  0.90137  0.12204  0.50689  1.0000
  C   C287      1.0  0.91640  0.13745  0.58694  1.0000
  C   C288      1.0  0.94921  0.17026  0.58694  1.0000
  N   N36       1.0  0.96463  0.18529  0.50688  1.0000
  H   H125      1.0  0.90394  0.12534  0.64586  1.0000
  H   H126      1.0  0.96133  0.18273  0.64584  1.0000
  C   C289      1.0  0.76529  0.78780  0.34213  1.0000
  C   C290      1.0  0.76510  0.75431  0.34220  1.0000
  C   C291      1.0  0.73178  0.72101  0.34192  1.0000
  C   C292      1.0  0.69909  0.72162  0.34211  1.0000
  C   C293      1.0  0.69850  0.75430  0.34198  1.0000
  C   C294      1.0  0.73181  0.78762  0.34231  1.0000
  C   C295      1.0  0.79863  0.75531  0.34268  1.0000
  C   C296      1.0  0.73281  0.82115  0.34273  1.0000
  H   H127      1.0  0.67510  0.69763  0.34273  1.0000
  C   C297      1.0  0.79886  0.82137  0.34213  1.0000
  C   C298      1.0  0.83235  0.82156  0.34220  1.0000
  C   C299      1.0  0.86566  0.85488  0.34193  1.0000
  C   C300      1.0  0.86505  0.88757  0.34211  1.0000
  C   C301      1.0  0.83236  0.88816  0.34197  1.0000
  C   C302      1.0  0.79905  0.85486  0.34231  1.0000
  C   C303      1.0  0.83135  0.78803  0.34268  1.0000
  H   H128      1.0  0.88904  0.91156  0.34273  1.0000
  C   C304      1.0  0.76552  0.85386  0.34274  1.0000
  H   H129      1.0  0.85460  0.78679  0.34288  1.0000
  H   H130      1.0  0.79987  0.73206  0.34288  1.0000
  H   H131      1.0  0.76428  0.87711  0.34285  1.0000
  H   H132      1.0  0.70955  0.82239  0.34285  1.0000
  C   C305      1.0  0.79886  0.55458  0.34212  1.0000
  C   C306      1.0  0.83235  0.58788  0.34220  1.0000
  C   C307      1.0  0.86565  0.58787  0.34194  1.0000
  C   C308      1.0  0.86505  0.55458  0.34211  1.0000
  C   C309      1.0  0.83236  0.52129  0.34196  1.0000
  C   C310      1.0  0.79905  0.52129  0.34230  1.0000
  C   C311      1.0  0.83134  0.62041  0.34268  1.0000
  C   C312      1.0  0.76552  0.98876  0.34273  1.0000
  H   H133      1.0  0.88904  0.55458  0.34273  1.0000
  C   C313      1.0  0.76529  0.55458  0.34212  1.0000
  C   C314      1.0  0.76509  0.58788  0.34219  1.0000
  C   C315      1.0  0.73177  0.58786  0.34194  1.0000
  C   C316      1.0  0.69909  0.55457  0.34211  1.0000
  C   C317      1.0  0.69850  0.52129  0.34197  1.0000
  C   C318      1.0  0.73180  0.52128  0.34230  1.0000
  C   C319      1.0  0.79863  0.62041  0.34268  1.0000
  H   H134      1.0  0.67510  0.55457  0.34273  1.0000
  C   C320      1.0  0.73280  0.98875  0.34274  1.0000
  H   H135      1.0  0.79986  0.64490  0.34287  1.0000
  H   H136      1.0  0.85460  0.64490  0.34288  1.0000
  H   H137      1.0  0.70955  0.96426  0.34285  1.0000
  H   H138      1.0  0.76428  0.96426  0.34284  1.0000
  C   C321      1.0  0.61437  0.75212  0.26242  1.0000
  C   C322      1.0  0.64731  0.75211  0.26241  1.0000
  H   H139      1.0  0.65903  0.75255  0.20200  1.0000
  H   H140      1.0  0.60307  0.75254  0.20200  1.0000
  C   C323      1.0  0.83453  0.93934  0.26241  1.0000
  C   C324      1.0  0.83452  0.97227  0.26241  1.0000
  H   H141      1.0  0.83409  0.98357  0.20199  1.0000
  H   H142      1.0  0.83409  0.92761  0.20200  1.0000
  C   C325      1.0  0.64730  0.97228  0.26242  1.0000
  C   C326      1.0  0.61437  0.93935  0.26242  1.0000
  H   H143      1.0  0.60308  0.92762  0.20201  1.0000
  H   H144      1.0  0.65903  0.98357  0.20200  1.0000
  C   C327      1.0  0.94955  0.85659  0.26231  1.0000
  C   C328      1.0  0.91662  0.85659  0.26231  1.0000
  H   H145      1.0  0.90473  0.85585  0.20192  1.0000
  H   H146      1.0  0.96069  0.85585  0.20191  1.0000
  C   C329      1.0  0.73007  0.67005  0.26232  1.0000
  C   C330      1.0  0.73007  0.63712  0.26231  1.0000
  H   H147      1.0  0.73083  0.62598  0.20192  1.0000
  H   H148      1.0  0.73083  0.68194  0.20192  1.0000
  C   C331      1.0  0.91661  0.63710  0.26232  1.0000
  C   C332      1.0  0.94954  0.67004  0.26232  1.0000
  H   H149      1.0  0.96068  0.68192  0.20192  1.0000
  H   H150      1.0  0.90473  0.62597  0.20193  1.0000
  C   C333      1.0  0.53208  0.82136  0.34214  1.0000
  C   C334      1.0  0.99878  0.82156  0.34221  1.0000
  C   C335      1.0  0.99879  0.85488  0.34192  1.0000
  C   C336      1.0  0.53208  0.88756  0.34211  1.0000
  C   C337      1.0  0.56537  0.88816  0.34199  1.0000
  C   C338      1.0  0.56538  0.85485  0.34232  1.0000
  C   C339      1.0  0.96625  0.78803  0.34269  1.0000
  C   C340      1.0  0.59791  0.85385  0.34275  1.0000
  H   H151      1.0  0.53209  0.91156  0.34273  1.0000
  C   C341      1.0  0.53208  0.78780  0.34214  1.0000
  C   C342      1.0  0.99878  0.75431  0.34221  1.0000
  C   C343      1.0  0.99879  0.72100  0.34192  1.0000
  C   C344      1.0  0.53208  0.72161  0.34210  1.0000
  C   C345      1.0  0.56537  0.75429  0.34199  1.0000
  C   C346      1.0  0.56537  0.78761  0.34232  1.0000
  C   C347      1.0  0.96625  0.75531  0.34270  1.0000
  H   H152      1.0  0.53209  0.69762  0.34273  1.0000
  C   C348      1.0  0.59790  0.82114  0.34275  1.0000
  H   H153      1.0  0.94176  0.73206  0.34288  1.0000
  H   H154      1.0  0.94176  0.78679  0.34289  1.0000
  H   H155      1.0  0.62240  0.82238  0.34287  1.0000
  H   H156      1.0  0.62240  0.87710  0.34287  1.0000
  C   C349      1.0  0.66439  0.75222  0.34394  1.0000
  C   C350      1.0  0.64784  0.75280  0.42605  1.0000
  C   C351      1.0  0.61453  0.75280  0.42606  1.0000
  C   C352      1.0  0.59739  0.75220  0.34395  1.0000
  N   N37       1.0  0.60001  0.75370  0.50695  1.0000
  C   C353      1.0  0.61564  0.75452  0.58698  1.0000
  C   C354      1.0  0.64845  0.75452  0.58698  1.0000
  N   N38       1.0  0.66326  0.75371  0.50694  1.0000
  H   H157      1.0  0.60367  0.75517  0.64588  1.0000
  H   H158      1.0  0.66107  0.75518  0.64588  1.0000
  C   C355      1.0  0.83445  0.98927  0.34394  1.0000
  C   C356      1.0  0.83386  0.97214  0.42604  1.0000
  C   C357      1.0  0.83386  0.93882  0.42604  1.0000
  C   C358      1.0  0.83445  0.92228  0.34394  1.0000
  N   N39       1.0  0.83296  0.92341  0.50694  1.0000
  C   C359      1.0  0.83214  0.93822  0.58698  1.0000
  C   C360      1.0  0.83214  0.97103  0.58698  1.0000
  N   N40       1.0  0.83296  0.98666  0.50694  1.0000
  H   H159      1.0  0.83148  0.92560  0.64587  1.0000
  H   H160      1.0  0.83149  0.98299  0.64587  1.0000
  C   C361      1.0  0.59739  0.92227  0.34396  1.0000
  C   C362      1.0  0.61452  0.93882  0.42606  1.0000
  C   C363      1.0  0.64784  0.97213  0.42606  1.0000
  C   C364      1.0  0.66438  0.98927  0.34395  1.0000
  N   N41       1.0  0.66326  0.98665  0.50695  1.0000
  C   C365      1.0  0.64844  0.97103  0.58699  1.0000
  C   C366      1.0  0.61564  0.93822  0.58699  1.0000
  N   N42       1.0  0.60001  0.92340  0.50696  1.0000
  H   H161      1.0  0.66106  0.98299  0.64588  1.0000
  H   H162      1.0  0.60368  0.92560  0.64589  1.0000
  C   C367      1.0  0.89978  0.85699  0.34383  1.0000
  C   C368      1.0  0.91659  0.85692  0.42595  1.0000
  C   C369      1.0  0.94990  0.85692  0.42594  1.0000
  C   C370      1.0  0.96678  0.85698  0.34382  1.0000
  N   N43       1.0  0.96463  0.85644  0.50687  1.0000
  C   C371      1.0  0.94921  0.85605  0.58692  1.0000
  C   C372      1.0  0.91640  0.85605  0.58692  1.0000
  N   N44       1.0  0.90138  0.85644  0.50687  1.0000
  H   H163      1.0  0.96133  0.85570  0.64584  1.0000
  H   H164      1.0  0.90394  0.85570  0.64584  1.0000
  C   C373      1.0  0.72967  0.61988  0.34383  1.0000
  C   C374      1.0  0.72974  0.63676  0.42595  1.0000
  C   C375      1.0  0.72974  0.67008  0.42595  1.0000
  C   C376      1.0  0.72966  0.68688  0.34383  1.0000
  N   N45       1.0  0.73022  0.68529  0.50687  1.0000
  C   C377      1.0  0.73061  0.67026  0.58692  1.0000
  C   C378      1.0  0.73061  0.63745  0.58692  1.0000
  N   N46       1.0  0.73022  0.62203  0.50687  1.0000
  H   H165      1.0  0.73096  0.68273  0.64584  1.0000
  H   H166      1.0  0.73097  0.62534  0.64584  1.0000
  C   C379      1.0  0.96678  0.68688  0.34384  1.0000
  C   C380      1.0  0.94990  0.67008  0.42596  1.0000
  C   C381      1.0  0.91658  0.63676  0.42596  1.0000
  C   C382      1.0  0.89977  0.61988  0.34385  1.0000
  N   N47       1.0  0.90137  0.62204  0.50689  1.0000
  C   C383      1.0  0.91640  0.63745  0.58694  1.0000
  C   C384      1.0  0.94921  0.67026  0.58694  1.0000
  N   N48       1.0  0.96463  0.68529  0.50688  1.0000
  H   H167      1.0  0.90394  0.62534  0.64586  1.0000
  H   H168      1.0  0.96133  0.68273  0.64584  1.0000
