data_image0
_chemical_formula_structural       C2H2C2H2C2H2C2H2C2H2C2H2C2H2C2H2C2H2C2H2C2H2C2H2C8H3NO2C8H3NO2C8H3NO2C8H3NO2C8H3NO2C8H3NO2C8H3NO2C8H3NO2C8H3NO2C8H3NO2C8H3NO2C8H3NO2C6H3C6H3C6H3C6H3C6H3C6H3C6H3C6H3C6H3C6H3C6H3C6H3C8H3NO2C8H3NO2C8H3NO2C8H3NO2C8H3NO2C8H3NO2C2H2C2H2C2H2C2H2C2H2C2H2C2H2C2H2C2H2C2H2C2H2C2H2C2H2C2H2C2H2C2H2C2H2C2H2C2H2C2H2C2H2C2H2C2H2C2H2
_chemical_formula_sum              "C288 H162 N18 O36"
_cell_length_a       56.9967
_cell_length_b       56.9967
_cell_length_c       14.8225
_cell_angle_alpha    90
_cell_angle_beta     90
_cell_angle_gamma    120

_space_group_name_H-M_alt    "P 1"
_space_group_IT_number       1

loop_
  _space_group_symop_operation_xyz
  'x, y, z'

loop_
  _atom_site_type_symbol
  _atom_site_label
  _atom_site_symmetry_multiplicity
  _atom_site_fract_x
  _atom_site_fract_y
  _atom_site_fract_z
  _atom_site_occupancy
  C   C1        1.0  0.22391  0.42646  0.26682  1.0000
  C   C2        1.0  0.23837  0.45501  0.26748  1.0000
  H   H1        1.0  0.22187  0.41687  0.20659  1.0000
  H   H2        1.0  0.24653  0.46509  0.20832  1.0000
  C   C3        1.0  0.19119  0.33831  0.29141  1.0000
  C   C4        1.0  0.20556  0.36689  0.29201  1.0000
  H   H3        1.0  0.19807  0.32861  0.25037  1.0000
  H   H4        1.0  0.22270  0.37662  0.25351  1.0000
  C   C5        1.0  0.58278  0.79467  0.26824  1.0000
  C   C6        1.0  0.55423  0.78062  0.26862  1.0000
  H   H5        1.0  0.59243  0.80217  0.20806  1.0000
  H   H6        1.0  0.54421  0.77867  0.20930  1.0000
  C   C7        1.0  0.67095  0.84999  0.29356  1.0000
  C   C8        1.0  0.64236  0.83581  0.29380  1.0000
  H   H7        1.0  0.68071  0.86654  0.25244  1.0000
  H   H8        1.0  0.63270  0.84323  0.25504  1.0000
  C   C9        1.0  0.21437  0.78526  0.26630  1.0000
  C   C10       1.0  0.22848  0.77082  0.26702  1.0000
  H   H9        1.0  0.20686  0.78733  0.20602  1.0000
  H   H10       1.0  0.23047  0.76271  0.20784  1.0000
  C   C11       1.0  0.15876  0.81777  0.29075  1.0000
  C   C12       1.0  0.17302  0.80345  0.29139  1.0000
  H   H11       1.0  0.14219  0.81087  0.24962  1.0000
  H   H12       1.0  0.16564  0.78630  0.25293  1.0000
  C   C13       1.0  0.79278  0.57826  0.26371  1.0000
  C   C14       1.0  0.77826  0.54969  0.26441  1.0000
  H   H13       1.0  0.79562  0.58798  0.20325  1.0000
  H   H14       1.0  0.77138  0.53960  0.20449  1.0000
  C   C15       1.0  0.85277  0.66597  0.28095  1.0000
  C   C16       1.0  0.83822  0.63738  0.28080  1.0000
  H   H15       1.0  0.86768  0.67575  0.23383  1.0000
  H   H16       1.0  0.84354  0.62744  0.23493  1.0000
  C   C17       1.0  0.43148  0.21025  0.26489  1.0000
  C   C18       1.0  0.46003  0.22442  0.26535  1.0000
  H   H17       1.0  0.42185  0.20296  0.20453  1.0000
  H   H18       1.0  0.47009  0.22664  0.20592  1.0000
  C   C19       1.0  0.34338  0.15441  0.28948  1.0000
  C   C20       1.0  0.37196  0.16869  0.28993  1.0000
  H   H19       1.0  0.33369  0.13796  0.24793  1.0000
  H   H20       1.0  0.38171  0.16145  0.25077  1.0000
  C   C21       1.0  0.79921  0.21873  0.26793  1.0000
  C   C22       1.0  0.78515  0.23323  0.26868  1.0000
  H   H21       1.0  0.80648  0.21643  0.20751  1.0000
  H   H22       1.0  0.78298  0.24115  0.20936  1.0000
  C   C23       1.0  0.85478  0.18616  0.29193  1.0000
  C   C24       1.0  0.84057  0.20053  0.29253  1.0000
  H   H23       1.0  0.87125  0.19292  0.25043  1.0000
  H   H24       1.0  0.84788  0.21757  0.25359  1.0000
  C   C25       1.0  0.24099  0.16239  0.33858  1.0000
  C   C26       1.0  0.22841  0.16445  0.25869  1.0000
  C   C27       1.0  0.21422  0.17903  0.26013  1.0000
  C   C28       1.0  0.21176  0.19161  0.33935  1.0000
  C   C29       1.0  0.19706  0.20620  0.33972  1.0000
  C   C30       1.0  0.17321  0.19753  0.28776  1.0000
  C   C31       1.0  0.15890  0.21181  0.28801  1.0000
  C   C32       1.0  0.16757  0.23554  0.34045  1.0000
  H   H25       1.0  0.16562  0.18029  0.24975  1.0000
  H   H26       1.0  0.14211  0.20477  0.24792  1.0000
  H   H27       1.0  0.20597  0.18079  0.20103  1.0000
  N   N1        1.0  0.23072  0.15226  0.17845  1.0000
  O   O1        1.0  0.24272  0.16955  0.11758  1.0000
  O   O2        1.0  0.20786  0.13468  0.14956  1.0000
  C   C33       1.0  0.84672  0.07571  0.34068  1.0000
  C   C34       1.0  0.84485  0.06104  0.26107  1.0000
  C   C35       1.0  0.83027  0.03226  0.26266  1.0000
  C   C36       1.0  0.81753  0.01725  0.34178  1.0000
  C   C37       1.0  0.80296  0.98795  0.34233  1.0000
  C   C38       1.0  0.81172  0.97275  0.29098  1.0000
  C   C39       1.0  0.79746  0.94415  0.29144  1.0000
  C   C40       1.0  0.77366  0.92910  0.34354  1.0000
  H   H28       1.0  0.82902  0.98239  0.25326  1.0000
  H   H29       1.0  0.80458  0.93439  0.25180  1.0000
  H   H30       1.0  0.82865  0.02223  0.20373  1.0000
  N   N2        1.0  0.85719  0.07550  0.18092  1.0000
  O   O3        1.0  0.84002  0.07017  0.11959  1.0000
  O   O4        1.0  0.87484  0.07023  0.15274  1.0000
  C   C41       1.0  0.93348  0.76804  0.33675  1.0000
  C   C42       1.0  0.94796  0.77687  0.25427  1.0000
  C   C43       1.0  0.97675  0.79133  0.25537  1.0000
  C   C44       1.0  0.99183  0.79737  0.33661  1.0000
  C   C45       1.0  0.02106  0.81204  0.33663  1.0000
  C   C46       1.0  0.03614  0.83449  0.27884  1.0000
  C   C47       1.0  0.06474  0.84892  0.27943  1.0000
  C   C48       1.0  0.07974  0.84149  0.33727  1.0000
  H   H31       1.0  0.02639  0.84098  0.23647  1.0000
  H   H32       1.0  0.07456  0.86480  0.23568  1.0000
  H   H33       1.0  0.98675  0.79706  0.19501  1.0000
  N   N3        1.0  0.93330  0.77090  0.17232  1.0000
  O   O5        1.0  0.93858  0.75646  0.12167  1.0000
  O   O6        1.0  0.93845  0.79215  0.13069  1.0000
  C   C49       1.0  0.77321  0.84171  0.34366  1.0000
  C   C50       1.0  0.78546  0.83930  0.26350  1.0000
  C   C51       1.0  0.79964  0.82471  0.26502  1.0000
  C   C52       1.0  0.80238  0.81241  0.34454  1.0000
  C   C53       1.0  0.81713  0.79787  0.34488  1.0000
  C   C54       1.0  0.84084  0.80649  0.29226  1.0000
  C   C55       1.0  0.85517  0.79223  0.29201  1.0000
  C   C56       1.0  0.84664  0.76854  0.34454  1.0000
  H   H34       1.0  0.84831  0.82368  0.25401  1.0000
  H   H35       1.0  0.87183  0.79922  0.25131  1.0000
  H   H36       1.0  0.80767  0.82272  0.20576  1.0000
  N   N4        1.0  0.78288  0.85119  0.18297  1.0000
  O   O7        1.0  0.77062  0.83367  0.12295  1.0000
  O   O8        1.0  0.80563  0.86863  0.15294  1.0000
  C   C57       1.0  0.16700  0.92840  0.33604  1.0000
  C   C58       1.0  0.16879  0.94308  0.25655  1.0000
  C   C59       1.0  0.18348  0.97186  0.25805  1.0000
  C   C60       1.0  0.19642  0.98687  0.33699  1.0000
  C   C61       1.0  0.21110  0.01618  0.33746  1.0000
  C   C62       1.0  0.20239  0.03144  0.28619  1.0000
  C   C63       1.0  0.21673  0.06003  0.28657  1.0000
  C   C64       1.0  0.24057  0.07504  0.33856  1.0000
  H   H37       1.0  0.18505  0.02185  0.24858  1.0000
  H   H38       1.0  0.20964  0.06983  0.24695  1.0000
  H   H39       1.0  0.18506  0.98189  0.19916  1.0000
  N   N5        1.0  0.15629  0.92864  0.17654  1.0000
  O   O9        1.0  0.17334  0.93388  0.11488  1.0000
  O   O10       1.0  0.13866  0.93400  0.14881  1.0000
  C   C65       1.0  0.08062  0.23595  0.33931  1.0000
  C   C66       1.0  0.06600  0.22342  0.25937  1.0000
  C   C67       1.0  0.03723  0.20925  0.26073  1.0000
  C   C68       1.0  0.02218  0.20680  0.33993  1.0000
  C   C69       1.0  0.99289  0.19213  0.34024  1.0000
  C   C70       1.0  0.97769  0.16829  0.28830  1.0000
  C   C71       1.0  0.94910  0.15399  0.28855  1.0000
  C   C72       1.0  0.93405  0.16267  0.34101  1.0000
  H   H40       1.0  0.98733  0.16068  0.25031  1.0000
  H   H41       1.0  0.93933  0.13718  0.24854  1.0000
  H   H42       1.0  0.02723  0.20103  0.20160  1.0000
  N   N6        1.0  0.08051  0.22573  0.17915  1.0000
  O   O11       1.0  0.07527  0.23778  0.11833  1.0000
  O   O12       1.0  0.07522  0.20288  0.15017  1.0000
  C   C73       1.0  0.24158  0.68143  0.33257  1.0000
  C   C74       1.0  0.24592  0.66910  0.25600  1.0000
  C   C75       1.0  0.24112  0.64223  0.26227  1.0000
  C   C76       1.0  0.23254  0.62721  0.34366  1.0000
  C   C77       1.0  0.23303  0.60234  0.35345  1.0000
  C   C78       1.0  0.22514  0.58311  0.28256  1.0000
  C   C79       1.0  0.23032  0.56138  0.28648  1.0000
  C   C80       1.0  0.24342  0.55798  0.36211  1.0000
  H   H43       1.0  0.21685  0.58562  0.22472  1.0000
  H   H44       1.0  0.22651  0.54946  0.23057  1.0000
  H   H45       1.0  0.24620  0.63456  0.20809  1.0000
  N   N7        1.0  0.25640  0.68451  0.17601  1.0000
  O   O13       1.0  0.27917  0.68755  0.15574  1.0000
  O   O14       1.0  0.24055  0.67363  0.11066  1.0000
  C   C81       1.0  0.32776  0.55748  0.33277  1.0000
  C   C82       1.0  0.34006  0.57411  0.25613  1.0000
  C   C83       1.0  0.36694  0.59616  0.26239  1.0000
  C   C84       1.0  0.38195  0.60263  0.34383  1.0000
  C   C85       1.0  0.40681  0.62800  0.35365  1.0000
  C   C86       1.0  0.42607  0.63929  0.28287  1.0000
  C   C87       1.0  0.44783  0.66619  0.28683  1.0000
  C   C88       1.0  0.45120  0.68273  0.36231  1.0000
  H   H46       1.0  0.42357  0.62848  0.22506  1.0000
  H   H47       1.0  0.45975  0.67431  0.23094  1.0000
  H   H48       1.0  0.37462  0.60893  0.20825  1.0000
  N   N8        1.0  0.32465  0.56916  0.17614  1.0000
  O   O15       1.0  0.32163  0.58889  0.15580  1.0000
  O   O16       1.0  0.33553  0.56417  0.11082  1.0000
  C   C89       1.0  0.45167  0.76755  0.33279  1.0000
  C   C90       1.0  0.43503  0.76324  0.25617  1.0000
  C   C91       1.0  0.41297  0.76806  0.26231  1.0000
  C   C92       1.0  0.40647  0.77658  0.34371  1.0000
  C   C93       1.0  0.38112  0.77612  0.35339  1.0000
  C   C94       1.0  0.36982  0.78404  0.28248  1.0000
  C   C95       1.0  0.34293  0.77894  0.28639  1.0000
  C   C96       1.0  0.32639  0.76580  0.36187  1.0000
  H   H49       1.0  0.38066  0.79237  0.22474  1.0000
  H   H50       1.0  0.33484  0.78274  0.23043  1.0000
  H   H51       1.0  0.40024  0.76300  0.20810  1.0000
  N   N9        1.0  0.44000  0.75278  0.17621  1.0000
  O   O17       1.0  0.42027  0.73002  0.15583  1.0000
  O   O18       1.0  0.44501  0.76864  0.11089  1.0000
  C   C97       1.0  0.77265  0.32309  0.33543  1.0000
  C   C98       1.0  0.76871  0.33551  0.25838  1.0000
  C   C99       1.0  0.77352  0.36239  0.26452  1.0000
  C   C100      1.0  0.78165  0.37728  0.34626  1.0000
  C   C101      1.0  0.78122  0.40220  0.35555  1.0000
  C   C102      1.0  0.78951  0.42151  0.28483  1.0000
  C   C103      1.0  0.78441  0.44331  0.28805  1.0000
  C   C104      1.0  0.77100  0.44668  0.36280  1.0000
  H   H52       1.0  0.79809  0.41905  0.22763  1.0000
  H   H53       1.0  0.78858  0.45536  0.23228  1.0000
  H   H54       1.0  0.76872  0.37016  0.20992  1.0000
  N   N10       1.0  0.75861  0.32020  0.17803  1.0000
  O   O19       1.0  0.73595  0.31721  0.15640  1.0000
  O   O20       1.0  0.77478  0.33115  0.11350  1.0000
  C   C105      1.0  0.68678  0.44725  0.33033  1.0000
  C   C106      1.0  0.67466  0.43045  0.25388  1.0000
  C   C107      1.0  0.64777  0.40838  0.25967  1.0000
  C   C108      1.0  0.63251  0.40205  0.34051  1.0000
  C   C109      1.0  0.60757  0.37672  0.35002  1.0000
  C   C110      1.0  0.58859  0.36527  0.27851  1.0000
  C   C111      1.0  0.56678  0.33839  0.28249  1.0000
  C   C112      1.0  0.56305  0.32204  0.35883  1.0000
  H   H55       1.0  0.59132  0.37596  0.22024  1.0000
  H   H56       1.0  0.55505  0.33019  0.22624  1.0000
  H   H57       1.0  0.64026  0.39554  0.20565  1.0000
  N   N11       1.0  0.69029  0.43525  0.17449  1.0000
  O   O21       1.0  0.69339  0.41549  0.15530  1.0000
  O   O22       1.0  0.67959  0.44010  0.10833  1.0000
  C   C113      1.0  0.56253  0.23714  0.33177  1.0000
  C   C114      1.0  0.57920  0.24136  0.25529  1.0000
  C   C115      1.0  0.60122  0.23649  0.26190  1.0000
  C   C116      1.0  0.60762  0.22799  0.34355  1.0000
  C   C117      1.0  0.63296  0.22845  0.35370  1.0000
  C   C118      1.0  0.64430  0.22046  0.28312  1.0000
  C   C119      1.0  0.67120  0.22559  0.28737  1.0000
  C   C120      1.0  0.68767  0.23877  0.36295  1.0000
  H   H58       1.0  0.63354  0.21216  0.22524  1.0000
  H   H59       1.0  0.67935  0.22176  0.23161  1.0000
  H   H60       1.0  0.61400  0.24150  0.20784  1.0000
  N   N12       1.0  0.57431  0.25176  0.17503  1.0000
  O   O23       1.0  0.59408  0.27447  0.15451  1.0000
  O   O24       1.0  0.56931  0.23581  0.10996  1.0000
  C   C121      1.0  0.10957  0.25041  0.34160  1.0000
  C   C122      1.0  0.12418  0.23638  0.33989  1.0000
  C   C123      1.0  0.15292  0.25016  0.34090  1.0000
  C   C124      1.0  0.16667  0.27893  0.34251  1.0000
  C   C125      1.0  0.15293  0.29395  0.34382  1.0000
  C   C126      1.0  0.12419  0.27905  0.34398  1.0000
  H   H61       1.0  0.18739  0.28930  0.34263  1.0000
  H   H62       1.0  0.11359  0.28918  0.34264  1.0000
  H   H63       1.0  0.11353  0.21564  0.34020  1.0000
  C   C127      1.0  0.75876  0.85622  0.34572  1.0000
  C   C128      1.0  0.77281  0.88486  0.34379  1.0000
  C   C129      1.0  0.75904  0.89984  0.34420  1.0000
  C   C130      1.0  0.73027  0.88483  0.34539  1.0000
  C   C131      1.0  0.71524  0.85606  0.34682  1.0000
  C   C132      1.0  0.73012  0.84221  0.34758  1.0000
  H   H64       1.0  0.71991  0.89518  0.34505  1.0000
  H   H65       1.0  0.71998  0.82147  0.34632  1.0000
  H   H66       1.0  0.79355  0.89494  0.34431  1.0000
  C   C133      1.0  0.15248  0.89944  0.33827  1.0000
  C   C134      1.0  0.12384  0.88482  0.33557  1.0000
  C   C135      1.0  0.10894  0.85611  0.33785  1.0000
  C   C136      1.0  0.12388  0.84231  0.34109  1.0000
  C   C137      1.0  0.15264  0.85606  0.34252  1.0000
  C   C138      1.0  0.16648  0.88480  0.34201  1.0000
  H   H67       1.0  0.11346  0.82159  0.34226  1.0000
  H   H68       1.0  0.18722  0.89540  0.34109  1.0000
  H   H69       1.0  0.11368  0.89541  0.33466  1.0000
  C   C139      1.0  0.90457  0.75358  0.33951  1.0000
  C   C140      1.0  0.88999  0.76765  0.34128  1.0000
  C   C141      1.0  0.86125  0.75388  0.34383  1.0000
  C   C142      1.0  0.84746  0.72510  0.34493  1.0000
  C   C143      1.0  0.86127  0.71018  0.34270  1.0000
  C   C144      1.0  0.88997  0.72494  0.33973  1.0000
  H   H70       1.0  0.82673  0.71464  0.34377  1.0000
  H   H71       1.0  0.90049  0.71471  0.33911  1.0000
  H   H72       1.0  0.90068  0.78839  0.34241  1.0000
  C   C145      1.0  0.25547  0.14791  0.34078  1.0000
  C   C146      1.0  0.24144  0.11927  0.33871  1.0000
  C   C147      1.0  0.25522  0.10430  0.33935  1.0000
  C   C148      1.0  0.28399  0.11933  0.34093  1.0000
  C   C149      1.0  0.29900  0.14809  0.34268  1.0000
  C   C150      1.0  0.28410  0.16193  0.34318  1.0000
  H   H73       1.0  0.29437  0.10900  0.34070  1.0000
  H   H74       1.0  0.29424  0.18267  0.34216  1.0000
  H   H75       1.0  0.22070  0.10919  0.33912  1.0000
  C   C151      1.0  0.86119  0.10467  0.34279  1.0000
  C   C152      1.0  0.88984  0.11929  0.34077  1.0000
  C   C153      1.0  0.90479  0.14803  0.34161  1.0000
  C   C154      1.0  0.88977  0.16178  0.34325  1.0000
  C   C155      1.0  0.86101  0.14802  0.34487  1.0000
  C   C156      1.0  0.84717  0.11929  0.34528  1.0000
  H   H76       1.0  0.90011  0.18250  0.34320  1.0000
  H   H77       1.0  0.82643  0.10868  0.34424  1.0000
  H   H78       1.0  0.89993  0.10864  0.34110  1.0000
  C   C157      1.0  0.29902  0.54166  0.33884  1.0000
  C   C158      1.0  0.28461  0.55571  0.34757  1.0000
  C   C159      1.0  0.25612  0.54199  0.35503  1.0000
  C   C160      1.0  0.24181  0.51334  0.35314  1.0000
  C   C161      1.0  0.25573  0.49859  0.34575  1.0000
  C   C162      1.0  0.28440  0.51302  0.33877  1.0000
  H   H79       1.0  0.22112  0.50317  0.35841  1.0000
  H   H80       1.0  0.29473  0.50266  0.33383  1.0000
  H   H81       1.0  0.29516  0.57651  0.34804  1.0000
  C   C163      1.0  0.46749  0.75464  0.33909  1.0000
  C   C164      1.0  0.45345  0.72619  0.34767  1.0000
  C   C165      1.0  0.46718  0.71143  0.35536  1.0000
  C   C166      1.0  0.49583  0.72578  0.35377  1.0000
  C   C167      1.0  0.51058  0.75445  0.34649  1.0000
  C   C168      1.0  0.49613  0.76867  0.33934  1.0000
  H   H82       1.0  0.50600  0.71527  0.35918  1.0000
  H   H83       1.0  0.50649  0.78937  0.33448  1.0000
  H   H84       1.0  0.43265  0.71592  0.34790  1.0000
  C   C169      1.0  0.25448  0.71016  0.33863  1.0000
  C   C170      1.0  0.28293  0.72459  0.34736  1.0000
  C   C171      1.0  0.29769  0.75308  0.35485  1.0000
  C   C172      1.0  0.28333  0.76738  0.35289  1.0000
  C   C173      1.0  0.25466  0.75344  0.34546  1.0000
  C   C174      1.0  0.24045  0.72477  0.33852  1.0000
  H   H85       1.0  0.29383  0.78806  0.35812  1.0000
  H   H86       1.0  0.21975  0.71442  0.33356  1.0000
  H   H87       1.0  0.29320  0.71405  0.34784  1.0000
  C   C175      1.0  0.71551  0.46309  0.33722  1.0000
  C   C176      1.0  0.72989  0.44905  0.34678  1.0000
  C   C177      1.0  0.75837  0.46274  0.35486  1.0000
  C   C178      1.0  0.77271  0.49139  0.35244  1.0000
  C   C179      1.0  0.75882  0.50615  0.34425  1.0000
  C   C180      1.0  0.73016  0.49174  0.33699  1.0000
  H   H88       1.0  0.79338  0.50156  0.35824  1.0000
  H   H89       1.0  0.71986  0.50212  0.33140  1.0000
  H   H90       1.0  0.71932  0.42825  0.34742  1.0000
  C   C181      1.0  0.54671  0.25008  0.33727  1.0000
  C   C182      1.0  0.56075  0.27855  0.34535  1.0000
  C   C183      1.0  0.54703  0.29333  0.35224  1.0000
  C   C184      1.0  0.51837  0.27897  0.35047  1.0000
  C   C185      1.0  0.50363  0.25029  0.34375  1.0000
  C   C186      1.0  0.51808  0.23605  0.33739  1.0000
  H   H91       1.0  0.50819  0.28949  0.35543  1.0000
  H   H92       1.0  0.50772  0.21534  0.33294  1.0000
  H   H93       1.0  0.58156  0.28881  0.34580  1.0000
  C   C187      1.0  0.75968  0.29434  0.34128  1.0000
  C   C188      1.0  0.73121  0.27996  0.34946  1.0000
  C   C189      1.0  0.71638  0.25145  0.35641  1.0000
  C   C190      1.0  0.73068  0.23710  0.35437  1.0000
  C   C191      1.0  0.75936  0.25099  0.34741  1.0000
  C   C192      1.0  0.77365  0.27967  0.34105  1.0000
  H   H94       1.0  0.72014  0.21641  0.35926  1.0000
  H   H95       1.0  0.79435  0.28998  0.33637  1.0000
  H   H96       1.0  0.72099  0.29054  0.34984  1.0000
  C   C193      1.0  0.24115  0.46965  0.34752  1.0000
  C   C194      1.0  0.22930  0.45495  0.42796  1.0000
  C   C195      1.0  0.21503  0.42617  0.42615  1.0000
  C   C196      1.0  0.21185  0.41123  0.34609  1.0000
  C   C197      1.0  0.19711  0.38196  0.34545  1.0000
  C   C198      1.0  0.17347  0.36680  0.39828  1.0000
  C   C199      1.0  0.15909  0.33821  0.39773  1.0000
  C   C200      1.0  0.16758  0.32319  0.34435  1.0000
  H   H97       1.0  0.16606  0.37648  0.43707  1.0000
  H   H98       1.0  0.14241  0.32843  0.43830  1.0000
  H   H99       1.0  0.20728  0.41609  0.48552  1.0000
  N   N13       1.0  0.23247  0.46935  0.50913  1.0000
  O   O25       1.0  0.24508  0.46398  0.56749  1.0000
  O   O26       1.0  0.20995  0.46408  0.54124  1.0000
  C   C201      1.0  0.53951  0.76882  0.34856  1.0000
  C   C202      1.0  0.55414  0.77169  0.42922  1.0000
  C   C203      1.0  0.58291  0.78615  0.42769  1.0000
  C   C204      1.0  0.59794  0.79785  0.34771  1.0000
  C   C205      1.0  0.62721  0.81234  0.34736  1.0000
  C   C206      1.0  0.64229  0.80384  0.40059  1.0000
  C   C207      1.0  0.67088  0.81802  0.40036  1.0000
  C   C208      1.0  0.68599  0.84150  0.34691  1.0000
  H   H100      1.0  0.63255  0.78679  0.43949  1.0000
  H   H101      1.0  0.68060  0.81112  0.44125  1.0000
  H   H102      1.0  0.59294  0.78850  0.48720  1.0000
  N   N14       1.0  0.53966  0.76050  0.51028  1.0000
  O   O27       1.0  0.54500  0.77851  0.56850  1.0000
  O   O28       1.0  0.54487  0.74324  0.54271  1.0000
  C   C209      1.0  0.24028  0.76800  0.34715  1.0000
  C   C210      1.0  0.23733  0.77978  0.42760  1.0000
  C   C211      1.0  0.22282  0.79404  0.42572  1.0000
  C   C212      1.0  0.21111  0.79725  0.34557  1.0000
  C   C213      1.0  0.19653  0.81194  0.34488  1.0000
  C   C214      1.0  0.20498  0.83560  0.39764  1.0000
  C   C215      1.0  0.19073  0.84994  0.39697  1.0000
  C   C216      1.0  0.16721  0.84140  0.34356  1.0000
  H   H103      1.0  0.22205  0.84303  0.43649  1.0000
  H   H104      1.0  0.19761  0.86664  0.43741  1.0000
  H   H105      1.0  0.22041  0.80174  0.48509  1.0000
  N   N15       1.0  0.24849  0.77656  0.50887  1.0000
  O   O29       1.0  0.23044  0.76388  0.56698  1.0000
  O   O30       1.0  0.26569  0.79905  0.54126  1.0000
  C   C217      1.0  0.77341  0.53508  0.34587  1.0000
  C   C218      1.0  0.78322  0.54978  0.42764  1.0000
  C   C219      1.0  0.79747  0.57856  0.42586  1.0000
  C   C220      1.0  0.80263  0.59337  0.34443  1.0000
  C   C221      1.0  0.81723  0.62252  0.34383  1.0000
  C   C222      1.0  0.81130  0.63763  0.40642  1.0000
  C   C223      1.0  0.82551  0.66622  0.40553  1.0000
  C   C224      1.0  0.84665  0.68105  0.34304  1.0000
  H   H106      1.0  0.79610  0.62788  0.45263  1.0000
  H   H107      1.0  0.82051  0.67618  0.45238  1.0000
  H   H108      1.0  0.80459  0.58878  0.48543  1.0000
  N   N16       1.0  0.77828  0.53536  0.50976  1.0000
  O   O31       1.0  0.80003  0.54067  0.54827  1.0000
  O   O32       1.0  0.76440  0.54069  0.56292  1.0000
  C   C225      1.0  0.47470  0.23590  0.34564  1.0000
  C   C226      1.0  0.46002  0.23259  0.42651  1.0000
  C   C227      1.0  0.43125  0.21805  0.42486  1.0000
  C   C228      1.0  0.41628  0.20665  0.34457  1.0000
  C   C229      1.0  0.38701  0.19205  0.34410  1.0000
  C   C230      1.0  0.37183  0.20031  0.39779  1.0000
  C   C231      1.0  0.34324  0.18606  0.39731  1.0000
  C   C232      1.0  0.32823  0.16270  0.34320  1.0000
  H   H109      1.0  0.38150  0.21727  0.43716  1.0000
  H   H110      1.0  0.33344  0.19280  0.43843  1.0000
  H   H111      1.0  0.42118  0.21540  0.48446  1.0000
  N   N17       1.0  0.47447  0.24346  0.50787  1.0000
  O   O33       1.0  0.46918  0.22519  0.56504  1.0000
  O   O34       1.0  0.46916  0.26050  0.54157  1.0000
  C   C233      1.0  0.77368  0.23637  0.34905  1.0000
  C   C234      1.0  0.77688  0.22485  0.42972  1.0000
  C   C235      1.0  0.79131  0.21052  0.42781  1.0000
  C   C236      1.0  0.80271  0.20699  0.34742  1.0000
  C   C237      1.0  0.81721  0.19223  0.34669  1.0000
  C   C238      1.0  0.80886  0.16872  0.40013  1.0000
  C   C239      1.0  0.82306  0.15433  0.39948  1.0000
  C   C240      1.0  0.84643  0.16268  0.34544  1.0000
  H   H112      1.0  0.79190  0.16144  0.43948  1.0000
  H   H113      1.0  0.81627  0.13775  0.44046  1.0000
  H   H114      1.0  0.79390  0.20300  0.48729  1.0000
  N   N18       1.0  0.76601  0.22838  0.51117  1.0000
  O   O35       1.0  0.78426  0.24122  0.56852  1.0000
  O   O36       1.0  0.74888  0.20601  0.54453  1.0000
  C   C241      1.0  0.22450  0.18916  0.41812  1.0000
  C   C242      1.0  0.23894  0.17504  0.41775  1.0000
  H   H115      1.0  0.22298  0.19726  0.47789  1.0000
  H   H116      1.0  0.24758  0.17367  0.47658  1.0000
  C   C243      1.0  0.19136  0.24419  0.39254  1.0000
  C   C244      1.0  0.20571  0.22995  0.39208  1.0000
  H   H117      1.0  0.19839  0.26090  0.43301  1.0000
  H   H118      1.0  0.22299  0.23754  0.42987  1.0000
  C   C245      1.0  0.81980  0.03248  0.42026  1.0000
  C   C246      1.0  0.83390  0.06103  0.41974  1.0000
  H   H119      1.0  0.81158  0.02288  0.47997  1.0000
  H   H120      1.0  0.83513  0.07108  0.47839  1.0000
  C   C247      1.0  0.76491  0.94428  0.39507  1.0000
  C   C248      1.0  0.77912  0.97286  0.39434  1.0000
  H   H121      1.0  0.74813  0.93462  0.43524  1.0000
  H   H122      1.0  0.77145  0.98257  0.43167  1.0000
  C   C249      1.0  0.97683  0.78828  0.41790  1.0000
  C   C250      1.0  0.94828  0.77392  0.41811  1.0000
  H   H123      1.0  0.98662  0.79249  0.47868  1.0000
  H   H124      1.0  0.93833  0.76792  0.47859  1.0000
  C   C251      1.0  0.06468  0.81898  0.39478  1.0000
  C   C252      1.0  0.03610  0.80468  0.39464  1.0000
  H   H125      1.0  0.07444  0.81295  0.43889  1.0000
  H   H126      1.0  0.02633  0.78841  0.43690  1.0000
  C   C253      1.0  0.78991  0.81515  0.42352  1.0000
  C   C254      1.0  0.77551  0.82932  0.42312  1.0000
  H   H127      1.0  0.79162  0.80724  0.48344  1.0000
  H   H128      1.0  0.76708  0.83092  0.48211  1.0000
  C   C255      1.0  0.82300  0.75994  0.39741  1.0000
  C   C256      1.0  0.80866  0.77420  0.39757  1.0000
  H   H129      1.0  0.81605  0.74321  0.43778  1.0000
  H   H130      1.0  0.79147  0.76666  0.43586  1.0000
  C   C257      1.0  0.19421  0.97164  0.41537  1.0000
  C   C258      1.0  0.18002  0.94308  0.41490  1.0000
  H   H131      1.0  0.20256  0.98122  0.47499  1.0000
  H   H132      1.0  0.17884  0.93303  0.47349  1.0000
  C   C259      1.0  0.24927  0.05981  0.38997  1.0000
  C   C260      1.0  0.23498  0.03122  0.38930  1.0000
  H   H133      1.0  0.26606  0.06943  0.43011  1.0000
  H   H134      1.0  0.24262  0.02148  0.42660  1.0000
  C   C261      1.0  0.03735  0.21949  0.41875  1.0000
  C   C262      1.0  0.06591  0.23389  0.41846  1.0000
  H   H135      1.0  0.02772  0.21797  0.47850  1.0000
  H   H136      1.0  0.07592  0.24252  0.47732  1.0000
  C   C263      1.0  0.94921  0.18647  0.39309  1.0000
  C   C264      1.0  0.97780  0.20080  0.39258  1.0000
  H   H137      1.0  0.93954  0.19352  0.43353  1.0000
  H   H138      1.0  0.98751  0.21809  0.43035  1.0000
  C   C265      1.0  0.22705  0.63945  0.41767  1.0000
  C   C266      1.0  0.23161  0.66609  0.41253  1.0000
  H   H139      1.0  0.22107  0.62960  0.47825  1.0000
  H   H140      1.0  0.22970  0.67494  0.47008  1.0000
  C   C267      1.0  0.25008  0.57622  0.43502  1.0000
  C   C268      1.0  0.24493  0.59790  0.43080  1.0000
  H   H141      1.0  0.26077  0.57518  0.48889  1.0000
  H   H142      1.0  0.25217  0.61176  0.48212  1.0000
  C   C269      1.0  0.36969  0.58491  0.41790  1.0000
  C   C270      1.0  0.34307  0.56282  0.41277  1.0000
  H   H143      1.0  0.37953  0.58884  0.47852  1.0000
  H   H144      1.0  0.33420  0.55213  0.47042  1.0000
  C   C271      1.0  0.43292  0.67117  0.43517  1.0000
  C   C272      1.0  0.41124  0.64433  0.43101  1.0000
  H   H145      1.0  0.43393  0.68293  0.48890  1.0000
  H   H146      1.0  0.39734  0.63779  0.48216  1.0000
  C   C273      1.0  0.42416  0.78202  0.41784  1.0000
  C   C274      1.0  0.44626  0.77750  0.41276  1.0000
  H   H147      1.0  0.42024  0.78795  0.47843  1.0000
  H   H148      1.0  0.45693  0.77931  0.47046  1.0000
  C   C275      1.0  0.33794  0.75913  0.43485  1.0000
  C   C276      1.0  0.36476  0.76424  0.43072  1.0000
  H   H149      1.0  0.32616  0.74833  0.48850  1.0000
  H   H150      1.0  0.37129  0.75688  0.48192  1.0000
  C   C277      1.0  0.78671  0.36490  0.42087  1.0000
  C   C278      1.0  0.78215  0.33826  0.41590  1.0000
  H   H151      1.0  0.79238  0.37466  0.48167  1.0000
  H   H152      1.0  0.78373  0.32931  0.47371  1.0000
  C   C279      1.0  0.76394  0.42835  0.43563  1.0000
  C   C280      1.0  0.76904  0.40662  0.43218  1.0000
  H   H153      1.0  0.75301  0.42937  0.48883  1.0000
  H   H154      1.0  0.76143  0.39267  0.48314  1.0000
  C   C281      1.0  0.64455  0.41991  0.41438  1.0000
  C   C282      1.0  0.67120  0.44198  0.40971  1.0000
  H   H155      1.0  0.63452  0.41612  0.47459  1.0000
  H   H156      1.0  0.67988  0.45283  0.46725  1.0000
  C   C283      1.0  0.58106  0.33372  0.43224  1.0000
  C   C284      1.0  0.60281  0.36051  0.42796  1.0000
  H   H157      1.0  0.57980  0.32207  0.48666  1.0000
  H   H158      1.0  0.61649  0.36719  0.47983  1.0000
  C   C285      1.0  0.58986  0.22261  0.41744  1.0000
  C   C286      1.0  0.56781  0.22719  0.41195  1.0000
  H   H159      1.0  0.59373  0.21671  0.47820  1.0000
  H   H160      1.0  0.55709  0.22543  0.46947  1.0000
  C   C287      1.0  0.67606  0.24549  0.43565  1.0000
  C   C288      1.0  0.64923  0.24035  0.43119  1.0000
  H   H161      1.0  0.68778  0.25623  0.48948  1.0000
  H   H162      1.0  0.64266  0.24771  0.48222  1.0000
