data_image0
_chemical_formula_structural       C4H2C4H2C2H2C2H2C2H2C2H2C2H2C2H2C4H2C4H2C2H2C2H2C4H2C4H2C2H2C2H2C2H2C2H2C4H2C4H2C2H2C2H2C4H2C4H2C2H2C2H2C2H2C2H2C4H2C4H2CNCNCNCNCNCNCNCNCNCNCNCNCNCNCNCNCNCNCNCNCNCNCNCNCNCNCNCNCNCNCNCNCNCNCNCNCNCNCNCNCNCNCNCNCNCNCNCNCNCNCNCNCNCNCNCNCNCNCNCNC2H2C2H2C4H2C4H2C4H2C4H2C4H2C4H2C2H2C2H2C4H2C4H2C2H2C2H2C4H2C4H2C4H2C4H2C2H2C2H2C4H2C4H2C2H2C2H2C4H2C4H2C4H2C4H2C2H2C2H2C4H2C4H2C2H2C2H2C2H2C2H2C2H2C2H2C4H2C4H2C2H2C2H2C4H2C4H2C2H2C2H2C2H2C2H2C4H2C4H2C2H2C2H2C4H2C4H2C2H2C2H2C2H2C2H2C4H2C4H2CNCNCNCNCNCNCNCNCNCNCNCNCNCNCNCNCNCNCNCNCNCNCNCNCNCNCNCNCNCNCNCNCNCNCNCNCNCNCNCNCNCNCNCNCNCNCNCNCNCNCNCNCNCNCNCNCNCNCNCNC2H2C2H2C4H2C4H2C4H2C4H2C4H2C4H2C2H2C2H2C4H2C4H2C2H2C2H2C4H2C4H2C4H2C4H2C2H2C2H2C4H2C4H2C2H2C2H2C4H2C4H2C4H2C4H2C2H2C2H2
_chemical_formula_sum              "C480 H240 N120"
_cell_length_a       84.3143
_cell_length_b       44.4124
_cell_length_c       14.9207
_cell_angle_alpha    90
_cell_angle_beta     90
_cell_angle_gamma    90

_space_group_name_H-M_alt    "P 1"
_space_group_IT_number       1

loop_
  _space_group_symop_operation_xyz
  'x, y, z'

loop_
  _atom_site_type_symbol
  _atom_site_label
  _atom_site_symmetry_multiplicity
  _atom_site_fract_x
  _atom_site_fract_y
  _atom_site_fract_z
  _atom_site_occupancy
  C   C1        1.0  0.24138  0.11270  0.26925  1.0000
  C   C2        1.0  0.25768  0.10736  0.25656  1.0000
  C   C3        1.0  0.26925  0.11935  0.31590  1.0000
  C   C4        1.0  0.23611  0.12987  0.34290  1.0000
  H   H1        1.0  0.26108  0.09472  0.20250  1.0000
  H   H2        1.0  0.23349  0.10513  0.22218  1.0000
  C   C5        1.0  0.76437  0.39372  0.28235  1.0000
  C   C6        1.0  0.74825  0.39979  0.26586  1.0000
  C   C7        1.0  0.73594  0.38505  0.31415  1.0000
  C   C8        1.0  0.76875  0.37253  0.34801  1.0000
  H   H3        1.0  0.74556  0.41545  0.21787  1.0000
  H   H4        1.0  0.77281  0.40405  0.24374  1.0000
  C   C9        1.0  0.74858  0.10756  0.27914  1.0000
  C   C10       1.0  0.76480  0.11318  0.29367  1.0000
  H   H5        1.0  0.74560  0.09290  0.22894  1.0000
  H   H6        1.0  0.77299  0.10362  0.25175  1.0000
  C   C11       1.0  0.25667  0.40342  0.28560  1.0000
  C   C12       1.0  0.24058  0.39622  0.29902  1.0000
  H   H7        1.0  0.25926  0.41983  0.23974  1.0000
  H   H8        1.0  0.23215  0.40666  0.26063  1.0000
  C   C13       1.0  0.29152  0.01892  0.23697  1.0000
  C   C14       1.0  0.29155  0.48738  0.23854  1.0000
  H   H9        1.0  0.28290  0.02972  0.20093  1.0000
  H   H10       1.0  0.28293  0.47611  0.20374  1.0000
  C   C15       1.0  0.71818  0.48850  0.26900  1.0000
  C   C16       1.0  0.71808  0.01996  0.26987  1.0000
  H   H11       1.0  0.72839  0.47781  0.24988  1.0000
  H   H12       1.0  0.72828  0.03091  0.25203  1.0000
  C   C17       1.0  0.81401  0.26908  0.34134  1.0000
  C   C18       1.0  0.81411  0.23752  0.34250  1.0000
  H   H13       1.0  0.82432  0.28009  0.32597  1.0000
  H   H14       1.0  0.82450  0.22665  0.32802  1.0000
  C   C19       1.0  0.19241  0.23608  0.32555  1.0000
  C   C20       1.0  0.19238  0.26761  0.32848  1.0000
  H   H15       1.0  0.18183  0.22530  0.31566  1.0000
  H   H16       1.0  0.18179  0.27852  0.32056  1.0000
  C   C21       1.0  0.34846  0.16342  0.31594  1.0000
  C   C22       1.0  0.33238  0.15443  0.31700  1.0000
  C   C23       1.0  0.32781  0.12728  0.35899  1.0000
  C   C24       1.0  0.36046  0.14539  0.35560  1.0000
  H   H17       1.0  0.32435  0.16640  0.27995  1.0000
  H   H18       1.0  0.35144  0.18216  0.27981  1.0000
  C   C25       1.0  0.64787  0.38683  0.27218  1.0000
  C   C26       1.0  0.66370  0.39579  0.26263  1.0000
  C   C27       1.0  0.67631  0.38013  0.30532  1.0000
  C   C28       1.0  0.64385  0.36117  0.32303  1.0000
  H   H19       1.0  0.66580  0.41486  0.22597  1.0000
  H   H20       1.0  0.63930  0.39957  0.24172  1.0000
  C   C29       1.0  0.67269  0.15385  0.32959  1.0000
  C   C30       1.0  0.65652  0.16224  0.32863  1.0000
  H   H21       1.0  0.68071  0.16685  0.29570  1.0000
  H   H22       1.0  0.65337  0.18159  0.29592  1.0000
  C   C31       1.0  0.33217  0.35249  0.32689  1.0000
  C   C32       1.0  0.34819  0.34314  0.32602  1.0000
  H   H23       1.0  0.32403  0.34041  0.29096  1.0000
  H   H24       1.0  0.35105  0.32414  0.29081  1.0000
  C   C33       1.0  0.84866  0.41114  0.30035  1.0000
  C   C34       1.0  0.83257  0.40248  0.30811  1.0000
  C   C35       1.0  0.82821  0.37733  0.36069  1.0000
  C   C36       1.0  0.86088  0.39470  0.34377  1.0000
  H   H25       1.0  0.82422  0.41340  0.27039  1.0000
  H   H26       1.0  0.85145  0.42854  0.25830  1.0000
  C   C37       1.0  0.15649  0.09267  0.30760  1.0000
  C   C38       1.0  0.17256  0.10166  0.31234  1.0000
  C   C39       1.0  0.17680  0.12940  0.35205  1.0000
  C   C40       1.0  0.14416  0.11112  0.34197  1.0000
  H   H27       1.0  0.18100  0.08867  0.28186  1.0000
  H   H28       1.0  0.15383  0.07307  0.27487  1.0000
  C   C41       1.0  0.17287  0.40236  0.32621  1.0000
  C   C42       1.0  0.15685  0.41161  0.32038  1.0000
  H   H29       1.0  0.18145  0.41541  0.29721  1.0000
  H   H30       1.0  0.15436  0.43142  0.28839  1.0000
  C   C43       1.0  0.83293  0.10261  0.32062  1.0000
  C   C44       1.0  0.84891  0.09321  0.31293  1.0000
  H   H31       1.0  0.82431  0.09062  0.28822  1.0000
  H   H32       1.0  0.85135  0.07438  0.27592  1.0000
  C   C45       1.0  0.09639  0.17318  0.35637  1.0000
  C   C46       1.0  0.08695  0.19920  0.35742  1.0000
  H   H33       1.0  0.10833  0.17651  0.36329  1.0000
  H   H34       1.0  0.09266  0.21936  0.36532  1.0000
  C   C47       1.0  0.90853  0.33149  0.35903  1.0000
  C   C48       1.0  0.91800  0.30547  0.36029  1.0000
  H   H35       1.0  0.89659  0.32821  0.36610  1.0000
  H   H36       1.0  0.91234  0.28530  0.36870  1.0000
  C   C49       1.0  0.94168  0.16871  0.33836  1.0000
  C   C50       1.0  0.93217  0.14228  0.33641  1.0000
  C   C51       1.0  0.91545  0.14351  0.34643  1.0000
  C   C52       1.0  0.93497  0.19787  0.34904  1.0000
  H   H37       1.0  0.93760  0.12198  0.32606  1.0000
  H   H38       1.0  0.95364  0.16646  0.32936  1.0000
  C   C53       1.0  0.06380  0.33605  0.34174  1.0000
  C   C54       1.0  0.07344  0.36231  0.34064  1.0000
  C   C55       1.0  0.09016  0.36072  0.35009  1.0000
  C   C56       1.0  0.07037  0.30673  0.35100  1.0000
  H   H39       1.0  0.06810  0.38275  0.33139  1.0000
  H   H40       1.0  0.05183  0.33855  0.33326  1.0000
  C   C57       1.0  0.59608  0.42308  0.31818  1.0000
  C   C58       1.0  0.58661  0.44906  0.31891  1.0000
  H   H41       1.0  0.60801  0.42653  0.31158  1.0000
  H   H42       1.0  0.59230  0.46927  0.31217  1.0000
  C   C59       1.0  0.40823  0.08210  0.36343  1.0000
  C   C60       1.0  0.41769  0.05609  0.36289  1.0000
  H   H43       1.0  0.39631  0.07877  0.37115  1.0000
  H   H44       1.0  0.41202  0.03590  0.37079  1.0000
  C   C61       1.0  0.44083  0.41935  0.34634  1.0000
  C   C62       1.0  0.43118  0.39310  0.34666  1.0000
  C   C63       1.0  0.41448  0.39471  0.35780  1.0000
  C   C64       1.0  0.43429  0.44869  0.35553  1.0000
  H   H45       1.0  0.43649  0.37264  0.33744  1.0000
  H   H46       1.0  0.45277  0.41681  0.33688  1.0000
  C   C65       1.0  0.56396  0.08573  0.33664  1.0000
  C   C66       1.0  0.57376  0.11177  0.33979  1.0000
  C   C67       1.0  0.59055  0.10972  0.33849  1.0000
  C   C68       1.0  0.57041  0.05620  0.33169  1.0000
  H   H47       1.0  0.56845  0.13240  0.34488  1.0000
  H   H48       1.0  0.55193  0.08858  0.33927  1.0000
  C   C69       1.0  0.11830  0.01768  0.26579  1.0000
  C   C70       1.0  0.11838  0.48628  0.26749  1.0000
  H   H49       1.0  0.12839  0.02780  0.24250  1.0000
  H   H50       1.0  0.12853  0.47603  0.24532  1.0000
  C   C71       1.0  0.88744  0.48667  0.25767  1.0000
  C   C72       1.0  0.88750  0.01808  0.25861  1.0000
  H   H51       1.0  0.87736  0.47660  0.23380  1.0000
  H   H52       1.0  0.87748  0.02846  0.23522  1.0000
  C   C73       1.0  0.59150  0.26776  0.34899  1.0000
  C   C74       1.0  0.59168  0.23562  0.34959  1.0000
  H   H53       1.0  0.58175  0.27858  0.32397  1.0000
  H   H54       1.0  0.58200  0.22432  0.32564  1.0000
  C   C75       1.0  0.38656  0.23770  0.27448  1.0000
  C   C76       1.0  0.38649  0.26910  0.27616  1.0000
  H   H55       1.0  0.37644  0.22757  0.25152  1.0000
  H   H56       1.0  0.37633  0.27936  0.25431  1.0000
  C   C77       1.0  0.99417  0.22569  0.32720  1.0000
  C   C78       1.0  0.01090  0.22565  0.32722  1.0000
  C   C79       1.0  0.01972  0.25262  0.33690  1.0000
  C   C80       1.0  0.98537  0.25269  0.33683  1.0000
  H   H57       1.0  0.01656  0.20542  0.32044  1.0000
  H   H58       1.0  0.98849  0.20547  0.32041  1.0000
  C   C81       1.0  0.49385  0.02980  0.33205  1.0000
  C   C82       1.0  0.51059  0.02969  0.33084  1.0000
  C   C83       1.0  0.51938  0.00256  0.33678  1.0000
  C   C84       1.0  0.48499  0.00279  0.33927  1.0000
  H   H59       1.0  0.51629  0.04994  0.32527  1.0000
  H   H60       1.0  0.48821  0.05013  0.32759  1.0000
  C   C85       1.0  0.31307  0.11322  0.33906  1.0000
  N   N1        1.0  0.29839  0.12639  0.33503  1.0000
  C   C86       1.0  0.28529  0.10992  0.31077  1.0000
  N   N2        1.0  0.28723  0.08024  0.29327  1.0000
  C   C87       1.0  0.30151  0.06667  0.29587  1.0000
  N   N3        1.0  0.31411  0.08352  0.31947  1.0000
  C   C88       1.0  0.69176  0.39339  0.30655  1.0000
  N   N4        1.0  0.70623  0.37922  0.31206  1.0000
  C   C89       1.0  0.72008  0.39554  0.30806  1.0000
  N   N5        1.0  0.71898  0.42583  0.30289  1.0000
  C   C90       1.0  0.70509  0.44059  0.29987  1.0000
  N   N6        1.0  0.69181  0.42387  0.30200  1.0000
  C   C91       1.0  0.69257  0.11334  0.35011  1.0000
  N   N7        1.0  0.70708  0.12736  0.34854  1.0000
  C   C92       1.0  0.72057  0.11161  0.32671  1.0000
  N   N8        1.0  0.71903  0.08192  0.30914  1.0000
  C   C93       1.0  0.70505  0.06736  0.30904  1.0000
  N   N9        1.0  0.69211  0.08360  0.33009  1.0000
  C   C94       1.0  0.31307  0.39413  0.34796  1.0000
  N   N10       1.0  0.29829  0.38127  0.34755  1.0000
  C   C95       1.0  0.28509  0.39777  0.32497  1.0000
  N   N11       1.0  0.28719  0.42717  0.30420  1.0000
  C   C96       1.0  0.30156  0.44042  0.30266  1.0000
  N   N12       1.0  0.31420  0.42361  0.32570  1.0000
  C   C97       1.0  0.81285  0.36398  0.35702  1.0000
  N   N13       1.0  0.79843  0.37828  0.35206  1.0000
  C   C98       1.0  0.78459  0.36195  0.35351  1.0000
  N   N14       1.0  0.78568  0.33164  0.35521  1.0000
  C   C99       1.0  0.79955  0.31676  0.35729  1.0000
  N   N15       1.0  0.81287  0.33344  0.35835  1.0000
  C   C100      1.0  0.19238  0.14178  0.34622  1.0000
  N   N16       1.0  0.20650  0.12640  0.34492  1.0000
  C   C101      1.0  0.22059  0.14182  0.34352  1.0000
  N   N17       1.0  0.22024  0.17221  0.33978  1.0000
  C   C102      1.0  0.20664  0.18805  0.33814  1.0000
  N   N18       1.0  0.19303  0.17225  0.34197  1.0000
  C   C103      1.0  0.19244  0.36175  0.35994  1.0000
  N   N19       1.0  0.20663  0.37691  0.36098  1.0000
  C   C104      1.0  0.22071  0.36140  0.35963  1.0000
  N   N20       1.0  0.22019  0.33108  0.35293  1.0000
  C   C105      1.0  0.20656  0.31539  0.34889  1.0000
  N   N21       1.0  0.19298  0.33131  0.35297  1.0000
  C   C106      1.0  0.81361  0.14268  0.36360  1.0000
  N   N22       1.0  0.79928  0.12802  0.36208  1.0000
  C   C107      1.0  0.78536  0.14406  0.36438  1.0000
  N   N23       1.0  0.78622  0.17439  0.36346  1.0000
  C   C108      1.0  0.79999  0.18962  0.36222  1.0000
  N   N24       1.0  0.81342  0.17323  0.36254  1.0000
  C   C109      1.0  0.10031  0.11831  0.33789  1.0000
  N   N25       1.0  0.09621  0.08858  0.32369  1.0000
  C   C110      1.0  0.10747  0.06642  0.31128  1.0000
  N   N26       1.0  0.12290  0.07537  0.31706  1.0000
  C   C111      1.0  0.12780  0.10360  0.33367  1.0000
  N   N27       1.0  0.11614  0.12416  0.34307  1.0000
  C   C112      1.0  0.90462  0.38628  0.33807  1.0000
  N   N28       1.0  0.90888  0.41577  0.32159  1.0000
  C   C113      1.0  0.89776  0.43803  0.30739  1.0000
  N   N29       1.0  0.88227  0.42952  0.31380  1.0000
  C   C114      1.0  0.87725  0.40154  0.33293  1.0000
  N   N30       1.0  0.88876  0.38074  0.34420  1.0000
  C   C115      1.0  0.90521  0.11793  0.33991  1.0000
  N   N31       1.0  0.90933  0.08839  0.32312  1.0000
  C   C116      1.0  0.89807  0.06627  0.31023  1.0000
  N   N32       1.0  0.88262  0.07492  0.31842  1.0000
  C   C117      1.0  0.87775  0.10296  0.33814  1.0000
  N   N33       1.0  0.88940  0.12355  0.34761  1.0000
  C   C118      1.0  0.10051  0.38615  0.34446  1.0000
  N   N34       1.0  0.09644  0.41579  0.32883  1.0000
  C   C119      1.0  0.10773  0.43789  0.31680  1.0000
  N   N35       1.0  0.12316  0.42906  0.32456  1.0000
  C   C120      1.0  0.12802  0.40089  0.34295  1.0000
  N   N36       1.0  0.11632  0.38035  0.35160  1.0000
  C   C121      1.0  0.60006  0.36816  0.33291  1.0000
  N   N37       1.0  0.59602  0.33841  0.34683  1.0000
  C   C122      1.0  0.60734  0.31632  0.35785  1.0000
  N   N38       1.0  0.62277  0.32527  0.35079  1.0000
  C   C123      1.0  0.62758  0.35354  0.33416  1.0000
  N   N39       1.0  0.61587  0.37408  0.32621  1.0000
  C   C124      1.0  0.40427  0.13703  0.34720  1.0000
  N   N40       1.0  0.40848  0.16666  0.33214  1.0000
  C   C125      1.0  0.39731  0.18901  0.32085  1.0000
  N   N41       1.0  0.38188  0.18037  0.32885  1.0000
  C   C126      1.0  0.37687  0.15231  0.34689  1.0000
  N   N42       1.0  0.38842  0.13141  0.35485  1.0000
  C   C127      1.0  0.40413  0.36923  0.35389  1.0000
  N   N43       1.0  0.40831  0.33969  0.33757  1.0000
  C   C128      1.0  0.39711  0.31740  0.32639  1.0000
  N   N44       1.0  0.38168  0.32597  0.33570  1.0000
  C   C129      1.0  0.37672  0.35399  0.35520  1.0000
  N   N45       1.0  0.38831  0.37484  0.36285  1.0000
  C   C130      1.0  0.60097  0.13502  0.34573  1.0000
  N   N46       1.0  0.59672  0.16499  0.35202  1.0000
  C   C131      1.0  0.60780  0.18749  0.36370  1.0000
  N   N47       1.0  0.62322  0.17847  0.36527  1.0000
  C   C132      1.0  0.62827  0.14995  0.35840  1.0000
  N   N48       1.0  0.61682  0.12889  0.34998  1.0000
  C   C133      1.0  0.06131  0.27963  0.34850  1.0000
  N   N49       1.0  0.04519  0.27879  0.34295  1.0000
  C   C134      1.0  0.03674  0.25250  0.33964  1.0000
  N   N50       1.0  0.04513  0.22611  0.34110  1.0000
  C   C135      1.0  0.06125  0.22508  0.34663  1.0000
  N   N51       1.0  0.06866  0.25232  0.35047  1.0000
  C   C136      1.0  0.94388  0.22514  0.34755  1.0000
  N   N52       1.0  0.95999  0.22622  0.34169  1.0000
  C   C137      1.0  0.96835  0.25261  0.33967  1.0000
  N   N53       1.0  0.95987  0.27888  0.34253  1.0000
  C   C138      1.0  0.94375  0.27968  0.34822  1.0000
  N   N54       1.0  0.93642  0.25234  0.35096  1.0000
  C   C139      1.0  0.56112  0.02935  0.33118  1.0000
  N   N55       1.0  0.54497  0.02864  0.33409  1.0000
  C   C140      1.0  0.53642  0.00240  0.33509  1.0000
  N   N56       1.0  0.54476  0.47593  0.33359  1.0000
  C   C141      1.0  0.56089  0.47478  0.33014  1.0000
  N   N57       1.0  0.56837  0.00196  0.32897  1.0000
  C   C142      1.0  0.44338  0.47576  0.35215  1.0000
  N   N58       1.0  0.45949  0.47663  0.34603  1.0000
  C   C143      1.0  0.46795  0.50292  0.34242  1.0000
  N   N59       1.0  0.45955  0.02930  0.34418  1.0000
  C   C144      1.0  0.44342  0.03031  0.35023  1.0000
  N   N60       1.0  0.43603  0.50307  0.35439  1.0000
  C   C145      1.0  0.26394  0.13659  0.38942  1.0000
  C   C146      1.0  0.24764  0.14181  0.40235  1.0000
  H   H61       1.0  0.27183  0.14493  0.43526  1.0000
  H   H62       1.0  0.24424  0.15520  0.45484  1.0000
  C   C147      1.0  0.74033  0.36380  0.37969  1.0000
  C   C148      1.0  0.75645  0.35771  0.39613  1.0000
  H   H63       1.0  0.73189  0.35345  0.41821  1.0000
  H   H64       1.0  0.75916  0.34197  0.44385  1.0000
  C   C149      1.0  0.75766  0.14725  0.41426  1.0000
  C   C150      1.0  0.74143  0.14156  0.39980  1.0000
  C   C151      1.0  0.73659  0.12150  0.33191  1.0000
  C   C152      1.0  0.76960  0.13311  0.36184  1.0000
  H   H65       1.0  0.73327  0.15147  0.44109  1.0000
  H   H66       1.0  0.76070  0.16232  0.46326  1.0000
  C   C153      1.0  0.24857  0.35829  0.40700  1.0000
  C   C154      1.0  0.26464  0.36555  0.39366  1.0000
  C   C155      1.0  0.26902  0.38822  0.33226  1.0000
  C   C156      1.0  0.23629  0.37333  0.35967  1.0000
  H   H67       1.0  0.27305  0.35438  0.43020  1.0000
  H   H68       1.0  0.24592  0.34125  0.45074  1.0000
  C   C157      1.0  0.31446  0.48800  0.33826  1.0000
  C   C158      1.0  0.31443  0.01951  0.33669  1.0000
  C   C159      1.0  0.30278  0.03530  0.28734  1.0000
  C   C160      1.0  0.30283  0.47164  0.29056  1.0000
  H   H69       1.0  0.32238  0.03063  0.37665  1.0000
  H   H70       1.0  0.32241  0.47736  0.37934  1.0000
  C   C161      1.0  0.69068  0.01955  0.32163  1.0000
  C   C162      1.0  0.69075  0.48802  0.32028  1.0000
  C   C163      1.0  0.70460  0.47215  0.29560  1.0000
  C   C164      1.0  0.70445  0.03592  0.29794  1.0000
  H   H71       1.0  0.68078  0.47692  0.34130  1.0000
  H   H72       1.0  0.68066  0.03021  0.34378  1.0000
  C   C165      1.0  0.78601  0.23740  0.38026  1.0000
  C   C166      1.0  0.78590  0.26884  0.37904  1.0000
  C   C167      1.0  0.79987  0.28512  0.35929  1.0000
  C   C168      1.0  0.80010  0.22129  0.36172  1.0000
  H   H73       1.0  0.77546  0.27953  0.39355  1.0000
  H   H74       1.0  0.77564  0.22659  0.39557  1.0000
  C   C169      1.0  0.22092  0.26741  0.35265  1.0000
  C   C170      1.0  0.22095  0.23592  0.34963  1.0000
  C   C171      1.0  0.20668  0.21978  0.33691  1.0000
  C   C172      1.0  0.20662  0.28372  0.34290  1.0000
  H   H75       1.0  0.23153  0.22506  0.35897  1.0000
  H   H76       1.0  0.23148  0.27810  0.36383  1.0000
  C   C173      1.0  0.33966  0.11067  0.40498  1.0000
  C   C174      1.0  0.35566  0.11938  0.40278  1.0000
  H   H77       1.0  0.33692  0.09072  0.43572  1.0000
  H   H78       1.0  0.36382  0.10577  0.43335  1.0000
  C   C175      1.0  0.67242  0.35346  0.35214  1.0000
  C   C176      1.0  0.65644  0.34406  0.36041  1.0000
  H   H79       1.0  0.68107  0.34165  0.38498  1.0000
  H   H80       1.0  0.65403  0.32536  0.39801  1.0000
  C   C177      1.0  0.64956  0.11639  0.40772  1.0000
  C   C178      1.0  0.66566  0.10846  0.41079  1.0000
  C   C179      1.0  0.67747  0.12630  0.36844  1.0000
  C   C180      1.0  0.64467  0.14306  0.36462  1.0000
  H   H81       1.0  0.66854  0.08826  0.43956  1.0000
  H   H82       1.0  0.64144  0.10214  0.43601  1.0000
  C   C181      1.0  0.35569  0.38753  0.41043  1.0000
  C   C182      1.0  0.33975  0.39658  0.41261  1.0000
  C   C183      1.0  0.32779  0.37995  0.36768  1.0000
  C   C184      1.0  0.36033  0.36114  0.36451  1.0000
  H   H83       1.0  0.33714  0.41678  0.44229  1.0000
  H   H84       1.0  0.36395  0.40115  0.44018  1.0000
  C   C185      1.0  0.84040  0.36246  0.40916  1.0000
  C   C186      1.0  0.85637  0.37068  0.40020  1.0000
  H   H85       1.0  0.83787  0.34435  0.44918  1.0000
  H   H86       1.0  0.86469  0.35853  0.43471  1.0000
  C   C187      1.0  0.16449  0.14674  0.39148  1.0000
  C   C188      1.0  0.14855  0.13800  0.38589  1.0000
  H   H87       1.0  0.16690  0.16675  0.42270  1.0000
  H   H88       1.0  0.14019  0.15186  0.41366  1.0000
  C   C189      1.0  0.14853  0.36601  0.39589  1.0000
  C   C190      1.0  0.16442  0.35699  0.40241  1.0000
  C   C191      1.0  0.17691  0.37436  0.36504  1.0000
  C   C192      1.0  0.14434  0.39319  0.35281  1.0000
  H   H89       1.0  0.16666  0.33677  0.43281  1.0000
  H   H90       1.0  0.14005  0.35210  0.42218  1.0000
  C   C193      1.0  0.85741  0.13642  0.39956  1.0000
  C   C194      1.0  0.84157  0.14547  0.40831  1.0000
  C   C195      1.0  0.82903  0.12950  0.36624  1.0000
  C   C196      1.0  0.86147  0.11052  0.34974  1.0000
  H   H91       1.0  0.83940  0.16479  0.44368  1.0000
  H   H92       1.0  0.86595  0.14937  0.42942  1.0000
  C   C197      1.0  0.06365  0.16864  0.33798  1.0000
  C   C198      1.0  0.07325  0.14233  0.33593  1.0000
  C   C199      1.0  0.09000  0.14379  0.34429  1.0000
  C   C200      1.0  0.07027  0.19792  0.34753  1.0000
  H   H93       1.0  0.06786  0.12193  0.32672  1.0000
  H   H94       1.0  0.05167  0.16622  0.33026  1.0000
  C   C201      1.0  0.94127  0.33604  0.33961  1.0000
  C   C202      1.0  0.93166  0.36231  0.33703  1.0000
  C   C203      1.0  0.91492  0.36082  0.34570  1.0000
  C   C204      1.0  0.93467  0.30678  0.34974  1.0000
  H   H95       1.0  0.93703  0.38268  0.32700  1.0000
  H   H96       1.0  0.95324  0.33848  0.33135  1.0000
  C   C205      1.0  0.90898  0.17277  0.36010  1.0000
  C   C206      1.0  0.91832  0.19892  0.36064  1.0000
  H   H97       1.0  0.89705  0.17592  0.36824  1.0000
  H   H98       1.0  0.91258  0.21899  0.36961  1.0000
  C   C207      1.0  0.09650  0.33130  0.36230  1.0000
  C   C208      1.0  0.08702  0.30532  0.36202  1.0000
  H   H99       1.0  0.10842  0.32791  0.36987  1.0000
  H   H100      1.0  0.09267  0.28511  0.36992  1.0000
  C   C209      1.0  0.56332  0.41830  0.33602  1.0000
  C   C210      1.0  0.57296  0.39201  0.33679  1.0000
  C   C211      1.0  0.58970  0.39361  0.32835  1.0000
  C   C212      1.0  0.56992  0.44764  0.32833  1.0000
  H   H101      1.0  0.56759  0.37153  0.34463  1.0000
  H   H102      1.0  0.55134  0.41579  0.34338  1.0000
  C   C213      1.0  0.44093  0.08673  0.34228  1.0000
  C   C214      1.0  0.43131  0.11302  0.34159  1.0000
  C   C215      1.0  0.41459  0.11152  0.35167  1.0000
  C   C216      1.0  0.43436  0.05743  0.35187  1.0000
  H   H103      1.0  0.43667  0.13345  0.33249  1.0000
  H   H104      1.0  0.45290  0.08920  0.33373  1.0000
  C   C217      1.0  0.40817  0.42415  0.36970  1.0000
  C   C218      1.0  0.41766  0.45013  0.36781  1.0000
  H   H105      1.0  0.39627  0.42753  0.37821  1.0000
  H   H106      1.0  0.41203  0.47037  0.37572  1.0000
  C   C219      1.0  0.59683  0.08008  0.33162  1.0000
  C   C220      1.0  0.58717  0.05436  0.32836  1.0000
  H   H107      1.0  0.60880  0.07640  0.32955  1.0000
  H   H108      1.0  0.59277  0.03397  0.32435  1.0000
  C   C221      1.0  0.09155  0.48601  0.32207  1.0000
  C   C222      1.0  0.09149  0.01814  0.32072  1.0000
  C   C223      1.0  0.10531  0.03483  0.29832  1.0000
  C   C224      1.0  0.10546  0.46931  0.30141  1.0000
  H   H109      1.0  0.08175  0.02922  0.34478  1.0000
  H   H110      1.0  0.08185  0.47503  0.34706  1.0000
  C   C225      1.0  0.91411  0.01805  0.31668  1.0000
  C   C226      1.0  0.91403  0.48592  0.31596  1.0000
  C   C227      1.0  0.90019  0.46944  0.29255  1.0000
  C   C228      1.0  0.90034  0.03488  0.29422  1.0000
  H   H111      1.0  0.92360  0.47475  0.34184  1.0000
  H   H112      1.0  0.92374  0.02890  0.34294  1.0000
  C   C229      1.0  0.61832  0.23669  0.40677  1.0000
  C   C230      1.0  0.61818  0.26805  0.40587  1.0000
  C   C231      1.0  0.60521  0.28478  0.37151  1.0000
  C   C232      1.0  0.60553  0.21920  0.37325  1.0000
  H   H113      1.0  0.62816  0.27847  0.42962  1.0000
  H   H114      1.0  0.62841  0.22692  0.43135  1.0000
  C   C233      1.0  0.41336  0.26933  0.33011  1.0000
  C   C234      1.0  0.41342  0.23720  0.32860  1.0000
  C   C235      1.0  0.39955  0.22054  0.30692  1.0000
  C   C236      1.0  0.39942  0.28603  0.31008  1.0000
  H   H115      1.0  0.42318  0.22612  0.35237  1.0000
  H   H116      1.0  0.42310  0.28031  0.35465  1.0000
  C   C237      1.0  0.01092  0.27965  0.34576  1.0000
  C   C238      1.0  0.99419  0.27969  0.34570  1.0000
  H   H117      1.0  0.01660  0.29983  0.35369  1.0000
  H   H118      1.0  0.98853  0.29988  0.35367  1.0000
  C   C239      1.0  0.51052  0.97554  0.34374  1.0000
  C   C240      1.0  0.49379  0.97565  0.34500  1.0000
  H   H119      1.0  0.51615  0.95521  0.34853  1.0000
  H   H120      1.0  0.48810  0.95541  0.35084  1.0000
  C   C241      1.0  0.24138  0.61270  0.26925  1.0000
  C   C242      1.0  0.25768  0.60736  0.25656  1.0000
  C   C243      1.0  0.26925  0.61935  0.31590  1.0000
  C   C244      1.0  0.23611  0.62987  0.34290  1.0000
  H   H121      1.0  0.26108  0.59472  0.20250  1.0000
  H   H122      1.0  0.23349  0.60513  0.22218  1.0000
  C   C245      1.0  0.76437  0.89373  0.28235  1.0000
  C   C246      1.0  0.74825  0.89979  0.26586  1.0000
  C   C247      1.0  0.73594  0.88505  0.31415  1.0000
  C   C248      1.0  0.76875  0.87253  0.34801  1.0000
  H   H123      1.0  0.74556  0.91545  0.21787  1.0000
  H   H124      1.0  0.77281  0.90405  0.24374  1.0000
  C   C249      1.0  0.74858  0.60756  0.27914  1.0000
  C   C250      1.0  0.76480  0.61318  0.29367  1.0000
  H   H125      1.0  0.74560  0.59290  0.22894  1.0000
  H   H126      1.0  0.77299  0.60362  0.25175  1.0000
  C   C251      1.0  0.25667  0.90342  0.28560  1.0000
  C   C252      1.0  0.24058  0.89622  0.29902  1.0000
  H   H127      1.0  0.25926  0.91983  0.23974  1.0000
  H   H128      1.0  0.23215  0.90666  0.26063  1.0000
  C   C253      1.0  0.29152  0.51892  0.23697  1.0000
  C   C254      1.0  0.29155  0.98737  0.23853  1.0000
  H   H129      1.0  0.28290  0.52972  0.20093  1.0000
  H   H130      1.0  0.28293  0.97611  0.20374  1.0000
  C   C255      1.0  0.71818  0.98850  0.26900  1.0000
  C   C256      1.0  0.71808  0.51996  0.26987  1.0000
  H   H131      1.0  0.72839  0.97781  0.24988  1.0000
  H   H132      1.0  0.72828  0.53091  0.25203  1.0000
  C   C257      1.0  0.81401  0.76908  0.34134  1.0000
  C   C258      1.0  0.81411  0.73752  0.34250  1.0000
  H   H133      1.0  0.82432  0.78009  0.32597  1.0000
  H   H134      1.0  0.82450  0.72665  0.32802  1.0000
  C   C259      1.0  0.19241  0.73609  0.32555  1.0000
  C   C260      1.0  0.19238  0.76761  0.32848  1.0000
  H   H135      1.0  0.18183  0.72530  0.31566  1.0000
  H   H136      1.0  0.18179  0.77853  0.32056  1.0000
  C   C261      1.0  0.34846  0.66342  0.31594  1.0000
  C   C262      1.0  0.33238  0.65443  0.31700  1.0000
  C   C263      1.0  0.32781  0.62728  0.35899  1.0000
  C   C264      1.0  0.36046  0.64539  0.35560  1.0000
  H   H137      1.0  0.32435  0.66640  0.27995  1.0000
  H   H138      1.0  0.35144  0.68216  0.27981  1.0000
  C   C265      1.0  0.64787  0.88684  0.27218  1.0000
  C   C266      1.0  0.66370  0.89579  0.26263  1.0000
  C   C267      1.0  0.67631  0.88014  0.30532  1.0000
  C   C268      1.0  0.64385  0.86117  0.32303  1.0000
  H   H139      1.0  0.66580  0.91486  0.22597  1.0000
  H   H140      1.0  0.63930  0.89957  0.24172  1.0000
  C   C269      1.0  0.67269  0.65385  0.32959  1.0000
  C   C270      1.0  0.65652  0.66224  0.32863  1.0000
  H   H141      1.0  0.68071  0.66685  0.29570  1.0000
  H   H142      1.0  0.65337  0.68159  0.29592  1.0000
  C   C271      1.0  0.33217  0.85249  0.32689  1.0000
  C   C272      1.0  0.34819  0.84314  0.32602  1.0000
  H   H143      1.0  0.32403  0.84041  0.29096  1.0000
  H   H144      1.0  0.35105  0.82414  0.29081  1.0000
  C   C273      1.0  0.84866  0.91114  0.30035  1.0000
  C   C274      1.0  0.83257  0.90248  0.30811  1.0000
  C   C275      1.0  0.82821  0.87733  0.36069  1.0000
  C   C276      1.0  0.86088  0.89470  0.34377  1.0000
  H   H145      1.0  0.82422  0.91340  0.27039  1.0000
  H   H146      1.0  0.85145  0.92854  0.25830  1.0000
  C   C277      1.0  0.15649  0.59267  0.30760  1.0000
  C   C278      1.0  0.17256  0.60167  0.31233  1.0000
  C   C279      1.0  0.17680  0.62940  0.35205  1.0000
  C   C280      1.0  0.14416  0.61112  0.34197  1.0000
  H   H147      1.0  0.18100  0.58867  0.28186  1.0000
  H   H148      1.0  0.15383  0.57307  0.27487  1.0000
  C   C281      1.0  0.17287  0.90236  0.32621  1.0000
  C   C282      1.0  0.15685  0.91161  0.32038  1.0000
  H   H149      1.0  0.18145  0.91541  0.29721  1.0000
  H   H150      1.0  0.15436  0.93143  0.28839  1.0000
  C   C283      1.0  0.83293  0.60261  0.32062  1.0000
  C   C284      1.0  0.84891  0.59321  0.31293  1.0000
  H   H151      1.0  0.82431  0.59062  0.28822  1.0000
  H   H152      1.0  0.85135  0.57438  0.27592  1.0000
  C   C285      1.0  0.09639  0.67318  0.35637  1.0000
  C   C286      1.0  0.08695  0.69920  0.35742  1.0000
  H   H153      1.0  0.10833  0.67651  0.36329  1.0000
  H   H154      1.0  0.09266  0.71936  0.36532  1.0000
  C   C287      1.0  0.90853  0.83149  0.35903  1.0000
  C   C288      1.0  0.91800  0.80548  0.36029  1.0000
  H   H155      1.0  0.89659  0.82821  0.36610  1.0000
  H   H156      1.0  0.91234  0.78530  0.36870  1.0000
  C   C289      1.0  0.94168  0.66871  0.33836  1.0000
  C   C290      1.0  0.93217  0.64228  0.33641  1.0000
  C   C291      1.0  0.91545  0.64351  0.34643  1.0000
  C   C292      1.0  0.93497  0.69786  0.34904  1.0000
  H   H157      1.0  0.93760  0.62198  0.32606  1.0000
  H   H158      1.0  0.95364  0.66646  0.32936  1.0000
  C   C293      1.0  0.06380  0.83605  0.34174  1.0000
  C   C294      1.0  0.07344  0.86231  0.34064  1.0000
  C   C295      1.0  0.09016  0.86072  0.35009  1.0000
  C   C296      1.0  0.07037  0.80673  0.35100  1.0000
  H   H159      1.0  0.06810  0.88275  0.33139  1.0000
  H   H160      1.0  0.05183  0.83855  0.33326  1.0000
  C   C297      1.0  0.59608  0.92309  0.31818  1.0000
  C   C298      1.0  0.58661  0.94906  0.31891  1.0000
  H   H161      1.0  0.60801  0.92653  0.31158  1.0000
  H   H162      1.0  0.59230  0.96927  0.31217  1.0000
  C   C299      1.0  0.40823  0.58210  0.36343  1.0000
  C   C300      1.0  0.41769  0.55609  0.36289  1.0000
  H   H163      1.0  0.39631  0.57877  0.37115  1.0000
  H   H164      1.0  0.41202  0.53590  0.37079  1.0000
  C   C301      1.0  0.44083  0.91935  0.34634  1.0000
  C   C302      1.0  0.43118  0.89310  0.34666  1.0000
  C   C303      1.0  0.41448  0.89471  0.35780  1.0000
  C   C304      1.0  0.43429  0.94870  0.35553  1.0000
  H   H165      1.0  0.43649  0.87264  0.33744  1.0000
  H   H166      1.0  0.45277  0.91681  0.33688  1.0000
  C   C305      1.0  0.56396  0.58573  0.33664  1.0000
  C   C306      1.0  0.57376  0.61177  0.33979  1.0000
  C   C307      1.0  0.59055  0.60972  0.33849  1.0000
  C   C308      1.0  0.57041  0.55620  0.33169  1.0000
  H   H167      1.0  0.56845  0.63240  0.34488  1.0000
  H   H168      1.0  0.55193  0.58859  0.33927  1.0000
  C   C309      1.0  0.11830  0.51768  0.26579  1.0000
  C   C310      1.0  0.11838  0.98628  0.26749  1.0000
  H   H169      1.0  0.12839  0.52780  0.24250  1.0000
  H   H170      1.0  0.12853  0.97603  0.24532  1.0000
  C   C311      1.0  0.88744  0.98667  0.25767  1.0000
  C   C312      1.0  0.88750  0.51808  0.25861  1.0000
  H   H171      1.0  0.87736  0.97660  0.23380  1.0000
  H   H172      1.0  0.87748  0.52846  0.23522  1.0000
  C   C313      1.0  0.59150  0.76777  0.34899  1.0000
  C   C314      1.0  0.59168  0.73562  0.34959  1.0000
  H   H173      1.0  0.58175  0.77858  0.32397  1.0000
  H   H174      1.0  0.58200  0.72432  0.32564  1.0000
  C   C315      1.0  0.38656  0.73770  0.27448  1.0000
  C   C316      1.0  0.38649  0.76910  0.27616  1.0000
  H   H175      1.0  0.37644  0.72757  0.25152  1.0000
  H   H176      1.0  0.37633  0.77936  0.25431  1.0000
  C   C317      1.0  0.99417  0.72569  0.32720  1.0000
  C   C318      1.0  0.01090  0.72566  0.32722  1.0000
  C   C319      1.0  0.01972  0.75262  0.33690  1.0000
  C   C320      1.0  0.98537  0.75269  0.33683  1.0000
  H   H177      1.0  0.01656  0.70542  0.32044  1.0000
  H   H178      1.0  0.98849  0.70547  0.32041  1.0000
  C   C321      1.0  0.49385  0.52980  0.33205  1.0000
  C   C322      1.0  0.51059  0.52969  0.33084  1.0000
  C   C323      1.0  0.51938  0.50256  0.33678  1.0000
  C   C324      1.0  0.48499  0.50279  0.33927  1.0000
  H   H179      1.0  0.51629  0.54994  0.32527  1.0000
  H   H180      1.0  0.48821  0.55013  0.32759  1.0000
  C   C325      1.0  0.31307  0.61322  0.33906  1.0000
  N   N61       1.0  0.29839  0.62639  0.33503  1.0000
  C   C326      1.0  0.28529  0.60992  0.31077  1.0000
  N   N62       1.0  0.28723  0.58024  0.29327  1.0000
  C   C327      1.0  0.30151  0.56667  0.29587  1.0000
  N   N63       1.0  0.31411  0.58352  0.31947  1.0000
  C   C328      1.0  0.69176  0.89339  0.30655  1.0000
  N   N64       1.0  0.70623  0.87922  0.31206  1.0000
  C   C329      1.0  0.72008  0.89554  0.30806  1.0000
  N   N65       1.0  0.71898  0.92583  0.30289  1.0000
  C   C330      1.0  0.70509  0.94059  0.29987  1.0000
  N   N66       1.0  0.69181  0.92387  0.30200  1.0000
  C   C331      1.0  0.69257  0.61334  0.35011  1.0000
  N   N67       1.0  0.70708  0.62736  0.34854  1.0000
  C   C332      1.0  0.72057  0.61161  0.32671  1.0000
  N   N68       1.0  0.71903  0.58192  0.30914  1.0000
  C   C333      1.0  0.70505  0.56736  0.30904  1.0000
  N   N69       1.0  0.69211  0.58360  0.33009  1.0000
  C   C334      1.0  0.31307  0.89413  0.34796  1.0000
  N   N70       1.0  0.29829  0.88127  0.34755  1.0000
  C   C335      1.0  0.28509  0.89777  0.32497  1.0000
  N   N71       1.0  0.28719  0.92717  0.30420  1.0000
  C   C336      1.0  0.30156  0.94042  0.30266  1.0000
  N   N72       1.0  0.31420  0.92361  0.32570  1.0000
  C   C337      1.0  0.81285  0.86398  0.35702  1.0000
  N   N73       1.0  0.79843  0.87828  0.35206  1.0000
  C   C338      1.0  0.78459  0.86195  0.35351  1.0000
  N   N74       1.0  0.78568  0.83164  0.35521  1.0000
  C   C339      1.0  0.79955  0.81676  0.35729  1.0000
  N   N75       1.0  0.81287  0.83344  0.35835  1.0000
  C   C340      1.0  0.19238  0.64177  0.34622  1.0000
  N   N76       1.0  0.20650  0.62641  0.34492  1.0000
  C   C341      1.0  0.22059  0.64182  0.34352  1.0000
  N   N77       1.0  0.22024  0.67221  0.33978  1.0000
  C   C342      1.0  0.20664  0.68805  0.33814  1.0000
  N   N78       1.0  0.19303  0.67225  0.34197  1.0000
  C   C343      1.0  0.19244  0.86175  0.35994  1.0000
  N   N79       1.0  0.20663  0.87691  0.36098  1.0000
  C   C344      1.0  0.22071  0.86140  0.35963  1.0000
  N   N80       1.0  0.22019  0.83108  0.35293  1.0000
  C   C345      1.0  0.20656  0.81539  0.34889  1.0000
  N   N81       1.0  0.19298  0.83131  0.35297  1.0000
  C   C346      1.0  0.81361  0.64268  0.36360  1.0000
  N   N82       1.0  0.79928  0.62802  0.36208  1.0000
  C   C347      1.0  0.78536  0.64406  0.36438  1.0000
  N   N83       1.0  0.78622  0.67439  0.36346  1.0000
  C   C348      1.0  0.79999  0.68962  0.36222  1.0000
  N   N84       1.0  0.81342  0.67324  0.36254  1.0000
  C   C349      1.0  0.10031  0.61831  0.33789  1.0000
  N   N85       1.0  0.09621  0.58858  0.32369  1.0000
  C   C350      1.0  0.10747  0.56642  0.31128  1.0000
  N   N86       1.0  0.12290  0.57537  0.31706  1.0000
  C   C351      1.0  0.12780  0.60360  0.33367  1.0000
  N   N87       1.0  0.11614  0.62416  0.34307  1.0000
  C   C352      1.0  0.90462  0.88628  0.33807  1.0000
  N   N88       1.0  0.90888  0.91577  0.32159  1.0000
  C   C353      1.0  0.89776  0.93803  0.30739  1.0000
  N   N89       1.0  0.88227  0.92952  0.31380  1.0000
  C   C354      1.0  0.87725  0.90154  0.33293  1.0000
  N   N90       1.0  0.88876  0.88074  0.34420  1.0000
  C   C355      1.0  0.90521  0.61793  0.33991  1.0000
  N   N91       1.0  0.90933  0.58839  0.32312  1.0000
  C   C356      1.0  0.89807  0.56627  0.31023  1.0000
  N   N92       1.0  0.88262  0.57492  0.31842  1.0000
  C   C357      1.0  0.87775  0.60296  0.33814  1.0000
  N   N93       1.0  0.88940  0.62355  0.34761  1.0000
  C   C358      1.0  0.10051  0.88616  0.34446  1.0000
  N   N94       1.0  0.09644  0.91579  0.32883  1.0000
  C   C359      1.0  0.10773  0.93789  0.31680  1.0000
  N   N95       1.0  0.12316  0.92906  0.32456  1.0000
  C   C360      1.0  0.12802  0.90089  0.34295  1.0000
  N   N96       1.0  0.11632  0.88035  0.35160  1.0000
  C   C361      1.0  0.60006  0.86816  0.33291  1.0000
  N   N97       1.0  0.59602  0.83841  0.34683  1.0000
  C   C362      1.0  0.60734  0.81632  0.35785  1.0000
  N   N98       1.0  0.62277  0.82527  0.35079  1.0000
  C   C363      1.0  0.62758  0.85354  0.33416  1.0000
  N   N99       1.0  0.61587  0.87408  0.32621  1.0000
  C   C364      1.0  0.40427  0.63703  0.34720  1.0000
  N   N100      1.0  0.40848  0.66666  0.33214  1.0000
  C   C365      1.0  0.39731  0.68902  0.32085  1.0000
  N   N101      1.0  0.38188  0.68037  0.32885  1.0000
  C   C366      1.0  0.37687  0.65231  0.34689  1.0000
  N   N102      1.0  0.38842  0.63141  0.35485  1.0000
  C   C367      1.0  0.40413  0.86924  0.35389  1.0000
  N   N103      1.0  0.40831  0.83969  0.33757  1.0000
  C   C368      1.0  0.39711  0.81740  0.32639  1.0000
  N   N104      1.0  0.38168  0.82597  0.33570  1.0000
  C   C369      1.0  0.37672  0.85399  0.35520  1.0000
  N   N105      1.0  0.38831  0.87484  0.36285  1.0000
  C   C370      1.0  0.60097  0.63502  0.34573  1.0000
  N   N106      1.0  0.59672  0.66499  0.35202  1.0000
  C   C371      1.0  0.60780  0.68749  0.36370  1.0000
  N   N107      1.0  0.62322  0.67847  0.36527  1.0000
  C   C372      1.0  0.62827  0.64995  0.35840  1.0000
  N   N108      1.0  0.61682  0.62889  0.34998  1.0000
  C   C373      1.0  0.06131  0.77963  0.34850  1.0000
  N   N109      1.0  0.04519  0.77879  0.34295  1.0000
  C   C374      1.0  0.03674  0.75250  0.33964  1.0000
  N   N110      1.0  0.04513  0.72611  0.34110  1.0000
  C   C375      1.0  0.06125  0.72508  0.34663  1.0000
  N   N111      1.0  0.06866  0.75232  0.35047  1.0000
  C   C376      1.0  0.94388  0.72514  0.34755  1.0000
  N   N112      1.0  0.95999  0.72622  0.34169  1.0000
  C   C377      1.0  0.96835  0.75262  0.33967  1.0000
  N   N113      1.0  0.95987  0.77888  0.34253  1.0000
  C   C378      1.0  0.94375  0.77968  0.34822  1.0000
  N   N114      1.0  0.93642  0.75234  0.35096  1.0000
  C   C379      1.0  0.56112  0.52935  0.33118  1.0000
  N   N115      1.0  0.54497  0.52865  0.33409  1.0000
  C   C380      1.0  0.53642  0.50240  0.33509  1.0000
  N   N116      1.0  0.54476  0.97593  0.33359  1.0000
  C   C381      1.0  0.56089  0.97479  0.33014  1.0000
  N   N117      1.0  0.56837  0.50196  0.32897  1.0000
  C   C382      1.0  0.44338  0.97576  0.35215  1.0000
  N   N118      1.0  0.45949  0.97663  0.34603  1.0000
  C   C383      1.0  0.46795  0.00292  0.34242  1.0000
  N   N119      1.0  0.45955  0.52930  0.34418  1.0000
  C   C384      1.0  0.44342  0.53031  0.35023  1.0000
  N   N120      1.0  0.43603  0.00307  0.35439  1.0000
  C   C385      1.0  0.26394  0.63659  0.38942  1.0000
  C   C386      1.0  0.24764  0.64182  0.40235  1.0000
  H   H181      1.0  0.27183  0.64493  0.43526  1.0000
  H   H182      1.0  0.24424  0.65520  0.45484  1.0000
  C   C387      1.0  0.74033  0.86380  0.37969  1.0000
  C   C388      1.0  0.75645  0.85771  0.39613  1.0000
  H   H183      1.0  0.73189  0.85345  0.41821  1.0000
  H   H184      1.0  0.75916  0.84196  0.44385  1.0000
  C   C389      1.0  0.75766  0.64725  0.41426  1.0000
  C   C390      1.0  0.74143  0.64156  0.39980  1.0000
  C   C391      1.0  0.73659  0.62150  0.33191  1.0000
  C   C392      1.0  0.76960  0.63311  0.36184  1.0000
  H   H185      1.0  0.73327  0.65147  0.44109  1.0000
  H   H186      1.0  0.76070  0.66232  0.46326  1.0000
  C   C393      1.0  0.24857  0.85829  0.40700  1.0000
  C   C394      1.0  0.26464  0.86555  0.39366  1.0000
  C   C395      1.0  0.26902  0.88822  0.33226  1.0000
  C   C396      1.0  0.23629  0.87334  0.35967  1.0000
  H   H187      1.0  0.27305  0.85438  0.43020  1.0000
  H   H188      1.0  0.24592  0.84125  0.45074  1.0000
  C   C397      1.0  0.31446  0.98801  0.33826  1.0000
  C   C398      1.0  0.31443  0.51951  0.33669  1.0000
  C   C399      1.0  0.30278  0.53530  0.28734  1.0000
  C   C400      1.0  0.30283  0.97164  0.29056  1.0000
  H   H189      1.0  0.32238  0.53063  0.37665  1.0000
  H   H190      1.0  0.32241  0.97736  0.37934  1.0000
  C   C401      1.0  0.69068  0.51955  0.32163  1.0000
  C   C402      1.0  0.69075  0.98802  0.32028  1.0000
  C   C403      1.0  0.70460  0.97215  0.29560  1.0000
  C   C404      1.0  0.70445  0.53592  0.29794  1.0000
  H   H191      1.0  0.68078  0.97692  0.34130  1.0000
  H   H192      1.0  0.68066  0.53021  0.34378  1.0000
  C   C405      1.0  0.78601  0.73740  0.38026  1.0000
  C   C406      1.0  0.78590  0.76884  0.37904  1.0000
  C   C407      1.0  0.79987  0.78512  0.35929  1.0000
  C   C408      1.0  0.80010  0.72128  0.36172  1.0000
  H   H193      1.0  0.77546  0.77953  0.39355  1.0000
  H   H194      1.0  0.77564  0.72659  0.39557  1.0000
  C   C409      1.0  0.22092  0.76741  0.35265  1.0000
  C   C410      1.0  0.22095  0.73592  0.34963  1.0000
  C   C411      1.0  0.20668  0.71978  0.33691  1.0000
  C   C412      1.0  0.20662  0.78372  0.34290  1.0000
  H   H195      1.0  0.23153  0.72506  0.35897  1.0000
  H   H196      1.0  0.23148  0.77811  0.36383  1.0000
  C   C413      1.0  0.33966  0.61067  0.40498  1.0000
  C   C414      1.0  0.35566  0.61938  0.40278  1.0000
  H   H197      1.0  0.33692  0.59072  0.43572  1.0000
  H   H198      1.0  0.36382  0.60577  0.43335  1.0000
  C   C415      1.0  0.67242  0.85346  0.35214  1.0000
  C   C416      1.0  0.65644  0.84406  0.36041  1.0000
  H   H199      1.0  0.68107  0.84165  0.38498  1.0000
  H   H200      1.0  0.65403  0.82536  0.39801  1.0000
  C   C417      1.0  0.64956  0.61639  0.40772  1.0000
  C   C418      1.0  0.66566  0.60847  0.41079  1.0000
  C   C419      1.0  0.67747  0.62630  0.36844  1.0000
  C   C420      1.0  0.64467  0.64306  0.36462  1.0000
  H   H201      1.0  0.66854  0.58826  0.43956  1.0000
  H   H202      1.0  0.64144  0.60214  0.43601  1.0000
  C   C421      1.0  0.35569  0.88753  0.41043  1.0000
  C   C422      1.0  0.33975  0.89658  0.41261  1.0000
  C   C423      1.0  0.32779  0.87995  0.36768  1.0000
  C   C424      1.0  0.36033  0.86114  0.36451  1.0000
  H   H203      1.0  0.33714  0.91678  0.44229  1.0000
  H   H204      1.0  0.36395  0.90115  0.44018  1.0000
  C   C425      1.0  0.84040  0.86246  0.40916  1.0000
  C   C426      1.0  0.85637  0.87068  0.40020  1.0000
  H   H205      1.0  0.83787  0.84435  0.44918  1.0000
  H   H206      1.0  0.86469  0.85853  0.43471  1.0000
  C   C427      1.0  0.16449  0.64674  0.39148  1.0000
  C   C428      1.0  0.14855  0.63800  0.38589  1.0000
  H   H207      1.0  0.16690  0.66675  0.42270  1.0000
  H   H208      1.0  0.14019  0.65186  0.41366  1.0000
  C   C429      1.0  0.14853  0.86601  0.39589  1.0000
  C   C430      1.0  0.16442  0.85699  0.40241  1.0000
  C   C431      1.0  0.17691  0.87436  0.36504  1.0000
  C   C432      1.0  0.14434  0.89318  0.35281  1.0000
  H   H209      1.0  0.16666  0.83677  0.43281  1.0000
  H   H210      1.0  0.14005  0.85210  0.42218  1.0000
  C   C433      1.0  0.85741  0.63643  0.39956  1.0000
  C   C434      1.0  0.84157  0.64547  0.40831  1.0000
  C   C435      1.0  0.82903  0.62950  0.36624  1.0000
  C   C436      1.0  0.86147  0.61052  0.34974  1.0000
  H   H211      1.0  0.83940  0.66480  0.44368  1.0000
  H   H212      1.0  0.86595  0.64937  0.42942  1.0000
  C   C437      1.0  0.06365  0.66865  0.33798  1.0000
  C   C438      1.0  0.07325  0.64233  0.33593  1.0000
  C   C439      1.0  0.09000  0.64379  0.34429  1.0000
  C   C440      1.0  0.07027  0.69792  0.34753  1.0000
  H   H213      1.0  0.06786  0.62193  0.32672  1.0000
  H   H214      1.0  0.05167  0.66622  0.33026  1.0000
  C   C441      1.0  0.94127  0.83604  0.33961  1.0000
  C   C442      1.0  0.93166  0.86231  0.33703  1.0000
  C   C443      1.0  0.91492  0.86082  0.34570  1.0000
  C   C444      1.0  0.93467  0.80678  0.34974  1.0000
  H   H215      1.0  0.93703  0.88268  0.32700  1.0000
  H   H216      1.0  0.95324  0.83849  0.33135  1.0000
  C   C445      1.0  0.90898  0.67277  0.36010  1.0000
  C   C446      1.0  0.91832  0.69892  0.36064  1.0000
  H   H217      1.0  0.89705  0.67592  0.36824  1.0000
  H   H218      1.0  0.91258  0.71899  0.36961  1.0000
  C   C447      1.0  0.09650  0.83130  0.36230  1.0000
  C   C448      1.0  0.08702  0.80532  0.36202  1.0000
  H   H219      1.0  0.10842  0.82791  0.36987  1.0000
  H   H220      1.0  0.09267  0.78511  0.36992  1.0000
  C   C449      1.0  0.56332  0.91830  0.33602  1.0000
  C   C450      1.0  0.57296  0.89202  0.33679  1.0000
  C   C451      1.0  0.58970  0.89361  0.32835  1.0000
  C   C452      1.0  0.56992  0.94764  0.32833  1.0000
  H   H221      1.0  0.56759  0.87153  0.34463  1.0000
  H   H222      1.0  0.55134  0.91579  0.34338  1.0000
  C   C453      1.0  0.44093  0.58673  0.34228  1.0000
  C   C454      1.0  0.43131  0.61302  0.34159  1.0000
  C   C455      1.0  0.41459  0.61152  0.35167  1.0000
  C   C456      1.0  0.43436  0.55743  0.35187  1.0000
  H   H223      1.0  0.43667  0.63345  0.33249  1.0000
  H   H224      1.0  0.45290  0.58920  0.33373  1.0000
  C   C457      1.0  0.40817  0.92415  0.36970  1.0000
  C   C458      1.0  0.41766  0.95013  0.36781  1.0000
  H   H225      1.0  0.39627  0.92753  0.37821  1.0000
  H   H226      1.0  0.41203  0.97037  0.37572  1.0000
  C   C459      1.0  0.59683  0.58008  0.33162  1.0000
  C   C460      1.0  0.58717  0.55436  0.32836  1.0000
  H   H227      1.0  0.60880  0.57639  0.32955  1.0000
  H   H228      1.0  0.59277  0.53397  0.32435  1.0000
  C   C461      1.0  0.09155  0.98601  0.32207  1.0000
  C   C462      1.0  0.09149  0.51814  0.32072  1.0000
  C   C463      1.0  0.10531  0.53483  0.29832  1.0000
  C   C464      1.0  0.10546  0.96931  0.30141  1.0000
  H   H229      1.0  0.08175  0.52922  0.34478  1.0000
  H   H230      1.0  0.08185  0.97503  0.34706  1.0000
  C   C465      1.0  0.91411  0.51805  0.31668  1.0000
  C   C466      1.0  0.91403  0.98592  0.31596  1.0000
  C   C467      1.0  0.90019  0.96944  0.29255  1.0000
  C   C468      1.0  0.90034  0.53488  0.29422  1.0000
  H   H231      1.0  0.92360  0.97475  0.34184  1.0000
  H   H232      1.0  0.92374  0.52890  0.34294  1.0000
  C   C469      1.0  0.61832  0.73669  0.40677  1.0000
  C   C470      1.0  0.61818  0.76805  0.40587  1.0000
  C   C471      1.0  0.60521  0.78478  0.37151  1.0000
  C   C472      1.0  0.60553  0.71920  0.37325  1.0000
  H   H233      1.0  0.62816  0.77847  0.42962  1.0000
  H   H234      1.0  0.62841  0.72692  0.43135  1.0000
  C   C473      1.0  0.41336  0.76933  0.33011  1.0000
  C   C474      1.0  0.41342  0.73720  0.32860  1.0000
  C   C475      1.0  0.39955  0.72054  0.30692  1.0000
  C   C476      1.0  0.39942  0.78603  0.31008  1.0000
  H   H235      1.0  0.42318  0.72612  0.35237  1.0000
  H   H236      1.0  0.42310  0.78031  0.35465  1.0000
  C   C477      1.0  0.01092  0.77965  0.34576  1.0000
  C   C478      1.0  0.99419  0.77969  0.34570  1.0000
  H   H237      1.0  0.01660  0.79983  0.35369  1.0000
  H   H238      1.0  0.98853  0.79988  0.35367  1.0000
  C   C479      1.0  0.51052  0.47554  0.34374  1.0000
  C   C480      1.0  0.49379  0.47565  0.34500  1.0000
  H   H239      1.0  0.51615  0.45521  0.34853  1.0000
  H   H240      1.0  0.48810  0.45540  0.35084  1.0000
