data_image0
_chemical_formula_structural       C5H3CH3C5H3CH3C5H3CH3C5H3CH3C5H3CH3C5H3CH3C2H2C2H2C2H2C2H2C2H2C2H2C2H2C2H2C2H2C2H2C2H2C2H2C5H3CH3C5H3CH3C5H3CH3C5H3CH3C5H3CH3C5H3CH3C2H2C2H2C2H2C2H2C2H2C2H2C2H2C2H2C2H2C2H2C2H2C2H2CNCNCNCNCNCNCNCNCNCNCNCNCNCNCNCNCNCNCNCNCNCNCNCNCNCNCNCNCNCNCNCNCNCNCNCNCNCNCNCNCNCNCNCNCNCNCNCNCNCNCNCNCNCNCNCNCNCNCNCNCNCNCNCNCNCNCNCNCNCNCNCNC2H2C2H2C2H2C2H2C2H2C2H2C5H3CH3C5H3CH3C5H3CH3C5H3CH3C5H3CH3C5H3CH3C5H3CH3C5H3CH3C5H3CH3C5H3CH3C5H3CH3C5H3CH3C2H2C2H2C2H2C2H2C2H2C2H2C5H3CH3C5H3CH3C5H3CH3C5H3CH3C5H3CH3C5H3CH3C5H3CH3C5H3CH3C5H3CH3C5H3CH3C5H3CH3C5H3CH3
_chemical_formula_sum              "C360 H288 N72"
_cell_length_a       53.6534
_cell_length_b       53.6534
_cell_length_c       14.8003
_cell_angle_alpha    90
_cell_angle_beta     90
_cell_angle_gamma    120

_space_group_name_H-M_alt    "P 1"
_space_group_IT_number       1

loop_
  _space_group_symop_operation_xyz
  'x, y, z'

loop_
  _atom_site_type_symbol
  _atom_site_label
  _atom_site_symmetry_multiplicity
  _atom_site_fract_x
  _atom_site_fract_y
  _atom_site_fract_z
  _atom_site_occupancy
  C   C1        1.0  0.12002  0.40015  0.31039  1.0000
  C   C2        1.0  0.14828  0.46143  0.31213  1.0000
  C   C3        1.0  0.15073  0.44688  0.23467  1.0000
  C   C4        1.0  0.13644  0.41602  0.23364  1.0000
  C   C5        1.0  0.16851  0.46376  0.15512  1.0000
  H   H1        1.0  0.17755  0.48695  0.16125  1.0000
  H   H2        1.0  0.15533  0.45737  0.09415  1.0000
  H   H3        1.0  0.18641  0.45981  0.14563  1.0000
  C   C6        1.0  0.13887  0.40072  0.15225  1.0000
  H   H4        1.0  0.12612  0.37735  0.15612  1.0000
  H   H5        1.0  0.16126  0.40643  0.14238  1.0000
  H   H6        1.0  0.13136  0.40684  0.09231  1.0000
  C   C7        1.0  0.61670  0.72321  0.31046  1.0000
  C   C8        1.0  0.55545  0.69022  0.31221  1.0000
  C   C9        1.0  0.56997  0.70720  0.23471  1.0000
  C   C10       1.0  0.60083  0.72375  0.23369  1.0000
  C   C11       1.0  0.55309  0.70809  0.15515  1.0000
  H   H7        1.0  0.52991  0.69396  0.16130  1.0000
  H   H8        1.0  0.55948  0.70130  0.09419  1.0000
  H   H9        1.0  0.55705  0.72994  0.14562  1.0000
  C   C12       1.0  0.61614  0.74147  0.15227  1.0000
  H   H10       1.0  0.63951  0.75208  0.15614  1.0000
  H   H11       1.0  0.61044  0.75816  0.14237  1.0000
  H   H12       1.0  0.61001  0.72783  0.09236  1.0000
  C   C13       1.0  0.29367  0.89687  0.31028  1.0000
  C   C14       1.0  0.32662  0.86855  0.31195  1.0000
  C   C15       1.0  0.30962  0.86610  0.23452  1.0000
  C   C16       1.0  0.29308  0.88042  0.23355  1.0000
  C   C17       1.0  0.30869  0.84831  0.15495  1.0000
  H   H13       1.0  0.32281  0.83924  0.16102  1.0000
  H   H14       1.0  0.31546  0.86148  0.09398  1.0000
  H   H15       1.0  0.28683  0.83043  0.14550  1.0000
  C   C18       1.0  0.27533  0.87799  0.15221  1.0000
  H   H16       1.0  0.26473  0.89076  0.15611  1.0000
  H   H17       1.0  0.25862  0.85561  0.14239  1.0000
  H   H18       1.0  0.28894  0.88548  0.09224  1.0000
  C   C19       1.0  0.90023  0.61331  0.31039  1.0000
  C   C20       1.0  0.87196  0.55203  0.31182  1.0000
  C   C21       1.0  0.86955  0.56661  0.23444  1.0000
  C   C22       1.0  0.88385  0.59748  0.23354  1.0000
  C   C23       1.0  0.85179  0.54977  0.15481  1.0000
  H   H19       1.0  0.84273  0.52659  0.16087  1.0000
  H   H20       1.0  0.86499  0.55619  0.09388  1.0000
  H   H21       1.0  0.83390  0.55373  0.14529  1.0000
  C   C24       1.0  0.88145  0.61282  0.15219  1.0000
  H   H22       1.0  0.89420  0.63619  0.15617  1.0000
  H   H23       1.0  0.85907  0.60712  0.14224  1.0000
  H   H24       1.0  0.88899  0.60673  0.09226  1.0000
  C   C25       1.0  0.40352  0.29024  0.31033  1.0000
  C   C26       1.0  0.46480  0.32326  0.31208  1.0000
  C   C27       1.0  0.45026  0.30626  0.23462  1.0000
  C   C28       1.0  0.41940  0.28970  0.23359  1.0000
  C   C29       1.0  0.46714  0.30536  0.15509  1.0000
  H   H25       1.0  0.49032  0.31950  0.16122  1.0000
  H   H26       1.0  0.46074  0.31214  0.09411  1.0000
  H   H27       1.0  0.46319  0.28351  0.14560  1.0000
  C   C30       1.0  0.40409  0.27196  0.15220  1.0000
  H   H28       1.0  0.38073  0.26133  0.15606  1.0000
  H   H29       1.0  0.40980  0.25527  0.14234  1.0000
  H   H30       1.0  0.41022  0.28558  0.09226  1.0000
  C   C31       1.0  0.72657  0.11662  0.31051  1.0000
  C   C32       1.0  0.69358  0.14487  0.31224  1.0000
  C   C33       1.0  0.71056  0.14733  0.23475  1.0000
  C   C34       1.0  0.72711  0.13303  0.23373  1.0000
  C   C35       1.0  0.71145  0.16510  0.15519  1.0000
  H   H31       1.0  0.69732  0.17416  0.16134  1.0000
  H   H32       1.0  0.70466  0.15193  0.09424  1.0000
  H   H33       1.0  0.73330  0.18300  0.14567  1.0000
  C   C36       1.0  0.74484  0.13545  0.15233  1.0000
  H   H34       1.0  0.75545  0.12269  0.15619  1.0000
  H   H35       1.0  0.76153  0.15783  0.14243  1.0000
  H   H36       1.0  0.73120  0.12794  0.09240  1.0000
  C   C37       1.0  0.41974  0.12015  0.27525  1.0000
  C   C38       1.0  0.44987  0.13396  0.27754  1.0000
  H   H37       1.0  0.46080  0.13867  0.21742  1.0000
  H   H38       1.0  0.40968  0.11479  0.21360  1.0000
  C   C39       1.0  0.71390  0.59715  0.27535  1.0000
  C   C40       1.0  0.69757  0.56702  0.27762  1.0000
  H   H39       1.0  0.69134  0.55609  0.21750  1.0000
  H   H40       1.0  0.71860  0.60720  0.21370  1.0000
  C   C41       1.0  0.89671  0.30291  0.27510  1.0000
  C   C42       1.0  0.88291  0.31924  0.27739  1.0000
  H   H41       1.0  0.87821  0.32546  0.21725  1.0000
  H   H42       1.0  0.90206  0.29821  0.21345  1.0000
  C   C43       1.0  0.60053  0.89334  0.27508  1.0000
  C   C44       1.0  0.57040  0.87955  0.27735  1.0000
  H   H43       1.0  0.55947  0.87484  0.21722  1.0000
  H   H44       1.0  0.61059  0.89868  0.21344  1.0000
  C   C45       1.0  0.30635  0.41638  0.27528  1.0000
  C   C46       1.0  0.32267  0.44651  0.27758  1.0000
  H   H45       1.0  0.32889  0.45744  0.21745  1.0000
  H   H46       1.0  0.30165  0.40632  0.21362  1.0000
  C   C47       1.0  0.12348  0.71052  0.27535  1.0000
  C   C48       1.0  0.13728  0.69418  0.27763  1.0000
  H   H47       1.0  0.14197  0.68795  0.21750  1.0000
  H   H48       1.0  0.11812  0.71521  0.21370  1.0000
  C   C49       1.0  0.29118  0.54237  0.30234  1.0000
  C   C50       1.0  0.26500  0.54217  0.30010  1.0000
  H   H49       1.0  0.25960  0.54887  0.24221  1.0000
  H   H50       1.0  0.30395  0.54913  0.24586  1.0000
  C   C51       1.0  0.47452  0.75221  0.30224  1.0000
  C   C52       1.0  0.47472  0.72624  0.30006  1.0000
  H   H51       1.0  0.46800  0.71412  0.24220  1.0000
  H   H52       1.0  0.46776  0.75822  0.24575  1.0000
  C   C53       1.0  0.26465  0.72566  0.30232  1.0000
  C   C54       1.0  0.29063  0.75182  0.30008  1.0000
  H   H53       1.0  0.30274  0.75721  0.24221  1.0000
  H   H54       1.0  0.25863  0.71287  0.24586  1.0000
  C   C55       1.0  0.72905  0.47113  0.30235  1.0000
  C   C56       1.0  0.75522  0.47132  0.30008  1.0000
  H   H55       1.0  0.76060  0.46459  0.24222  1.0000
  H   H56       1.0  0.71626  0.46435  0.24590  1.0000
  C   C57       1.0  0.54574  0.26131  0.30228  1.0000
  C   C58       1.0  0.54554  0.28728  0.30004  1.0000
  H   H57       1.0  0.55224  0.29939  0.24214  1.0000
  H   H58       1.0  0.55249  0.25529  0.24579  1.0000
  C   C59       1.0  0.75556  0.28778  0.30230  1.0000
  C   C60       1.0  0.72959  0.26161  0.30013  1.0000
  H   H59       1.0  0.71746  0.25621  0.24228  1.0000
  H   H60       1.0  0.76157  0.30055  0.24581  1.0000
  C   C61       1.0  0.17883  0.61774  0.33743  1.0000
  C   C62       1.0  0.17869  0.56438  0.33418  1.0000
  C   C63       1.0  0.16859  0.57296  0.25736  1.0000
  C   C64       1.0  0.16848  0.59975  0.25926  1.0000
  C   C65       1.0  0.15979  0.55523  0.17274  1.0000
  H   H61       1.0  0.16151  0.53591  0.17604  1.0000
  H   H62       1.0  0.17338  0.56789  0.11653  1.0000
  H   H63       1.0  0.13741  0.54836  0.15695  1.0000
  C   C66       1.0  0.15907  0.60939  0.17751  1.0000
  H   H64       1.0  0.15975  0.62988  0.18541  1.0000
  H   H65       1.0  0.13690  0.59348  0.16067  1.0000
  H   H66       1.0  0.17292  0.61184  0.12027  1.0000
  C   C67       1.0  0.39912  0.56450  0.33751  1.0000
  C   C68       1.0  0.45248  0.61771  0.33424  1.0000
  C   C69       1.0  0.44390  0.59903  0.25743  1.0000
  C   C70       1.0  0.41711  0.57213  0.25934  1.0000
  C   C71       1.0  0.46163  0.60796  0.17281  1.0000
  H   H67       1.0  0.48096  0.62899  0.17611  1.0000
  H   H68       1.0  0.44898  0.60888  0.11660  1.0000
  H   H69       1.0  0.46849  0.59244  0.15703  1.0000
  C   C72       1.0  0.40746  0.55308  0.17760  1.0000
  H   H70       1.0  0.38697  0.53328  0.18548  1.0000
  H   H71       1.0  0.42336  0.54682  0.16076  1.0000
  H   H72       1.0  0.40502  0.56449  0.12035  1.0000
  C   C73       1.0  0.45242  0.83805  0.33737  1.0000
  C   C74       1.0  0.39918  0.83814  0.33410  1.0000
  C   C75       1.0  0.41785  0.84826  0.25728  1.0000
  C   C76       1.0  0.44476  0.84839  0.25919  1.0000
  C   C77       1.0  0.40891  0.85704  0.17265  1.0000
  H   H73       1.0  0.38786  0.85530  0.17592  1.0000
  H   H74       1.0  0.40801  0.84347  0.11644  1.0000
  H   H75       1.0  0.42440  0.87943  0.15688  1.0000
  C   C78       1.0  0.46381  0.85780  0.17744  1.0000
  H   H76       1.0  0.48363  0.85715  0.18534  1.0000
  H   H77       1.0  0.47004  0.87996  0.16058  1.0000
  H   H78       1.0  0.45242  0.84395  0.12021  1.0000
  C   C79       1.0  0.84138  0.39573  0.33734  1.0000
  C   C80       1.0  0.84149  0.44906  0.33405  1.0000
  C   C81       1.0  0.85163  0.44051  0.25727  1.0000
  C   C82       1.0  0.85175  0.41372  0.25918  1.0000
  C   C83       1.0  0.86044  0.45824  0.17266  1.0000
  H   H79       1.0  0.85870  0.47755  0.17592  1.0000
  H   H80       1.0  0.84688  0.44558  0.11641  1.0000
  H   H81       1.0  0.88283  0.46513  0.15695  1.0000
  C   C84       1.0  0.86118  0.40409  0.17747  1.0000
  H   H82       1.0  0.86051  0.38361  0.18536  1.0000
  H   H83       1.0  0.88335  0.42002  0.16067  1.0000
  H   H84       1.0  0.84735  0.40164  0.12019  1.0000
  C   C85       1.0  0.62113  0.44902  0.33743  1.0000
  C   C86       1.0  0.56774  0.39583  0.33421  1.0000
  C   C87       1.0  0.57634  0.41449  0.25735  1.0000
  C   C88       1.0  0.60314  0.44138  0.25924  1.0000
  C   C89       1.0  0.55862  0.40555  0.17272  1.0000
  H   H85       1.0  0.53928  0.38454  0.17604  1.0000
  H   H86       1.0  0.57127  0.40461  0.11654  1.0000
  H   H87       1.0  0.55178  0.42108  0.15686  1.0000
  C   C90       1.0  0.61280  0.46043  0.17748  1.0000
  H   H88       1.0  0.63329  0.48022  0.18535  1.0000
  H   H89       1.0  0.59690  0.46670  0.16061  1.0000
  H   H90       1.0  0.61523  0.44901  0.12025  1.0000
  C   C91       1.0  0.56785  0.17548  0.33750  1.0000
  C   C92       1.0  0.62106  0.17532  0.33425  1.0000
  C   C93       1.0  0.60238  0.16523  0.25743  1.0000
  C   C94       1.0  0.57549  0.16513  0.25932  1.0000
  C   C95       1.0  0.61132  0.15643  0.17281  1.0000
  H   H91       1.0  0.63234  0.15813  0.17613  1.0000
  H   H92       1.0  0.61225  0.17002  0.11661  1.0000
  H   H93       1.0  0.59579  0.13406  0.15700  1.0000
  C   C96       1.0  0.55645  0.15574  0.17756  1.0000
  H   H94       1.0  0.53665  0.15644  0.18544  1.0000
  H   H95       1.0  0.55018  0.13357  0.16071  1.0000
  H   H96       1.0  0.56786  0.16959  0.12033  1.0000
  C   C97       1.0  0.99500  0.27037  0.28474  1.0000
  C   C98       1.0  0.02530  0.28554  0.28340  1.0000
  H   H97       1.0  0.03549  0.28469  0.22589  1.0000
  H   H98       1.0  0.98429  0.25914  0.22809  1.0000
  C   C99       1.0  0.74642  0.72791  0.28464  1.0000
  C   C100      1.0  0.73127  0.74306  0.28331  1.0000
  H   H99       1.0  0.73207  0.75406  0.22575  1.0000
  H   H100      1.0  0.75762  0.72840  0.22793  1.0000
  C   C101      1.0  0.28894  0.02187  0.28479  1.0000
  C   C102      1.0  0.27380  0.99157  0.28343  1.0000
  H   H101      1.0  0.26280  0.98138  0.22588  1.0000
  H   H102      1.0  0.28845  0.03258  0.22810  1.0000
  C   C103      1.0  0.02525  0.74304  0.28458  1.0000
  C   C104      1.0  0.99494  0.72787  0.28324  1.0000
  H   H103      1.0  0.98475  0.72867  0.22569  1.0000
  H   H104      1.0  0.03595  0.75423  0.22787  1.0000
  C   C105      1.0  0.27378  0.28556  0.28477  1.0000
  C   C106      1.0  0.28893  0.27041  0.28336  1.0000
  H   H105      1.0  0.28810  0.25939  0.22580  1.0000
  H   H106      1.0  0.26256  0.28506  0.22812  1.0000
  C   C107      1.0  0.73131  0.99161  0.28468  1.0000
  C   C108      1.0  0.74645  0.02192  0.28337  1.0000
  H   H107      1.0  0.75745  0.03211  0.22583  1.0000
  H   H108      1.0  0.73181  0.98092  0.22798  1.0000
  C   C109      1.0  0.15516  0.32176  0.26821  1.0000
  C   C110      1.0  0.18136  0.32172  0.26986  1.0000
  H   H109      1.0  0.19009  0.32054  0.20953  1.0000
  H   H110      1.0  0.14582  0.32053  0.20672  1.0000
  C   C111      1.0  0.69518  0.83677  0.26812  1.0000
  C   C112      1.0  0.69524  0.86302  0.26971  1.0000
  H   H111      1.0  0.69649  0.87296  0.20937  1.0000
  H   H112      1.0  0.69647  0.82867  0.20667  1.0000
  C   C113      1.0  0.18014  0.86172  0.26826  1.0000
  C   C114      1.0  0.15389  0.83553  0.26992  1.0000
  H   H113      1.0  0.14399  0.82679  0.20958  1.0000
  H   H114      1.0  0.18828  0.87105  0.20677  1.0000
  C   C115      1.0  0.86510  0.69169  0.26836  1.0000
  C   C116      1.0  0.83891  0.69175  0.27000  1.0000
  H   H115      1.0  0.83017  0.69292  0.20965  1.0000
  H   H116      1.0  0.87443  0.69288  0.20688  1.0000
  C   C117      1.0  0.32512  0.17672  0.26816  1.0000
  C   C118      1.0  0.32508  0.15047  0.26982  1.0000
  H   H117      1.0  0.32390  0.14056  0.20950  1.0000
  H   H118      1.0  0.32390  0.18483  0.20667  1.0000
  C   C119      1.0  0.84013  0.15171  0.26812  1.0000
  C   C120      1.0  0.86638  0.17790  0.26973  1.0000
  H   H119      1.0  0.87631  0.18659  0.20938  1.0000
  H   H120      1.0  0.83201  0.14234  0.20667  1.0000
  C   C121      1.0  0.16828  0.49079  0.32905  1.0000
  N   N1        1.0  0.16214  0.51257  0.32550  1.0000
  C   C122      1.0  0.18345  0.54056  0.33628  1.0000
  N   N2        1.0  0.21085  0.54625  0.35122  1.0000
  C   C123      1.0  0.21716  0.52481  0.35579  1.0000
  N   N3        1.0  0.19581  0.49732  0.34395  1.0000
  C   C124      1.0  0.52608  0.68088  0.32913  1.0000
  N   N4        1.0  0.50430  0.65296  0.32558  1.0000
  C   C125      1.0  0.47631  0.64629  0.33633  1.0000
  N   N5        1.0  0.47062  0.66801  0.35124  1.0000
  C   C126      1.0  0.49208  0.69576  0.35582  1.0000
  N   N6        1.0  0.51956  0.70189  0.34399  1.0000
  C   C127      1.0  0.33598  0.84854  0.32874  1.0000
  N   N7        1.0  0.36391  0.85469  0.32534  1.0000
  C   C128      1.0  0.37059  0.83338  0.33620  1.0000
  N   N8        1.0  0.34888  0.80598  0.35116  1.0000
  C   C129      1.0  0.32113  0.79967  0.35569  1.0000
  N   N9        1.0  0.31498  0.82101  0.34375  1.0000
  C   C130      1.0  0.85194  0.52267  0.32872  1.0000
  N   N10       1.0  0.85807  0.50089  0.32528  1.0000
  C   C131      1.0  0.83675  0.47290  0.33616  1.0000
  N   N11       1.0  0.80936  0.46723  0.35114  1.0000
  C   C132      1.0  0.80307  0.48868  0.35568  1.0000
  N   N12       1.0  0.82442  0.51616  0.34372  1.0000
  C   C133      1.0  0.49417  0.33263  0.32901  1.0000
  N   N13       1.0  0.51594  0.36055  0.32549  1.0000
  C   C134      1.0  0.54393  0.36723  0.33628  1.0000
  N   N14       1.0  0.54963  0.34553  0.35120  1.0000
  C   C135      1.0  0.52819  0.31777  0.35574  1.0000
  N   N15       1.0  0.50070  0.31163  0.34389  1.0000
  C   C136      1.0  0.68423  0.16489  0.32917  1.0000
  N   N16       1.0  0.65631  0.15876  0.32560  1.0000
  C   C137      1.0  0.64964  0.18008  0.33636  1.0000
  N   N17       1.0  0.67136  0.20748  0.35128  1.0000
  C   C138      1.0  0.69911  0.21377  0.35588  1.0000
  N   N18       1.0  0.70524  0.19242  0.34405  1.0000
  C   C139      1.0  0.49446  0.16458  0.35412  1.0000
  N   N19       1.0  0.51621  0.15863  0.34395  1.0000
  C   C140      1.0  0.54421  0.18041  0.34244  1.0000
  N   N20       1.0  0.55007  0.20804  0.35299  1.0000
  C   C141      1.0  0.52865  0.21419  0.36428  1.0000
  N   N21       1.0  0.50107  0.19230  0.36470  1.0000
  C   C142      1.0  0.68360  0.52243  0.35418  1.0000
  N   N22       1.0  0.65591  0.50067  0.34393  1.0000
  C   C143      1.0  0.64969  0.47267  0.34236  1.0000
  N   N23       1.0  0.67146  0.46682  0.35298  1.0000
  C   C144      1.0  0.69903  0.48824  0.36434  1.0000
  N   N24       1.0  0.70472  0.51582  0.36478  1.0000
  C   C145      1.0  0.85231  0.33324  0.35384  1.0000
  N   N25       1.0  0.85825  0.36094  0.34376  1.0000
  C   C146      1.0  0.83647  0.36716  0.34225  1.0000
  N   N26       1.0  0.80885  0.34539  0.35288  1.0000
  C   C147      1.0  0.80270  0.31782  0.36419  1.0000
  N   N27       1.0  0.82459  0.31213  0.36455  1.0000
  C   C148      1.0  0.52582  0.84896  0.35384  1.0000
  N   N28       1.0  0.50406  0.85490  0.34376  1.0000
  C   C149      1.0  0.47606  0.83313  0.34224  1.0000
  N   N29       1.0  0.47020  0.80550  0.35287  1.0000
  C   C150      1.0  0.49162  0.79935  0.36416  1.0000
  N   N30       1.0  0.51921  0.82124  0.36452  1.0000
  C   C151      1.0  0.33664  0.49109  0.35416  1.0000
  N   N31       1.0  0.36434  0.51285  0.34398  1.0000
  C   C152      1.0  0.37056  0.54085  0.34247  1.0000
  N   N32       1.0  0.34879  0.54671  0.35303  1.0000
  C   C153      1.0  0.32122  0.52529  0.36432  1.0000
  N   N33       1.0  0.31552  0.49770  0.36474  1.0000
  C   C154      1.0  0.16791  0.68022  0.35417  1.0000
  N   N34       1.0  0.16197  0.65253  0.34393  1.0000
  C   C155      1.0  0.18375  0.64630  0.34235  1.0000
  N   N35       1.0  0.21137  0.66807  0.35295  1.0000
  C   C156      1.0  0.21752  0.69564  0.36432  1.0000
  N   N36       1.0  0.19563  0.70134  0.36476  1.0000
  C   C157      1.0  0.12055  0.33256  0.33685  1.0000
  N   N37       1.0  0.09173  0.31337  0.34616  1.0000
  C   C158      1.0  0.07177  0.32219  0.34253  1.0000
  N   N38       1.0  0.08134  0.35080  0.33151  1.0000
  C   C159      1.0  0.10977  0.37029  0.32192  1.0000
  N   N39       1.0  0.12895  0.36082  0.32581  1.0000
  C   C160      1.0  0.68429  0.79134  0.33681  1.0000
  N   N40       1.0  0.70349  0.78172  0.34614  1.0000
  C   C161      1.0  0.69467  0.75293  0.34255  1.0000
  N   N41       1.0  0.66606  0.73389  0.33157  1.0000
  C   C162      1.0  0.64656  0.74282  0.32198  1.0000
  N   N42       1.0  0.65603  0.77147  0.32583  1.0000
  C   C163      1.0  0.22554  0.89631  0.33703  1.0000
  N   N43       1.0  0.23516  0.92514  0.34630  1.0000
  C   C164      1.0  0.26395  0.94510  0.34267  1.0000
  N   N44       1.0  0.28299  0.93554  0.33155  1.0000
  C   C165      1.0  0.27406  0.90711  0.32193  1.0000
  N   N45       1.0  0.24541  0.88793  0.32587  1.0000
  C   C166      1.0  0.89968  0.68088  0.33720  1.0000
  N   N46       1.0  0.92851  0.70009  0.34630  1.0000
  C   C167      1.0  0.94848  0.69127  0.34255  1.0000
  N   N47       1.0  0.93891  0.66267  0.33153  1.0000
  C   C168      1.0  0.91047  0.64316  0.32204  1.0000
  N   N48       1.0  0.89129  0.65263  0.32603  1.0000
  C   C169      1.0  0.33592  0.22212  0.33678  1.0000
  N   N49       1.0  0.31673  0.23176  0.34610  1.0000
  C   C170      1.0  0.32556  0.26055  0.34246  1.0000
  N   N50       1.0  0.35417  0.27958  0.33144  1.0000
  C   C171      1.0  0.37366  0.27064  0.32185  1.0000
  N   N51       1.0  0.36418  0.24198  0.32574  1.0000
  C   C172      1.0  0.79471  0.11717  0.33685  1.0000
  N   N52       1.0  0.78509  0.08834  0.34618  1.0000
  C   C173      1.0  0.75630  0.06838  0.34262  1.0000
  N   N53       1.0  0.73725  0.07794  0.33163  1.0000
  C   C174      1.0  0.74618  0.10637  0.32203  1.0000
  N   N54       1.0  0.77484  0.12555  0.32587  1.0000
  C   C175      1.0  0.33615  0.11674  0.34386  1.0000
  N   N55       1.0  0.31664  0.08781  0.34684  1.0000
  C   C176      1.0  0.32542  0.06778  0.34837  1.0000
  N   N56       1.0  0.35424  0.07743  0.34864  1.0000
  C   C177      1.0  0.37399  0.10591  0.34518  1.0000
  N   N57       1.0  0.36462  0.12517  0.34497  1.0000
  C   C178      1.0  0.79411  0.68073  0.34393  1.0000
  N   N58       1.0  0.78468  0.70023  0.34680  1.0000
  C   C179      1.0  0.75586  0.69145  0.34818  1.0000
  N   N59       1.0  0.73671  0.66263  0.34858  1.0000
  C   C180      1.0  0.74545  0.64288  0.34530  1.0000
  N   N60       1.0  0.77408  0.65226  0.34511  1.0000
  C   C181      1.0  0.90013  0.22273  0.34345  1.0000
  N   N61       1.0  0.92906  0.23217  0.34662  1.0000
  C   C182      1.0  0.94909  0.26098  0.34814  1.0000
  N   N62       1.0  0.93942  0.28013  0.34849  1.0000
  C   C183      1.0  0.91094  0.27140  0.34505  1.0000
  N   N63       1.0  0.89170  0.24277  0.34475  1.0000
  C   C184      1.0  0.68411  0.89673  0.34345  1.0000
  N   N64       1.0  0.70361  0.92566  0.34661  1.0000
  C   C185      1.0  0.69484  0.94570  0.34811  1.0000
  N   N65       1.0  0.66602  0.93604  0.34849  1.0000
  C   C186      1.0  0.64627  0.90756  0.34505  1.0000
  N   N66       1.0  0.65564  0.88831  0.34474  1.0000
  C   C187      1.0  0.22617  0.33279  0.34389  1.0000
  N   N67       1.0  0.23558  0.31328  0.34685  1.0000
  C   C188      1.0  0.26440  0.32206  0.34839  1.0000
  N   N68       1.0  0.28356  0.35087  0.34866  1.0000
  C   C189      1.0  0.27483  0.37063  0.34520  1.0000
  N   N69       1.0  0.24621  0.36126  0.34501  1.0000
  C   C190      1.0  0.12012  0.79074  0.34390  1.0000
  N   N70       1.0  0.09119  0.78131  0.34676  1.0000
  C   C191      1.0  0.07116  0.75249  0.34815  1.0000
  N   N71       1.0  0.08082  0.73334  0.34856  1.0000
  C   C192      1.0  0.10931  0.74208  0.34530  1.0000
  N   N72       1.0  0.12856  0.77071  0.34510  1.0000
  C   C193      1.0  0.11663  0.41500  0.38374  1.0000
  C   C194      1.0  0.13071  0.44517  0.38490  1.0000
  H   H121      1.0  0.12975  0.45518  0.44272  1.0000
  H   H122      1.0  0.10566  0.40409  0.44053  1.0000
  C   C195      1.0  0.60185  0.70498  0.38385  1.0000
  C   C196      1.0  0.57168  0.68890  0.38504  1.0000
  H   H123      1.0  0.56166  0.67795  0.44287  1.0000
  H   H124      1.0  0.61276  0.70494  0.44065  1.0000
  C   C197      1.0  0.31192  0.90024  0.38359  1.0000
  C   C198      1.0  0.32799  0.88614  0.38472  1.0000
  H   H125      1.0  0.33897  0.88709  0.44251  1.0000
  H   H126      1.0  0.31200  0.91122  0.44039  1.0000
  C   C199      1.0  0.90356  0.59842  0.38374  1.0000
  C   C200      1.0  0.88946  0.56825  0.38476  1.0000
  H   H127      1.0  0.89039  0.55821  0.44257  1.0000
  H   H128      1.0  0.91449  0.60930  0.44061  1.0000
  C   C201      1.0  0.41837  0.30849  0.38366  1.0000
  C   C202      1.0  0.44854  0.32458  0.38484  1.0000
  H   H129      1.0  0.45855  0.33555  0.44265  1.0000
  H   H130      1.0  0.40746  0.30855  0.44044  1.0000
  C   C203      1.0  0.70834  0.11324  0.38389  1.0000
  C   C204      1.0  0.69226  0.12733  0.38507  1.0000
  H   H131      1.0  0.68130  0.12638  0.44290  1.0000
  H   H132      1.0  0.70830  0.10228  0.44069  1.0000
  C   C205      1.0  0.40377  0.11595  0.35507  1.0000
  C   C206      1.0  0.46491  0.14361  0.35989  1.0000
  C   C207      1.0  0.44917  0.13847  0.44226  1.0000
  C   C208      1.0  0.41835  0.12470  0.43986  1.0000
  C   C209      1.0  0.46478  0.14773  0.53081  1.0000
  H   H133      1.0  0.48794  0.15646  0.52546  1.0000
  H   H134      1.0  0.45688  0.12937  0.57648  1.0000
  H   H135      1.0  0.46131  0.16421  0.56162  1.0000
  C   C210      1.0  0.40190  0.12041  0.52584  1.0000
  H   H136      1.0  0.37870  0.10995  0.51705  1.0000
  H   H137      1.0  0.40870  0.14117  0.55773  1.0000
  H   H138      1.0  0.40585  0.10695  0.57218  1.0000
  C   C211      1.0  0.72569  0.61311  0.35516  1.0000
  C   C212      1.0  0.69218  0.55197  0.35997  1.0000
  C   C213      1.0  0.70277  0.56770  0.44234  1.0000
  C   C214      1.0  0.71984  0.59852  0.43996  1.0000
  C   C215      1.0  0.69641  0.55209  0.53088  1.0000
  H   H139      1.0  0.68197  0.52894  0.52552  1.0000
  H   H140      1.0  0.68596  0.56000  0.57655  1.0000
  H   H141      1.0  0.71636  0.55554  0.56171  1.0000
  C   C216      1.0  0.73201  0.61496  0.52594  1.0000
  H   H142      1.0  0.74476  0.63817  0.51717  1.0000
  H   H143      1.0  0.74596  0.60815  0.55782  1.0000
  H   H144      1.0  0.71461  0.61102  0.57228  1.0000
  C   C217      1.0  0.90090  0.29114  0.35492  1.0000
  C   C218      1.0  0.87328  0.32467  0.35973  1.0000
  C   C219      1.0  0.87843  0.31407  0.44208  1.0000
  C   C220      1.0  0.89218  0.29701  0.43971  1.0000
  C   C221      1.0  0.86919  0.32045  0.53061  1.0000
  H   H145      1.0  0.86047  0.33488  0.52523  1.0000
  H   H146      1.0  0.88755  0.33091  0.57627  1.0000
  H   H147      1.0  0.85269  0.30050  0.56147  1.0000
  C   C222      1.0  0.89646  0.28484  0.52571  1.0000
  H   H148      1.0  0.90690  0.27209  0.51693  1.0000
  H   H149      1.0  0.87570  0.27090  0.55763  1.0000
  H   H150      1.0  0.90993  0.30225  0.57201  1.0000
  C   C223      1.0  0.61649  0.89753  0.35492  1.0000
  C   C224      1.0  0.55537  0.86994  0.35972  1.0000
  C   C225      1.0  0.57108  0.87506  0.44211  1.0000
  C   C226      1.0  0.60190  0.88881  0.43972  1.0000
  C   C227      1.0  0.55546  0.86582  0.53063  1.0000
  H   H151      1.0  0.53231  0.85710  0.52524  1.0000
  H   H152      1.0  0.56337  0.88418  0.57629  1.0000
  H   H153      1.0  0.55891  0.84932  0.56148  1.0000
  C   C228      1.0  0.61834  0.89309  0.52571  1.0000
  H   H154      1.0  0.64155  0.90354  0.51693  1.0000
  H   H155      1.0  0.61152  0.87233  0.55763  1.0000
  H   H156      1.0  0.61440  0.90656  0.57202  1.0000
  C   C229      1.0  0.29458  0.40041  0.35509  1.0000
  C   C230      1.0  0.32806  0.46154  0.35993  1.0000
  C   C231      1.0  0.31747  0.44581  0.44230  1.0000
  C   C232      1.0  0.30042  0.41499  0.43990  1.0000
  C   C233      1.0  0.32382  0.46142  0.53084  1.0000
  H   H157      1.0  0.33825  0.48457  0.52550  1.0000
  H   H158      1.0  0.33428  0.45352  0.57651  1.0000
  H   H159      1.0  0.30387  0.45795  0.56167  1.0000
  C   C234      1.0  0.28826  0.39854  0.52587  1.0000
  H   H160      1.0  0.27552  0.37534  0.51708  1.0000
  H   H161      1.0  0.27430  0.40534  0.55777  1.0000
  H   H162      1.0  0.30566  0.40249  0.57220  1.0000
  C   C235      1.0  0.11932  0.72231  0.35516  1.0000
  C   C236      1.0  0.14694  0.68881  0.35997  1.0000
  C   C237      1.0  0.14181  0.69940  0.44234  1.0000
  C   C238      1.0  0.12807  0.71647  0.43996  1.0000
  C   C239      1.0  0.15107  0.69305  0.53088  1.0000
  H   H163      1.0  0.15979  0.67861  0.52552  1.0000
  H   H164      1.0  0.13271  0.68260  0.57656  1.0000
  H   H165      1.0  0.16757  0.71300  0.56169  1.0000
  C   C240      1.0  0.12380  0.72865  0.52594  1.0000
  H   H166      1.0  0.11334  0.74140  0.51716  1.0000
  H   H167      1.0  0.14457  0.74260  0.55780  1.0000
  H   H168      1.0  0.11034  0.71125  0.57229  1.0000
  C   C241      1.0  0.29822  0.53062  0.37660  1.0000
  C   C242      1.0  0.24524  0.53006  0.37185  1.0000
  C   C243      1.0  0.25259  0.51972  0.45048  1.0000
  C   C244      1.0  0.27955  0.52028  0.45317  1.0000
  C   C245      1.0  0.23243  0.50828  0.52950  1.0000
  H   H169      1.0  0.21288  0.50950  0.52165  1.0000
  H   H170      1.0  0.24303  0.52059  0.59011  1.0000
  H   H171      1.0  0.22591  0.48573  0.54075  1.0000
  C   C246      1.0  0.28800  0.51020  0.53603  1.0000
  H   H172      1.0  0.30973  0.51349  0.53352  1.0000
  H   H173      1.0  0.27318  0.48727  0.54633  1.0000
  H   H174      1.0  0.28741  0.52203  0.59512  1.0000
  C   C247      1.0  0.48629  0.77102  0.37646  1.0000
  C   C248      1.0  0.48683  0.71860  0.37182  1.0000
  C   C249      1.0  0.49717  0.73630  0.45042  1.0000
  C   C250      1.0  0.49663  0.76271  0.45307  1.0000
  C   C251      1.0  0.50862  0.72759  0.52947  1.0000
  H   H175      1.0  0.50739  0.70681  0.52166  1.0000
  H   H176      1.0  0.49631  0.72589  0.59008  1.0000
  H   H177      1.0  0.53117  0.74361  0.54071  1.0000
  C   C252      1.0  0.50671  0.78125  0.53590  1.0000
  H   H178      1.0  0.50342  0.79968  0.53335  1.0000
  H   H179      1.0  0.52963  0.78935  0.54621  1.0000
  H   H180      1.0  0.49488  0.76884  0.59500  1.0000
  C   C253      1.0  0.24586  0.71864  0.37655  1.0000
  C   C254      1.0  0.29830  0.77160  0.37182  1.0000
  C   C255      1.0  0.28060  0.76426  0.45041  1.0000
  C   C256      1.0  0.25418  0.73731  0.45311  1.0000
  C   C257      1.0  0.28932  0.78444  0.52940  1.0000
  H   H181      1.0  0.31009  0.80398  0.52153  1.0000
  H   H182      1.0  0.29102  0.77384  0.59004  1.0000
  H   H183      1.0  0.27330  0.79097  0.54060  1.0000
  C   C258      1.0  0.23565  0.72887  0.53598  1.0000
  H   H184      1.0  0.21722  0.70715  0.53350  1.0000
  H   H185      1.0  0.22756  0.74370  0.54624  1.0000
  H   H186      1.0  0.24807  0.72946  0.59508  1.0000
  C   C259      1.0  0.72204  0.48291  0.37657  1.0000
  C   C260      1.0  0.77499  0.48344  0.37181  1.0000
  C   C261      1.0  0.76767  0.49382  0.45040  1.0000
  C   C262      1.0  0.74072  0.49327  0.45311  1.0000
  C   C263      1.0  0.78785  0.50529  0.52935  1.0000
  H   H187      1.0  0.80740  0.50406  0.52148  1.0000
  H   H188      1.0  0.77727  0.49300  0.59002  1.0000
  H   H189      1.0  0.79438  0.52784  0.54053  1.0000
  C   C264      1.0  0.73228  0.50337  0.53598  1.0000
  H   H190      1.0  0.71056  0.50008  0.53351  1.0000
  H   H191      1.0  0.74711  0.52630  0.54620  1.0000
  H   H192      1.0  0.73289  0.49156  0.59509  1.0000
  C   C265      1.0  0.53400  0.24253  0.37655  1.0000
  C   C266      1.0  0.53344  0.29495  0.37180  1.0000
  C   C267      1.0  0.52311  0.27726  0.45044  1.0000
  C   C268      1.0  0.52366  0.25085  0.45312  1.0000
  C   C269      1.0  0.51167  0.28599  0.52946  1.0000
  H   H193      1.0  0.51289  0.30675  0.52161  1.0000
  H   H194      1.0  0.52398  0.28769  0.59007  1.0000
  H   H195      1.0  0.48912  0.26996  0.54072  1.0000
  C   C270      1.0  0.51358  0.23232  0.53599  1.0000
  H   H196      1.0  0.51687  0.21389  0.53348  1.0000
  H   H197      1.0  0.49066  0.22423  0.54630  1.0000
  H   H198      1.0  0.52542  0.24475  0.59508  1.0000
  C   C271      1.0  0.77437  0.29482  0.37650  1.0000
  C   C272      1.0  0.72194  0.24186  0.37191  1.0000
  C   C273      1.0  0.73965  0.24922  0.45048  1.0000
  C   C274      1.0  0.76607  0.27617  0.45311  1.0000
  C   C275      1.0  0.73095  0.22906  0.52952  1.0000
  H   H199      1.0  0.71017  0.20952  0.52173  1.0000
  H   H200      1.0  0.72926  0.23968  0.59014  1.0000
  H   H201      1.0  0.74697  0.22253  0.54073  1.0000
  C   C276      1.0  0.78462  0.28463  0.53593  1.0000
  H   H202      1.0  0.80305  0.30635  0.53338  1.0000
  H   H203      1.0  0.79271  0.26980  0.54622  1.0000
  H   H204      1.0  0.77221  0.28406  0.59504  1.0000
  C   C277      1.0  0.18819  0.60845  0.41259  1.0000
  C   C278      1.0  0.18803  0.58234  0.41108  1.0000
  H   H205      1.0  0.19577  0.57699  0.46673  1.0000
  H   H206      1.0  0.19606  0.62108  0.46916  1.0000
  C   C279      1.0  0.40841  0.58315  0.41267  1.0000
  C   C280      1.0  0.43453  0.60910  0.41115  1.0000
  H   H207      1.0  0.43988  0.62219  0.46680  1.0000
  H   H208      1.0  0.39578  0.57840  0.46924  1.0000
  C   C281      1.0  0.43376  0.82866  0.41251  1.0000
  C   C282      1.0  0.40780  0.82881  0.41101  1.0000
  H   H209      1.0  0.39471  0.82106  0.46665  1.0000
  H   H210      1.0  0.43852  0.82079  0.46907  1.0000
  C   C283      1.0  0.83200  0.40500  0.41248  1.0000
  C   C284      1.0  0.83216  0.43111  0.41097  1.0000
  H   H211      1.0  0.82441  0.43645  0.46660  1.0000
  H   H212      1.0  0.82412  0.39237  0.46905  1.0000
  C   C285      1.0  0.61183  0.43037  0.41259  1.0000
  C   C286      1.0  0.58571  0.40443  0.41109  1.0000
  H   H213      1.0  0.58035  0.39135  0.46674  1.0000
  H   H214      1.0  0.62446  0.43512  0.46915  1.0000
  C   C287      1.0  0.58650  0.18484  0.41267  1.0000
  C   C288      1.0  0.61245  0.18466  0.41116  1.0000
  H   H215      1.0  0.62553  0.19240  0.46682  1.0000
  H   H216      1.0  0.58174  0.19271  0.46925  1.0000
  C   C289      1.0  0.97947  0.27232  0.35881  1.0000
  C   C290      1.0  0.04150  0.30346  0.35586  1.0000
  C   C291      1.0  0.02638  0.30505  0.43326  1.0000
  C   C292      1.0  0.99538  0.28926  0.43505  1.0000
  C   C293      1.0  0.04275  0.32311  0.51298  1.0000
  H   H217      1.0  0.06606  0.33373  0.50630  1.0000
  H   H218      1.0  0.03736  0.30975  0.57337  1.0000
  H   H219      1.0  0.03726  0.33990  0.52404  1.0000
  C   C294      1.0  0.97980  0.29040  0.51771  1.0000
  H   H220      1.0  0.95659  0.27615  0.51533  1.0000
  H   H221      1.0  0.98384  0.31227  0.52774  1.0000
  H   H222      1.0  0.98715  0.28385  0.57703  1.0000
  C   C295      1.0  0.74453  0.71050  0.35880  1.0000
  C   C296      1.0  0.71341  0.74142  0.35589  1.0000
  C   C297      1.0  0.71185  0.72473  0.43332  1.0000
  C   C298      1.0  0.72764  0.70951  0.43511  1.0000
  C   C299      1.0  0.69383  0.72308  0.51312  1.0000
  H   H223      1.0  0.68322  0.73578  0.50643  1.0000
  H   H224      1.0  0.70723  0.73108  0.57343  1.0000
  H   H225      1.0  0.67705  0.70081  0.52431  1.0000
  C   C300      1.0  0.72653  0.69283  0.51782  1.0000
  H   H226      1.0  0.74077  0.68386  0.51541  1.0000
  H   H227      1.0  0.70467  0.67502  0.52801  1.0000
  H   H228      1.0  0.73313  0.70677  0.57707  1.0000
  C   C301      1.0  0.30636  0.03739  0.35895  1.0000
  C   C302      1.0  0.27547  0.97536  0.35597  1.0000
  C   C303      1.0  0.29215  0.99048  0.43344  1.0000
  C   C304      1.0  0.30736  0.02148  0.43524  1.0000
  C   C305      1.0  0.29381  0.97410  0.51321  1.0000
  H   H229      1.0  0.28112  0.95080  0.50650  1.0000
  H   H230      1.0  0.28581  0.97949  0.57354  1.0000
  H   H231      1.0  0.31608  0.97960  0.52440  1.0000
  C   C306      1.0  0.32405  0.03706  0.51796  1.0000
  H   H232      1.0  0.33302  0.06026  0.51556  1.0000
  H   H233      1.0  0.34186  0.03300  0.52811  1.0000
  H   H234      1.0  0.31011  0.02971  0.57721  1.0000
  C   C307      1.0  0.04077  0.74116  0.35876  1.0000
  C   C308      1.0  0.97874  0.71001  0.35582  1.0000
  C   C309      1.0  0.99387  0.70848  0.43330  1.0000
  C   C310      1.0  0.02487  0.72427  0.43508  1.0000
  C   C311      1.0  0.97749  0.69046  0.51312  1.0000
  H   H235      1.0  0.95419  0.67984  0.50642  1.0000
  H   H236      1.0  0.98289  0.70387  0.57340  1.0000
  H   H237      1.0  0.98300  0.67369  0.52436  1.0000
  C   C312      1.0  0.04045  0.72318  0.51781  1.0000
  H   H238      1.0  0.06365  0.73742  0.51540  1.0000
  H   H239      1.0  0.03640  0.70132  0.52804  1.0000
  H   H240      1.0  0.03310  0.72978  0.57704  1.0000
  C   C313      1.0  0.27571  0.30300  0.35893  1.0000
  C   C314      1.0  0.30683  0.27208  0.35583  1.0000
  C   C315      1.0  0.30842  0.28877  0.43330  1.0000
  C   C316      1.0  0.29264  0.30399  0.43515  1.0000
  C   C317      1.0  0.32646  0.29041  0.51304  1.0000
  H   H241      1.0  0.33706  0.27771  0.50630  1.0000
  H   H242      1.0  0.31309  0.28243  0.57339  1.0000
  H   H243      1.0  0.34326  0.31269  0.52418  1.0000
  C   C318      1.0  0.29379  0.32069  0.51788  1.0000
  H   H244      1.0  0.27956  0.32967  0.51553  1.0000
  H   H245      1.0  0.31566  0.33849  0.52798  1.0000
  H   H246      1.0  0.28721  0.30676  0.57714  1.0000
  C   C319      1.0  0.71390  0.97608  0.35884  1.0000
  C   C320      1.0  0.74479  0.03812  0.35594  1.0000
  C   C321      1.0  0.72808  0.02298  0.43335  1.0000
  C   C322      1.0  0.71288  0.99198  0.43511  1.0000
  C   C323      1.0  0.72642  0.03935  0.51313  1.0000
  H   H247      1.0  0.73910  0.06265  0.50646  1.0000
  H   H248      1.0  0.73440  0.03395  0.57347  1.0000
  H   H249      1.0  0.70413  0.03384  0.52427  1.0000
  C   C324      1.0  0.69618  0.97639  0.51779  1.0000
  H   H250      1.0  0.68723  0.95318  0.51537  1.0000
  H   H251      1.0  0.67836  0.98043  0.52792  1.0000
  H   H252      1.0  0.71010  0.98373  0.57707  1.0000
  C   C325      1.0  0.14302  0.32579  0.34767  1.0000
  C   C326      1.0  0.19675  0.32579  0.35103  1.0000
  C   C327      1.0  0.18478  0.32954  0.43289  1.0000
  C   C328      1.0  0.15798  0.32965  0.43117  1.0000
  C   C329      1.0  0.20058  0.33419  0.52047  1.0000
  H   H253      1.0  0.21989  0.33243  0.51544  1.0000
  H   H254      1.0  0.18673  0.31809  0.56979  1.0000
  H   H255      1.0  0.20707  0.35558  0.54675  1.0000
  C   C330      1.0  0.14627  0.33484  0.51672  1.0000
  H   H256      1.0  0.12574  0.33411  0.50879  1.0000
  H   H257      1.0  0.16149  0.35600  0.54392  1.0000
  H   H258      1.0  0.14278  0.31844  0.56661  1.0000
  C   C331      1.0  0.69104  0.82058  0.34758  1.0000
  C   C332      1.0  0.69109  0.87430  0.35084  1.0000
  C   C333      1.0  0.68726  0.85857  0.43270  1.0000
  C   C334      1.0  0.68712  0.83164  0.43105  1.0000
  C   C335      1.0  0.68256  0.86972  0.52020  1.0000
  H   H259      1.0  0.68434  0.89080  0.51511  1.0000
  H   H260      1.0  0.69861  0.87194  0.56967  1.0000
  H   H261      1.0  0.66114  0.85483  0.54632  1.0000
  C   C336      1.0  0.68187  0.81474  0.51660  1.0000
  H   H262      1.0  0.68258  0.79492  0.50872  1.0000
  H   H263      1.0  0.66069  0.80881  0.54363  1.0000
  H   H264      1.0  0.69823  0.82763  0.56659  1.0000
  C   C337      1.0  0.19630  0.87384  0.34774  1.0000
  C   C338      1.0  0.14253  0.82016  0.35111  1.0000
  C   C339      1.0  0.15825  0.83214  0.43296  1.0000
  C   C340      1.0  0.18518  0.85892  0.43127  1.0000
  C   C341      1.0  0.14707  0.81635  0.52053  1.0000
  H   H265      1.0  0.12599  0.79704  0.51548  1.0000
  H   H266      1.0  0.14483  0.83021  0.56982  1.0000
  H   H267      1.0  0.16195  0.80983  0.54687  1.0000
  C   C342      1.0  0.20205  0.87062  0.51686  1.0000
  H   H268      1.0  0.22188  0.89114  0.50895  1.0000
  H   H269      1.0  0.20796  0.85539  0.54413  1.0000
  H   H270      1.0  0.18915  0.87414  0.56667  1.0000
  C   C343      1.0  0.87721  0.68766  0.34786  1.0000
  C   C344      1.0  0.82353  0.68775  0.35117  1.0000
  C   C345      1.0  0.83550  0.68400  0.43303  1.0000
  C   C346      1.0  0.86229  0.68386  0.43138  1.0000
  C   C347      1.0  0.81971  0.67940  0.52060  1.0000
  H   H271      1.0  0.80040  0.68117  0.51552  1.0000
  H   H272      1.0  0.83357  0.69551  0.56989  1.0000
  H   H273      1.0  0.81319  0.65801  0.54696  1.0000
  C   C348      1.0  0.87398  0.67870  0.51699  1.0000
  H   H274      1.0  0.89450  0.67939  0.50910  1.0000
  H   H275      1.0  0.85875  0.65755  0.54427  1.0000
  H   H276      1.0  0.87750  0.69512  0.56679  1.0000
  C   C349      1.0  0.32915  0.19288  0.34762  1.0000
  C   C350      1.0  0.32915  0.13916  0.35100  1.0000
  C   C351      1.0  0.33290  0.15488  0.43285  1.0000
  C   C352      1.0  0.33302  0.18180  0.43112  1.0000
  C   C353      1.0  0.33754  0.14373  0.52044  1.0000
  H   H277      1.0  0.33579  0.12266  0.51542  1.0000
  H   H278      1.0  0.32145  0.14148  0.56975  1.0000
  H   H279      1.0  0.35894  0.15863  0.54672  1.0000
  C   C354      1.0  0.33820  0.19869  0.51667  1.0000
  H   H280      1.0  0.33748  0.21849  0.50873  1.0000
  H   H281      1.0  0.35936  0.20463  0.54387  1.0000
  H   H282      1.0  0.32180  0.18578  0.56656  1.0000
  C   C355      1.0  0.82395  0.13965  0.34760  1.0000
  C   C356      1.0  0.87771  0.19332  0.35084  1.0000
  C   C357      1.0  0.86196  0.18140  0.43269  1.0000
  C   C358      1.0  0.83503  0.15462  0.43105  1.0000
  C   C359      1.0  0.87313  0.19724  0.52019  1.0000
  H   H283      1.0  0.89422  0.21653  0.51511  1.0000
  H   H284      1.0  0.87535  0.18340  0.56964  1.0000
  H   H285      1.0  0.85825  0.20379  0.54636  1.0000
  C   C360      1.0  0.81814  0.14297  0.51663  1.0000
  H   H286      1.0  0.79831  0.12245  0.50875  1.0000
  H   H287      1.0  0.81222  0.15822  0.54371  1.0000
  H   H288      1.0  0.83102  0.13948  0.56658  1.0000
