data_image0
_chemical_formula_structural       C5NCONH2C5NCONH2C5NCONH2C5NCONH2C5NCONH2C5NCONH2C2H2C2H2C2H2C2H2C2H2C2H2C2H2C2H2C2H2C2H2C2H2C2H2C5NCONH2C5NCONH2C5NCONH2C5NCONH2C5NCONH2C5NCONH2C2H2C2H2C2H2C2H2C2H2C2H2C2H2C2H2C2H2C2H2C2H2C2H2C5NCONH2C5NCONH2C5NCONH2C5NCONH2C5NCONH2C5NCONH2C2H2C2H2C2H2C2H2C2H2C2H2C5NCONH2C5NCONH2C5NCONH2C5NCONH2C5NCONH2C5NCONH2CNCNCNCNCNCNCNCNCNCNCNCNCNCNCNCNCNCNCNCNCNCNCNCNCNCNCNCNCNCNCNCNCNCNCNCNCNCNCNCNCNCNCNCNCNCNCNCNCNCNCNCNCNCNCNCNCNCNCNCNCNCNCNCNCNCNCNCNCNCNCNCNCNCNCNCNCNCNCNCNCNCNCNCNCNCNCNCNCNCNCNCNCNCNCNCNCNCNCNCNCNCNCNCNCNCNCNCNC2H2C2H2C2H2C2H2C2H2C2H2C5NCONH2C5NCONH2C5NCONH2C5NCONH2C5NCONH2C5NCONH2C5NCONH2C5NCONH2C5NCONH2C5NCONH2C5NCONH2C5NCONH2C2H2C2H2C2H2C2H2C2H2C2H2C5NCONH2C5NCONH2C5NCONH2C5NCONH2C5NCONH2C5NCONH2C5NCONH2C5NCONH2C5NCONH2C5NCONH2C5NCONH2C5NCONH2C2H2C2H2C2H2C2H2C2H2C2H2C5NCONH2C5NCONH2C5NCONH2C5NCONH2C5NCONH2C5NCONH2C2H2C2H2C2H2C2H2C2H2C2H2
_chemical_formula_sum              "C540 N216 O54 H216"
_cell_length_a       67.2566
_cell_length_b       67.2566
_cell_length_c       14.8891
_cell_angle_alpha    90
_cell_angle_beta     90
_cell_angle_gamma    120

_space_group_name_H-M_alt    "P 1"
_space_group_IT_number       1

loop_
  _space_group_symop_operation_xyz
  'x, y, z'

loop_
  _atom_site_type_symbol
  _atom_site_label
  _atom_site_symmetry_multiplicity
  _atom_site_fract_x
  _atom_site_fract_y
  _atom_site_fract_z
  _atom_site_occupancy
  C   C1        1.0  0.13389  0.32124  0.28583  1.0000
  C   C2        1.0  0.14564  0.33773  0.21692  1.0000
  C   C3        1.0  0.14511  0.35868  0.21549  1.0000
  C   C4        1.0  0.13270  0.36327  0.28200  1.0000
  C   C5        1.0  0.15746  0.37433  0.14521  1.0000
  N   N1        1.0  0.16872  0.36907  0.08316  1.0000
  C   C6        1.0  0.16906  0.34923  0.08533  1.0000
  O   O1        1.0  0.15745  0.39419  0.13119  1.0000
  N   N2        1.0  0.15752  0.33376  0.15091  1.0000
  H   H1        1.0  0.17755  0.34585  0.03605  1.0000
  H   H2        1.0  0.15730  0.31920  0.14719  1.0000
  C   C7        1.0  0.68805  0.81453  0.28500  1.0000
  C   C8        1.0  0.67157  0.80985  0.21611  1.0000
  C   C9        1.0  0.65061  0.78839  0.21461  1.0000
  C   C10       1.0  0.64601  0.77136  0.28096  1.0000
  C   C11       1.0  0.63497  0.78515  0.14439  1.0000
  N   N3        1.0  0.64025  0.80170  0.08243  1.0000
  C   C12       1.0  0.66010  0.82187  0.08471  1.0000
  O   O2        1.0  0.61512  0.76528  0.13014  1.0000
  N   N4        1.0  0.67556  0.82574  0.15024  1.0000
  H   H3        1.0  0.66350  0.83375  0.03545  1.0000
  H   H4        1.0  0.69014  0.84008  0.14657  1.0000
  C   C13       1.0  0.19473  0.87532  0.28495  1.0000
  C   C14       1.0  0.19934  0.86343  0.21624  1.0000
  C   C15       1.0  0.22079  0.86392  0.21465  1.0000
  C   C16       1.0  0.23790  0.87643  0.28075  1.0000
  C   C17       1.0  0.22397  0.85144  0.14455  1.0000
  N   N5        1.0  0.20738  0.84012  0.08282  1.0000
  C   C18       1.0  0.18721  0.83980  0.08523  1.0000
  O   O3        1.0  0.24383  0.85146  0.13007  1.0000
  N   N6        1.0  0.18339  0.85146  0.15065  1.0000
  H   H5        1.0  0.17530  0.83130  0.03612  1.0000
  H   H6        1.0  0.16908  0.85175  0.14694  1.0000
  C   C19       1.0  0.87697  0.68600  0.28316  1.0000
  C   C20       1.0  0.86485  0.66956  0.21448  1.0000
  C   C21       1.0  0.86511  0.64848  0.21223  1.0000
  C   C22       1.0  0.87772  0.64379  0.27747  1.0000
  C   C23       1.0  0.85243  0.63291  0.14219  1.0000
  N   N7        1.0  0.84112  0.63836  0.08106  1.0000
  C   C24       1.0  0.84099  0.65830  0.08410  1.0000
  O   O4        1.0  0.85227  0.61301  0.12702  1.0000
  N   N8        1.0  0.85285  0.67370  0.14950  1.0000
  H   H7        1.0  0.83248  0.66183  0.03543  1.0000
  H   H8        1.0  0.85328  0.68837  0.14619  1.0000
  C   C25       1.0  0.32330  0.19269  0.28275  1.0000
  C   C26       1.0  0.33986  0.19715  0.21440  1.0000
  C   C27       1.0  0.36090  0.21854  0.21264  1.0000
  C   C28       1.0  0.36549  0.23574  0.27830  1.0000
  C   C29       1.0  0.37652  0.22159  0.14257  1.0000
  N   N9        1.0  0.37119  0.20493  0.08115  1.0000
  C   C30       1.0  0.35131  0.18479  0.08384  1.0000
  O   O5        1.0  0.39639  0.24141  0.12782  1.0000
  N   N10       1.0  0.33584  0.18111  0.14912  1.0000
  H   H9        1.0  0.34787  0.17283  0.03494  1.0000
  H   H10       1.0  0.32121  0.16684  0.14547  1.0000
  C   C31       1.0  0.81662  0.13251  0.28205  1.0000
  C   C32       1.0  0.81227  0.14467  0.21367  1.0000
  C   C33       1.0  0.79090  0.14436  0.21172  1.0000
  C   C34       1.0  0.77364  0.13173  0.27714  1.0000
  C   C35       1.0  0.78792  0.15698  0.14165  1.0000
  N   N11       1.0  0.80465  0.16834  0.08043  1.0000
  C   C36       1.0  0.82476  0.16855  0.08334  1.0000
  O   O6        1.0  0.76814  0.15707  0.12666  1.0000
  N   N12       1.0  0.82837  0.15671  0.14862  1.0000
  H   H11       1.0  0.83676  0.17709  0.03459  1.0000
  H   H12       1.0  0.84263  0.15632  0.14513  1.0000
  C   C37       1.0  0.35258  0.12237  0.28912  1.0000
  C   C38       1.0  0.33230  0.12344  0.28201  1.0000
  H   H13       1.0  0.32721  0.12521  0.21904  1.0000
  H   H14       1.0  0.36151  0.12401  0.23111  1.0000
  C   C39       1.0  0.77733  0.65675  0.28851  1.0000
  C   C40       1.0  0.79877  0.67696  0.28202  1.0000
  H   H15       1.0  0.80580  0.68203  0.21928  1.0000
  H   H16       1.0  0.77024  0.64780  0.23034  1.0000
  C   C41       1.0  0.88684  0.23204  0.28913  1.0000
  C   C42       1.0  0.88567  0.21064  0.28214  1.0000
  H   H17       1.0  0.88379  0.20372  0.21921  1.0000
  H   H18       1.0  0.88501  0.23920  0.23111  1.0000
  C   C43       1.0  0.65868  0.88502  0.28834  1.0000
  C   C44       1.0  0.67887  0.88375  0.28178  1.0000
  H   H19       1.0  0.68395  0.88185  0.21896  1.0000
  H   H20       1.0  0.64975  0.88322  0.23017  1.0000
  C   C45       1.0  0.23381  0.35041  0.28846  1.0000
  C   C46       1.0  0.21238  0.33019  0.28195  1.0000
  H   H21       1.0  0.20542  0.32499  0.21915  1.0000
  H   H22       1.0  0.24097  0.35926  0.23021  1.0000
  C   C47       1.0  0.12405  0.77541  0.28801  1.0000
  C   C48       1.0  0.12534  0.79688  0.28164  1.0000
  H   H23       1.0  0.12715  0.80386  0.21886  1.0000
  H   H24       1.0  0.12579  0.76828  0.22975  1.0000
  C   C49       1.0  0.21576  0.44203  0.32042  1.0000
  C   C50       1.0  0.23639  0.44149  0.32842  1.0000
  H   H25       1.0  0.24770  0.44755  0.27574  1.0000
  H   H26       1.0  0.21304  0.44847  0.26226  1.0000
  C   C51       1.0  0.56736  0.77566  0.31914  1.0000
  C   C52       1.0  0.56794  0.79685  0.32726  1.0000
  H   H27       1.0  0.56197  0.80217  0.27449  1.0000
  H   H28       1.0  0.56102  0.76655  0.26081  1.0000
  C   C53       1.0  0.23364  0.79350  0.31915  1.0000
  C   C54       1.0  0.21248  0.77285  0.32729  1.0000
  H   H29       1.0  0.20719  0.76167  0.27421  1.0000
  H   H30       1.0  0.24276  0.79628  0.26083  1.0000
  C   C55       1.0  0.79517  0.56545  0.31612  1.0000
  C   C56       1.0  0.77458  0.56605  0.32486  1.0000
  H   H31       1.0  0.76345  0.56045  0.27158  1.0000
  H   H32       1.0  0.79793  0.55940  0.25701  1.0000
  C   C57       1.0  0.44385  0.23149  0.31583  1.0000
  C   C58       1.0  0.44326  0.21032  0.32477  1.0000
  H   H33       1.0  0.44879  0.20472  0.27145  1.0000
  H   H34       1.0  0.44982  0.24024  0.25654  1.0000
  C   C59       1.0  0.77782  0.21420  0.31457  1.0000
  C   C60       1.0  0.79901  0.23476  0.32369  1.0000
  H   H35       1.0  0.80467  0.24588  0.27035  1.0000
  H   H36       1.0  0.76911  0.21142  0.25519  1.0000
  C   C61       1.0  0.10436  0.45872  0.31901  1.0000
  C   C62       1.0  0.11845  0.46068  0.24388  1.0000
  C   C63       1.0  0.13064  0.44817  0.24267  1.0000
  C   C64       1.0  0.12850  0.43354  0.31598  1.0000
  C   C65       1.0  0.14389  0.45067  0.16468  1.0000
  N   N13       1.0  0.14456  0.46400  0.09553  1.0000
  C   C66       1.0  0.13288  0.47546  0.09756  1.0000
  O   O7        1.0  0.15595  0.43977  0.15165  1.0000
  N   N14       1.0  0.11999  0.47369  0.17030  1.0000
  H   H37       1.0  0.13369  0.48519  0.04338  1.0000
  H   H38       1.0  0.11152  0.48186  0.16712  1.0000
  C   C67       1.0  0.55064  0.64753  0.31880  1.0000
  C   C68       1.0  0.54863  0.65963  0.24369  1.0000
  C   C69       1.0  0.56114  0.68433  0.24238  1.0000
  C   C70       1.0  0.57580  0.69684  0.31558  1.0000
  C   C71       1.0  0.55861  0.69507  0.16438  1.0000
  N   N15       1.0  0.54525  0.68238  0.09532  1.0000
  C   C72       1.0  0.53379  0.65925  0.09746  1.0000
  O   O8        1.0  0.56952  0.71802  0.15122  1.0000
  N   N16       1.0  0.53560  0.64815  0.17020  1.0000
  H   H39       1.0  0.52404  0.65031  0.04335  1.0000
  H   H40       1.0  0.52742  0.63150  0.16707  1.0000
  C   C73       1.0  0.36175  0.90496  0.31943  1.0000
  C   C74       1.0  0.34967  0.89126  0.24345  1.0000
  C   C75       1.0  0.32498  0.87909  0.24208  1.0000
  C   C76       1.0  0.31246  0.88085  0.31616  1.0000
  C   C77       1.0  0.31426  0.86623  0.16327  1.0000
  N   N17       1.0  0.32695  0.86590  0.09354  1.0000
  C   C78       1.0  0.35009  0.87757  0.09574  1.0000
  O   O9        1.0  0.29130  0.85417  0.15018  1.0000
  N   N18       1.0  0.36118  0.89009  0.16927  1.0000
  H   H41       1.0  0.35904  0.87703  0.04114  1.0000
  H   H42       1.0  0.37783  0.89856  0.16631  1.0000
  C   C79       1.0  0.90679  0.54876  0.32103  1.0000
  C   C80       1.0  0.89449  0.54845  0.24242  1.0000
  C   C81       1.0  0.88238  0.56103  0.24070  1.0000
  C   C82       1.0  0.88283  0.57405  0.31720  1.0000
  C   C83       1.0  0.87083  0.56011  0.15948  1.0000
  N   N19       1.0  0.87169  0.54819  0.08796  1.0000
  C   C84       1.0  0.88333  0.53669  0.09055  1.0000
  O   O10       1.0  0.85884  0.57107  0.14615  1.0000
  N   N20       1.0  0.89456  0.53692  0.16644  1.0000
  H   H43       1.0  0.88367  0.52802  0.03467  1.0000
  H   H44       1.0  0.90296  0.52866  0.16411  1.0000
  C   C85       1.0  0.46037  0.35985  0.32043  1.0000
  C   C86       1.0  0.46182  0.34785  0.24388  1.0000
  C   C87       1.0  0.44931  0.32315  0.24222  1.0000
  C   C88       1.0  0.43524  0.31057  0.31663  1.0000
  C   C89       1.0  0.45130  0.31251  0.16284  1.0000
  N   N21       1.0  0.46416  0.32527  0.09293  1.0000
  C   C90       1.0  0.47562  0.34841  0.09544  1.0000
  O   O11       1.0  0.44038  0.28957  0.14937  1.0000
  N   N22       1.0  0.47433  0.35942  0.16950  1.0000
  H   H45       1.0  0.48499  0.35741  0.04071  1.0000
  H   H46       1.0  0.48251  0.37608  0.16680  1.0000
  C   C91       1.0  0.64947  0.10241  0.32064  1.0000
  C   C92       1.0  0.66145  0.11555  0.24345  1.0000
  C   C93       1.0  0.68614  0.12770  0.24165  1.0000
  C   C94       1.0  0.69874  0.12647  0.31657  1.0000
  C   C95       1.0  0.69676  0.14004  0.16173  1.0000
  N   N23       1.0  0.68398  0.13990  0.09145  1.0000
  C   C96       1.0  0.66085  0.12824  0.09409  1.0000
  O   O12       1.0  0.71971  0.15204  0.14817  1.0000
  N   N24       1.0  0.64985  0.11623  0.16869  1.0000
  H   H47       1.0  0.65183  0.12844  0.03909  1.0000
  H   H48       1.0  0.63320  0.10779  0.16616  1.0000
  C   C97       1.0  0.44014  0.11884  0.25990  1.0000
  C   C98       1.0  0.45294  0.10756  0.25481  1.0000
  H   H49       1.0  0.45448  0.10142  0.19376  1.0000
  H   H50       1.0  0.43304  0.12086  0.20215  1.0000
  C   C99       1.0  0.68617  0.56945  0.26010  1.0000
  C   C100      1.0  0.66208  0.55664  0.25496  1.0000
  H   H51       1.0  0.65440  0.55528  0.19405  1.0000
  H   H52       1.0  0.69528  0.57671  0.20251  1.0000
  C   C101      1.0  0.89053  0.32312  0.25996  1.0000
  C   C102      1.0  0.90180  0.34721  0.25486  1.0000
  H   H53       1.0  0.90798  0.35490  0.19387  1.0000
  H   H54       1.0  0.88855  0.31401  0.20223  1.0000
  C   C103      1.0  0.57102  0.88845  0.25954  1.0000
  C   C104      1.0  0.55825  0.89976  0.25445  1.0000
  H   H55       1.0  0.55669  0.90588  0.19338  1.0000
  H   H56       1.0  0.57809  0.88640  0.20177  1.0000
  C   C105      1.0  0.32482  0.43835  0.25929  1.0000
  C   C106      1.0  0.34891  0.45114  0.25416  1.0000
  H   H57       1.0  0.35658  0.45277  0.19303  1.0000
  H   H58       1.0  0.31570  0.43136  0.20147  1.0000
  C   C107      1.0  0.12071  0.68443  0.25918  1.0000
  C   C108      1.0  0.10939  0.66034  0.25408  1.0000
  H   H59       1.0  0.10321  0.65266  0.19307  1.0000
  H   H60       1.0  0.12269  0.69354  0.20146  1.0000
  C   C109      1.0  0.10923  0.23429  0.31086  1.0000
  C   C110      1.0  0.09709  0.21016  0.30935  1.0000
  H   H61       1.0  0.08686  0.20208  0.25497  1.0000
  H   H62       1.0  0.10745  0.24267  0.25668  1.0000
  C   C111      1.0  0.77497  0.87675  0.31095  1.0000
  C   C112      1.0  0.79910  0.88876  0.30949  1.0000
  H   H63       1.0  0.80719  0.88663  0.25508  1.0000
  H   H64       1.0  0.76661  0.86663  0.25666  1.0000
  C   C113      1.0  0.13252  0.90004  0.31077  1.0000
  C   C114      1.0  0.12050  0.91216  0.30927  1.0000
  H   H65       1.0  0.12264  0.92237  0.25486  1.0000
  H   H66       1.0  0.14264  0.90179  0.25650  1.0000
  C   C115      1.0  0.90188  0.77296  0.31052  1.0000
  C   C116      1.0  0.91397  0.79710  0.30904  1.0000
  H   H67       1.0  0.92416  0.80519  0.25457  1.0000
  H   H68       1.0  0.90361  0.76460  0.25617  1.0000
  C   C117      1.0  0.23625  0.13064  0.30982  1.0000
  C   C118      1.0  0.21212  0.11861  0.30844  1.0000
  H   H69       1.0  0.20401  0.12064  0.25388  1.0000
  H   H70       1.0  0.24460  0.14067  0.25533  1.0000
  C   C119      1.0  0.87860  0.10743  0.30984  1.0000
  C   C120      1.0  0.89065  0.09534  0.30845  1.0000
  H   H71       1.0  0.88860  0.08518  0.25396  1.0000
  H   H72       1.0  0.86857  0.10574  0.25534  1.0000
  C   C121      1.0  0.09284  0.56821  0.30504  1.0000
  C   C122      1.0  0.08785  0.55506  0.22457  1.0000
  C   C123      1.0  0.08765  0.53363  0.22486  1.0000
  C   C124      1.0  0.09238  0.52535  0.30575  1.0000
  C   C125      1.0  0.08184  0.52128  0.14252  1.0000
  N   N25       1.0  0.07693  0.52968  0.06852  1.0000
  C   C126      1.0  0.07712  0.54983  0.06978  1.0000
  O   O13       1.0  0.08148  0.50117  0.13080  1.0000
  N   N26       1.0  0.08245  0.56224  0.14667  1.0000
  H   H73       1.0  0.07336  0.55559  0.01225  1.0000
  H   H74       1.0  0.08267  0.57682  0.14387  1.0000
  C   C127      1.0  0.44103  0.52655  0.30496  1.0000
  C   C128      1.0  0.45420  0.53475  0.22454  1.0000
  C   C129      1.0  0.47566  0.55597  0.22486  1.0000
  C   C130      1.0  0.48396  0.56893  0.30581  1.0000
  C   C131      1.0  0.48799  0.56251  0.14249  1.0000
  N   N27       1.0  0.47956  0.54923  0.06843  1.0000
  C   C132      1.0  0.45939  0.52929  0.06967  1.0000
  O   O14       1.0  0.50812  0.58225  0.13080  1.0000
  N   N28       1.0  0.44698  0.52220  0.14659  1.0000
  H   H75       1.0  0.45360  0.51978  0.01210  1.0000
  H   H76       1.0  0.43239  0.50786  0.14378  1.0000
  C   C133      1.0  0.48276  0.91642  0.30557  1.0000
  C   C134      1.0  0.47461  0.92141  0.22506  1.0000
  C   C135      1.0  0.45336  0.92160  0.22526  1.0000
  C   C136      1.0  0.44031  0.91685  0.30599  1.0000
  C   C137      1.0  0.44685  0.92742  0.14289  1.0000
  N   N29       1.0  0.46017  0.93233  0.06894  1.0000
  C   C138      1.0  0.48013  0.93214  0.07028  1.0000
  O   O15       1.0  0.42709  0.92777  0.13113  1.0000
  N   N30       1.0  0.48720  0.92681  0.14719  1.0000
  H   H77       1.0  0.48967  0.93591  0.01277  1.0000
  H   H78       1.0  0.50156  0.92659  0.14444  1.0000
  C   C139      1.0  0.91826  0.43933  0.30591  1.0000
  C   C140      1.0  0.92318  0.45247  0.22546  1.0000
  C   C141      1.0  0.92343  0.47393  0.22585  1.0000
  C   C142      1.0  0.91880  0.48224  0.30681  1.0000
  C   C143      1.0  0.92920  0.48626  0.14349  1.0000
  N   N31       1.0  0.93400  0.47782  0.06936  1.0000
  C   C144      1.0  0.93374  0.45764  0.07051  1.0000
  O   O16       1.0  0.92964  0.50642  0.13195  1.0000
  N   N32       1.0  0.92846  0.44523  0.14743  1.0000
  H   H79       1.0  0.93744  0.45184  0.01289  1.0000
  H   H80       1.0  0.92821  0.43064  0.14457  1.0000
  C   C145      1.0  0.56995  0.48076  0.30644  1.0000
  C   C146      1.0  0.55688  0.47251  0.22584  1.0000
  C   C147      1.0  0.53542  0.45130  0.22620  1.0000
  C   C148      1.0  0.52703  0.43839  0.30721  1.0000
  C   C149      1.0  0.52314  0.44469  0.14372  1.0000
  N   N33       1.0  0.53163  0.45790  0.06953  1.0000
  C   C150      1.0  0.55181  0.47782  0.07070  1.0000
  O   O17       1.0  0.50299  0.42497  0.13214  1.0000
  N   N34       1.0  0.56417  0.48498  0.14771  1.0000
  H   H81       1.0  0.55764  0.48728  0.01303  1.0000
  H   H82       1.0  0.57876  0.49932  0.14490  1.0000
  C   C151      1.0  0.52851  0.09097  0.30615  1.0000
  C   C152      1.0  0.53673  0.08604  0.22568  1.0000
  C   C153      1.0  0.55794  0.08580  0.22604  1.0000
  C   C154      1.0  0.57093  0.09049  0.30691  1.0000
  C   C155      1.0  0.56449  0.08000  0.14371  1.0000
  N   N35       1.0  0.55123  0.07517  0.06962  1.0000
  C   C156      1.0  0.53130  0.07541  0.07078  1.0000
  O   O18       1.0  0.58423  0.07961  0.13213  1.0000
  N   N36       1.0  0.52420  0.08072  0.14767  1.0000
  H   H83       1.0  0.52180  0.07169  0.01319  1.0000
  H   H84       1.0  0.50985  0.08096  0.14482  1.0000
  C   C157      1.0  0.01732  0.43308  0.29608  1.0000
  C   C158      1.0  0.99326  0.42121  0.29411  1.0000
  H   H85       1.0  0.98509  0.40966  0.24329  1.0000
  H   H86       1.0  0.02581  0.42978  0.24632  1.0000
  C   C159      1.0  0.57622  0.58611  0.29614  1.0000
  C   C160      1.0  0.58805  0.57387  0.29407  1.0000
  H   H87       1.0  0.59965  0.57730  0.24343  1.0000
  H   H88       1.0  0.57955  0.59791  0.24643  1.0000
  C   C161      1.0  0.42321  0.99194  0.29624  1.0000
  C   C162      1.0  0.43541  0.01601  0.29413  1.0000
  H   H89       1.0  0.43198  0.02416  0.24345  1.0000
  H   H90       1.0  0.41136  0.98344  0.24668  1.0000
  C   C163      1.0  0.99376  0.57446  0.29706  1.0000
  C   C164      1.0  0.01782  0.58631  0.29452  1.0000
  H   H91       1.0  0.02592  0.59789  0.24373  1.0000
  H   H92       1.0  0.98520  0.57778  0.24766  1.0000
  C   C165      1.0  0.43479  0.42123  0.29723  1.0000
  C   C166      1.0  0.42293  0.43342  0.29483  1.0000
  H   H93       1.0  0.41136  0.42995  0.24401  1.0000
  H   H94       1.0  0.43145  0.40934  0.24786  1.0000
  C   C167      1.0  0.58813  0.01545  0.29757  1.0000
  C   C168      1.0  0.57591  0.99139  0.29515  1.0000
  H   H95       1.0  0.57934  0.98328  0.24428  1.0000
  H   H96       1.0  0.59997  0.02398  0.24801  1.0000
  C   C169      1.0  0.10103  0.12588  0.34596  1.0000
  C   C170      1.0  0.10225  0.11482  0.26598  1.0000
  C   C171      1.0  0.11561  0.10352  0.26400  1.0000
  C   C172      1.0  0.12727  0.10264  0.34276  1.0000
  C   C173      1.0  0.11725  0.09455  0.17965  1.0000
  N   N37       1.0  0.10616  0.09609  0.10664  1.0000
  C   C174      1.0  0.09310  0.10607  0.11060  1.0000
  O   O19       1.0  0.13127  0.08599  0.16340  1.0000
  N   N38       1.0  0.09156  0.11557  0.18863  1.0000
  H   H97       1.0  0.08521  0.10715  0.05355  1.0000
  H   H98       1.0  0.08293  0.12355  0.18674  1.0000
  C   C175      1.0  0.88337  0.97696  0.34617  1.0000
  C   C176      1.0  0.89450  0.98924  0.26627  1.0000
  C   C177      1.0  0.90578  0.01391  0.26424  1.0000
  C   C178      1.0  0.90660  0.02644  0.34291  1.0000
  C   C179      1.0  0.91480  0.02451  0.17995  1.0000
  N   N39       1.0  0.91330  0.01188  0.10700  1.0000
  C   C180      1.0  0.90336  0.98884  0.11101  1.0000
  O   O20       1.0  0.92324  0.04707  0.16350  1.0000
  N   N40       1.0  0.89382  0.97781  0.18900  1.0000
  H   H99       1.0  0.90230  0.97988  0.05398  1.0000
  H   H100      1.0  0.88584  0.96119  0.18712  1.0000
  C   C181      1.0  0.03229  0.90822  0.34598  1.0000
  C   C182      1.0  0.02000  0.90711  0.26618  1.0000
  C   C183      1.0  0.99533  0.89372  0.26418  1.0000
  C   C184      1.0  0.98280  0.88195  0.34279  1.0000
  C   C185      1.0  0.98471  0.89217  0.17994  1.0000
  N   N41       1.0  0.99733  0.90334  0.10702  1.0000
  C   C186      1.0  0.02037  0.91646  0.11104  1.0000
  O   O21       1.0  0.96216  0.87803  0.16347  1.0000
  N   N42       1.0  0.03142  0.91793  0.18898  1.0000
  H   H101      1.0  0.02933  0.92440  0.05404  1.0000
  H   H102      1.0  0.04803  0.92657  0.18705  1.0000
  C   C187      1.0  0.91004  0.88137  0.34610  1.0000
  C   C188      1.0  0.90882  0.89245  0.26615  1.0000
  C   C189      1.0  0.89551  0.90380  0.26429  1.0000
  C   C190      1.0  0.88391  0.90473  0.34314  1.0000
  C   C191      1.0  0.89385  0.91277  0.17997  1.0000
  N   N43       1.0  0.90485  0.91114  0.10684  1.0000
  C   C192      1.0  0.91789  0.90114  0.11069  1.0000
  O   O22       1.0  0.87977  0.92127  0.16372  1.0000
  N   N44       1.0  0.91945  0.89165  0.18871  1.0000
  H   H103      1.0  0.92569  0.89997  0.05352  1.0000
  H   H104      1.0  0.92801  0.88359  0.18670  1.0000
  C   C193      1.0  0.12786  0.03047  0.34598  1.0000
  C   C194      1.0  0.11685  0.01819  0.26594  1.0000
  C   C195      1.0  0.10549  0.99352  0.26406  1.0000
  C   C196      1.0  0.10451  0.98099  0.34298  1.0000
  C   C197      1.0  0.09660  0.98290  0.17965  1.0000
  N   N45       1.0  0.09825  0.99554  0.10651  1.0000
  C   C198      1.0  0.10825  0.01858  0.11039  1.0000
  O   O23       1.0  0.08803  0.96031  0.16351  1.0000
  N   N46       1.0  0.11769  0.02962  0.18847  1.0000
  H   H105      1.0  0.10943  0.02755  0.05321  1.0000
  H   H106      1.0  0.12574  0.04624  0.18649  1.0000
  C   C199      1.0  0.97877  0.09921  0.34600  1.0000
  C   C200      1.0  0.99105  0.10042  0.26604  1.0000
  C   C201      1.0  0.01572  0.11373  0.26411  1.0000
  C   C202      1.0  0.02826  0.12533  0.34294  1.0000
  C   C203      1.0  0.02633  0.11537  0.17976  1.0000
  N   N47       1.0  0.01369  0.10433  0.10669  1.0000
  C   C204      1.0  0.99065  0.09130  0.11061  1.0000
  O   O24       1.0  0.04891  0.12938  0.16354  1.0000
  N   N48       1.0  0.97961  0.08977  0.18864  1.0000
  H   H107      1.0  0.98168  0.08348  0.05349  1.0000
  H   H108      1.0  0.96300  0.08121  0.18667  1.0000
  C   C205      1.0  0.17494  0.42092  0.34899  1.0000
  N   N49       1.0  0.16314  0.43241  0.34352  1.0000
  C   C206      1.0  0.14033  0.42105  0.32211  1.0000
  N   N50       1.0  0.12932  0.39791  0.30580  1.0000
  C   C207      1.0  0.14096  0.38616  0.31014  1.0000
  N   N51       1.0  0.16351  0.39810  0.33189  1.0000
  C   C208      1.0  0.58835  0.75589  0.34798  1.0000
  N   N52       1.0  0.57690  0.73260  0.34292  1.0000
  C   C209      1.0  0.58829  0.72117  0.32161  1.0000
  N   N53       1.0  0.61141  0.73332  0.30510  1.0000
  C   C210      1.0  0.62312  0.75671  0.30906  1.0000
  N   N54       1.0  0.61116  0.76731  0.33068  1.0000
  C   C211      1.0  0.25342  0.83430  0.34808  1.0000
  N   N55       1.0  0.27672  0.84617  0.34325  1.0000
  C   C212      1.0  0.28813  0.86899  0.32204  1.0000
  N   N56       1.0  0.27597  0.87994  0.30520  1.0000
  C   C213      1.0  0.25257  0.86820  0.30855  1.0000
  N   N57       1.0  0.24198  0.84564  0.33033  1.0000
  C   C214      1.0  0.83586  0.58603  0.34513  1.0000
  N   N58       1.0  0.84801  0.57487  0.34299  1.0000
  C   C215      1.0  0.87087  0.58642  0.32250  1.0000
  N   N59       1.0  0.88160  0.60945  0.30408  1.0000
  C   C216      1.0  0.86958  0.62085  0.30476  1.0000
  N   N60       1.0  0.84699  0.60873  0.32607  1.0000
  C   C217      1.0  0.42332  0.25163  0.34498  1.0000
  N   N61       1.0  0.43447  0.27495  0.34254  1.0000
  C   C218      1.0  0.42289  0.28624  0.32217  1.0000
  N   N62       1.0  0.39983  0.27393  0.30441  1.0000
  C   C219      1.0  0.38841  0.25051  0.30575  1.0000
  N   N63       1.0  0.40057  0.24006  0.32669  1.0000
  C   C220      1.0  0.75765  0.17359  0.34389  1.0000
  N   N64       1.0  0.73433  0.16135  0.34212  1.0000
  C   C221      1.0  0.72307  0.13848  0.32195  1.0000
  N   N65       1.0  0.73541  0.12777  0.30379  1.0000
  C   C222      1.0  0.75883  0.13985  0.30439  1.0000
  N   N66       1.0  0.76926  0.16247  0.32522  1.0000
  C   C223      1.0  0.42134  0.17113  0.38039  1.0000
  N   N67       1.0  0.43372  0.16095  0.35683  1.0000
  C   C224      1.0  0.42320  0.13779  0.34305  1.0000
  N   N68       1.0  0.39981  0.12488  0.34927  1.0000
  C   C225      1.0  0.38704  0.13472  0.37199  1.0000
  N   N69       1.0  0.39826  0.15757  0.38791  1.0000
  C   C226      1.0  0.75732  0.58806  0.37985  1.0000
  N   N70       1.0  0.73475  0.57564  0.35672  1.0000
  C   C227      1.0  0.72205  0.58611  0.34312  1.0000
  N   N71       1.0  0.73252  0.60950  0.34903  1.0000
  C   C228      1.0  0.75516  0.62232  0.37115  1.0000
  N   N72       1.0  0.76684  0.61115  0.38707  1.0000
  C   C229      1.0  0.83817  0.25202  0.38004  1.0000
  N   N73       1.0  0.84834  0.27457  0.35652  1.0000
  C   C230      1.0  0.87151  0.28723  0.34306  1.0000
  N   N74       1.0  0.88444  0.27678  0.34949  1.0000
  C   C231      1.0  0.87460  0.25416  0.37212  1.0000
  N   N75       1.0  0.85172  0.24250  0.38772  1.0000
  C   C232      1.0  0.59003  0.83632  0.38054  1.0000
  N   N76       1.0  0.57755  0.84638  0.35701  1.0000
  C   C233      1.0  0.58797  0.86952  0.34271  1.0000
  N   N77       1.0  0.61137  0.88253  0.34840  1.0000
  C   C234      1.0  0.62425  0.87279  0.37087  1.0000
  N   N78       1.0  0.61312  0.84997  0.38730  1.0000
  C   C235      1.0  0.25374  0.41929  0.38092  1.0000
  N   N79       1.0  0.27628  0.43175  0.35723  1.0000
  C   C236      1.0  0.28896  0.42130  0.34256  1.0000
  N   N80       1.0  0.27853  0.39789  0.34811  1.0000
  C   C237      1.0  0.25594  0.38504  0.37086  1.0000
  N   N81       1.0  0.24429  0.39620  0.38760  1.0000
  C   C238      1.0  0.17295  0.75556  0.38002  1.0000
  N   N82       1.0  0.16288  0.73301  0.35657  1.0000
  C   C239      1.0  0.13974  0.72031  0.34226  1.0000
  N   N83       1.0  0.12674  0.73071  0.34790  1.0000
  C   C240      1.0  0.13649  0.75333  0.37024  1.0000
  N   N84       1.0  0.15931  0.76501  0.38678  1.0000
  C   C241      1.0  0.14164  0.30601  0.31202  1.0000
  N   N85       1.0  0.12857  0.28391  0.34066  1.0000
  C   C242      1.0  0.13822  0.27131  0.36992  1.0000
  N   N86       1.0  0.16173  0.28200  0.37456  1.0000
  C   C243      1.0  0.17543  0.30417  0.34686  1.0000
  N   N87       1.0  0.16474  0.31533  0.31638  1.0000
  C   C244      1.0  0.70329  0.83749  0.31139  1.0000
  N   N88       1.0  0.72537  0.84649  0.34031  1.0000
  C   C245      1.0  0.73794  0.86871  0.36989  1.0000
  N   N89       1.0  0.72724  0.88152  0.37461  1.0000
  C   C246      1.0  0.70510  0.87311  0.34658  1.0000
  N   N90       1.0  0.69398  0.85128  0.31583  1.0000
  C   C247      1.0  0.17179  0.86759  0.31172  1.0000
  N   N91       1.0  0.16277  0.88069  0.34031  1.0000
  C   C248      1.0  0.14053  0.87104  0.36983  1.0000
  N   N92       1.0  0.12772  0.84754  0.37458  1.0000
  C   C249      1.0  0.13617  0.83382  0.34685  1.0000
  N   N93       1.0  0.15799  0.84450  0.31615  1.0000
  C   C250      1.0  0.86935  0.70123  0.31084  1.0000
  N   N94       1.0  0.88250  0.72333  0.33949  1.0000
  C   C251      1.0  0.87292  0.73592  0.36968  1.0000
  N   N95       1.0  0.84942  0.72524  0.37504  1.0000
  C   C252      1.0  0.83564  0.70306  0.34757  1.0000
  N   N96       1.0  0.84627  0.69195  0.31600  1.0000
  C   C253      1.0  0.30797  0.16979  0.30973  1.0000
  N   N97       1.0  0.28591  0.16090  0.33868  1.0000
  C   C254      1.0  0.27330  0.13873  0.36891  1.0000
  N   N98       1.0  0.28395  0.12589  0.37430  1.0000
  C   C255      1.0  0.30607  0.13420  0.34635  1.0000
  N   N99       1.0  0.31722  0.15596  0.31492  1.0000
  C   C256      1.0  0.83949  0.14004  0.30935  1.0000
  N   N100      1.0  0.84835  0.12684  0.33838  1.0000
  C   C257      1.0  0.87049  0.13637  0.36889  1.0000
  N   N101      1.0  0.88334  0.15986  0.37441  1.0000
  C   C258      1.0  0.87508  0.17371  0.34635  1.0000
  N   N102      1.0  0.85334  0.16311  0.31470  1.0000
  C   C259      1.0  0.08523  0.50178  0.31839  1.0000
  N   N103      1.0  0.09925  0.49255  0.31395  1.0000
  C   C260      1.0  0.09064  0.46943  0.32421  1.0000
  N   N104      1.0  0.06773  0.45587  0.33977  1.0000
  C   C261      1.0  0.05351  0.46470  0.34573  1.0000
  N   N105      1.0  0.06251  0.48757  0.33333  1.0000
  C   C262      1.0  0.50753  0.58534  0.31840  1.0000
  N   N106      1.0  0.51678  0.60859  0.31389  1.0000
  C   C263      1.0  0.53990  0.62309  0.32412  1.0000
  N   N107      1.0  0.55346  0.61373  0.33972  1.0000
  C   C264      1.0  0.54461  0.59069  0.34574  1.0000
  N   N108      1.0  0.52173  0.57681  0.33339  1.0000
  C   C265      1.0  0.42392  0.92402  0.31882  1.0000
  N   N109      1.0  0.40066  0.91002  0.31433  1.0000
  C   C266      1.0  0.38618  0.91865  0.32477  1.0000
  N   N110      1.0  0.39553  0.94156  0.34038  1.0000
  C   C267      1.0  0.41858  0.95576  0.34628  1.0000
  N   N111      1.0  0.43245  0.94675  0.33378  1.0000
  C   C268      1.0  0.92595  0.50580  0.31968  1.0000
  N   N112      1.0  0.91190  0.51501  0.31545  1.0000
  C   C269      1.0  0.92051  0.53810  0.32654  1.0000
  N   N113      1.0  0.94340  0.55172  0.34209  1.0000
  C   C270      1.0  0.95763  0.54289  0.34755  1.0000
  N   N114      1.0  0.94867  0.52003  0.33472  1.0000
  C   C271      1.0  0.50345  0.42201  0.31996  1.0000
  N   N115      1.0  0.49420  0.39876  0.31550  1.0000
  C   C272      1.0  0.47109  0.38427  0.32602  1.0000
  N   N116      1.0  0.45753  0.39361  0.34158  1.0000
  C   C273      1.0  0.46637  0.41666  0.34743  1.0000
  N   N117      1.0  0.48925  0.43054  0.33492  1.0000
  C   C274      1.0  0.58732  0.08331  0.31988  1.0000
  N   N118      1.0  0.61057  0.09732  0.31549  1.0000
  C   C275      1.0  0.62506  0.08871  0.32627  1.0000
  N   N119      1.0  0.61574  0.06581  0.34192  1.0000
  C   C276      1.0  0.59268  0.05160  0.34765  1.0000
  N   N120      1.0  0.57880  0.06059  0.33496  1.0000
  C   C277      1.0  0.50495  0.08412  0.31655  1.0000
  N   N121      1.0  0.49612  0.09850  0.31602  1.0000
  C   C278      1.0  0.47299  0.08995  0.32481  1.0000
  N   N122      1.0  0.45901  0.06700  0.33767  1.0000
  C   C279      1.0  0.46755  0.05249  0.33994  1.0000
  N   N123      1.0  0.49044  0.06133  0.32849  1.0000
  C   C280      1.0  0.58663  0.50433  0.31683  1.0000
  N   N124      1.0  0.60986  0.51318  0.31620  1.0000
  C   C281      1.0  0.62441  0.53631  0.32483  1.0000
  N   N125      1.0  0.61543  0.55028  0.33760  1.0000
  C   C282      1.0  0.59238  0.54173  0.33997  1.0000
  N   N126      1.0  0.57834  0.51883  0.32867  1.0000
  C   C283      1.0  0.92514  0.42264  0.31650  1.0000
  N   N127      1.0  0.91077  0.39942  0.31602  1.0000
  C   C284      1.0  0.91934  0.38487  0.32491  1.0000
  N   N128      1.0  0.94229  0.39385  0.33769  1.0000
  C   C285      1.0  0.95679  0.41690  0.33987  1.0000
  N   N129      1.0  0.94794  0.43093  0.32839  1.0000
  C   C286      1.0  0.50631  0.92328  0.31615  1.0000
  N   N130      1.0  0.51514  0.90889  0.31549  1.0000
  C   C287      1.0  0.53826  0.91744  0.32453  1.0000
  N   N131      1.0  0.55223  0.94037  0.33781  1.0000
  C   C288      1.0  0.54369  0.95488  0.34022  1.0000
  N   N132      1.0  0.52081  0.94606  0.32850  1.0000
  C   C289      1.0  0.42436  0.50300  0.31563  1.0000
  N   N133      1.0  0.40113  0.49415  0.31506  1.0000
  C   C290      1.0  0.38658  0.47104  0.32423  1.0000
  N   N134      1.0  0.39557  0.45708  0.33749  1.0000
  C   C291      1.0  0.41862  0.46564  0.33978  1.0000
  N   N135      1.0  0.43265  0.48851  0.32796  1.0000
  C   C292      1.0  0.08597  0.58490  0.31561  1.0000
  N   N136      1.0  0.10036  0.60812  0.31501  1.0000
  C   C293      1.0  0.09180  0.62268  0.32407  1.0000
  N   N137      1.0  0.06886  0.61372  0.33727  1.0000
  C   C294      1.0  0.05436  0.59067  0.33962  1.0000
  N   N138      1.0  0.06319  0.57662  0.32790  1.0000
  C   C295      1.0  0.08832  0.13769  0.35259  1.0000
  N   N139      1.0  0.09942  0.16089  0.36437  1.0000
  C   C296      1.0  0.08789  0.17276  0.36869  1.0000
  N   N140      1.0  0.06456  0.16073  0.36093  1.0000
  C   C297      1.0  0.05275  0.13752  0.34950  1.0000
  N   N141      1.0  0.06496  0.12632  0.34492  1.0000
  C   C298      1.0  0.87157  0.95244  0.35283  1.0000
  N   N142      1.0  0.84836  0.94034  0.36463  1.0000
  C   C299      1.0  0.83648  0.91695  0.36897  1.0000
  N   N143      1.0  0.84851  0.90564  0.36120  1.0000
  C   C300      1.0  0.87173  0.91704  0.34976  1.0000
  N   N144      1.0  0.88293  0.94045  0.34516  1.0000
  C   C301      1.0  0.05681  0.92093  0.35260  1.0000
  N   N145      1.0  0.06892  0.90983  0.36439  1.0000
  C   C302      1.0  0.09231  0.92136  0.36871  1.0000
  N   N146      1.0  0.10361  0.94469  0.36096  1.0000
  C   C303      1.0  0.09220  0.95649  0.34955  1.0000
  N   N147      1.0  0.06880  0.94429  0.34497  1.0000
  C   C304      1.0  0.92274  0.86955  0.35264  1.0000
  N   N148      1.0  0.91165  0.84634  0.36441  1.0000
  C   C305      1.0  0.92318  0.83448  0.36862  1.0000
  N   N149      1.0  0.94651  0.84652  0.36081  1.0000
  C   C306      1.0  0.95831  0.86974  0.34940  1.0000
  N   N150      1.0  0.94609  0.88093  0.34491  1.0000
  C   C307      1.0  0.13968  0.05498  0.35254  1.0000
  N   N151      1.0  0.16289  0.06710  0.36417  1.0000
  C   C308      1.0  0.17475  0.09050  0.36832  1.0000
  N   N152      1.0  0.16271  0.10179  0.36058  1.0000
  C   C309      1.0  0.13948  0.09036  0.34931  1.0000
  N   N153      1.0  0.12830  0.06696  0.34487  1.0000
  C   C310      1.0  0.95426  0.08651  0.35261  1.0000
  N   N154      1.0  0.94214  0.09761  0.36427  1.0000
  C   C311      1.0  0.91874  0.08607  0.36846  1.0000
  N   N155      1.0  0.90746  0.06274  0.36073  1.0000
  C   C312      1.0  0.91888  0.05094  0.34944  1.0000
  N   N156      1.0  0.94228  0.06316  0.34496  1.0000
  C   C313      1.0  0.11869  0.34537  0.34208  1.0000
  C   C314      1.0  0.11891  0.32446  0.34287  1.0000
  H   H109      1.0  0.11121  0.31357  0.39593  1.0000
  H   H110      1.0  0.11085  0.34860  0.39454  1.0000
  C   C315      1.0  0.66391  0.77517  0.34087  1.0000
  C   C316      1.0  0.68484  0.79629  0.34180  1.0000
  H   H111      1.0  0.69573  0.79944  0.39481  1.0000
  H   H112      1.0  0.66068  0.76406  0.39319  1.0000
  C   C317      1.0  0.23416  0.89067  0.34011  1.0000
  C   C318      1.0  0.21305  0.89050  0.34116  1.0000
  H   H113      1.0  0.20989  0.89828  0.39403  1.0000
  H   H114      1.0  0.24531  0.89862  0.39222  1.0000
  C   C319      1.0  0.89233  0.66171  0.33635  1.0000
  C   C320      1.0  0.89216  0.68264  0.33847  1.0000
  H   H115      1.0  0.90025  0.69362  0.39094  1.0000
  H   H116      1.0  0.90043  0.65843  0.38773  1.0000
  C   C321      1.0  0.34749  0.23222  0.33704  1.0000
  C   C322      1.0  0.32653  0.21114  0.33833  1.0000
  H   H117      1.0  0.31545  0.20818  0.39050  1.0000
  H   H118      1.0  0.35063  0.24358  0.38834  1.0000
  C   C323      1.0  0.77703  0.11711  0.33566  1.0000
  C   C324      1.0  0.79811  0.11723  0.33728  1.0000
  H   H119      1.0  0.80101  0.10907  0.38943  1.0000
  H   H120      1.0  0.76561  0.10890  0.38678  1.0000
  C   C325      1.0  0.32024  0.12433  0.35839  1.0000
  C   C326      1.0  0.32939  0.12409  0.44468  1.0000
  C   C327      1.0  0.35087  0.12443  0.45158  1.0000
  C   C328      1.0  0.36283  0.12375  0.37346  1.0000
  C   C329      1.0  0.35960  0.12557  0.53955  1.0000
  N   N157      1.0  0.34810  0.12643  0.61249  1.0000
  C   C330      1.0  0.32815  0.12647  0.60474  1.0000
  O   O25       1.0  0.37888  0.12468  0.55690  1.0000
  N   N158      1.0  0.31916  0.12545  0.52227  1.0000
  H   H121      1.0  0.31993  0.12713  0.66152  1.0000
  H   H122      1.0  0.30470  0.12526  0.52044  1.0000
  C   C331      1.0  0.81157  0.68900  0.35875  1.0000
  C   C332      1.0  0.80197  0.67986  0.44483  1.0000
  C   C333      1.0  0.78079  0.65842  0.45129  1.0000
  C   C334      1.0  0.76834  0.64655  0.37275  1.0000
  C   C335      1.0  0.77302  0.64966  0.53907  1.0000
  N   N159      1.0  0.78526  0.66112  0.61230  1.0000
  C   C336      1.0  0.80528  0.68105  0.60500  1.0000
  O   O26       1.0  0.75280  0.63039  0.55589  1.0000
  N   N160      1.0  0.81342  0.69006  0.52270  1.0000
  H   H123      1.0  0.81407  0.68924  0.66199  1.0000
  H   H124      1.0  0.82773  0.70450  0.52119  1.0000
  C   C337      1.0  0.88496  0.19774  0.35854  1.0000
  C   C338      1.0  0.88536  0.20724  0.44474  1.0000
  C   C339      1.0  0.88500  0.22836  0.45170  1.0000
  C   C340      1.0  0.88559  0.24094  0.37356  1.0000
  C   C341      1.0  0.88392  0.23598  0.53968  1.0000
  N   N161      1.0  0.88316  0.22367  0.61261  1.0000
  C   C342      1.0  0.88318  0.20370  0.60484  1.0000
  O   O27       1.0  0.88475  0.25612  0.55700  1.0000
  N   N162      1.0  0.88413  0.19571  0.52234  1.0000
  H   H125      1.0  0.88259  0.19485  0.66162  1.0000
  H   H126      1.0  0.88433  0.18144  0.52048  1.0000
  C   C343      1.0  0.69093  0.88297  0.35843  1.0000
  C   C344      1.0  0.68172  0.88332  0.44445  1.0000
  C   C345      1.0  0.66035  0.88318  0.45096  1.0000
  C   C346      1.0  0.64847  0.88385  0.37259  1.0000
  C   C347      1.0  0.65158  0.88216  0.53876  1.0000
  N   N163      1.0  0.66293  0.88116  0.61194  1.0000
  C   C348      1.0  0.68276  0.88087  0.60457  1.0000
  O   O28       1.0  0.63242  0.88331  0.55566  1.0000
  N   N164      1.0  0.69180  0.88182  0.52226  1.0000
  H   H127      1.0  0.69085  0.88006  0.66151  1.0000
  H   H128      1.0  0.70613  0.88175  0.52071  1.0000
  C   C349      1.0  0.19947  0.31829  0.35870  1.0000
  C   C350      1.0  0.20891  0.32764  0.44469  1.0000
  C   C351      1.0  0.23014  0.34902  0.45103  1.0000
  C   C352      1.0  0.24271  0.36083  0.37250  1.0000
  C   C353      1.0  0.23784  0.35787  0.53878  1.0000
  N   N165      1.0  0.22546  0.34660  0.61200  1.0000
  C   C354      1.0  0.20533  0.32677  0.60474  1.0000
  O   O29       1.0  0.25817  0.37700  0.55568  1.0000
  N   N166      1.0  0.19728  0.31765  0.52250  1.0000
  H   H129      1.0  0.19641  0.31874  0.66171  1.0000
  H   H130      1.0  0.18289  0.30331  0.52102  1.0000
  C   C355      1.0  0.12625  0.80978  0.35831  1.0000
  C   C356      1.0  0.12601  0.80023  0.44431  1.0000
  C   C357      1.0  0.12616  0.77900  0.45070  1.0000
  C   C358      1.0  0.12541  0.76648  0.37216  1.0000
  C   C359      1.0  0.12725  0.77126  0.53842  1.0000
  N   N167      1.0  0.12828  0.78360  0.61167  1.0000
  C   C360      1.0  0.12855  0.80371  0.60444  1.0000
  O   O30       1.0  0.12611  0.75094  0.55518  1.0000
  N   N168      1.0  0.12755  0.81180  0.52219  1.0000
  H   H131      1.0  0.12936  0.81259  0.66143  1.0000
  H   H132      1.0  0.12757  0.82618  0.52076  1.0000
  C   C361      1.0  0.23882  0.42807  0.39586  1.0000
  C   C362      1.0  0.22193  0.41853  0.46484  1.0000
  C   C363      1.0  0.20127  0.41946  0.45741  1.0000
  C   C364      1.0  0.19751  0.43012  0.38178  1.0000
  C   C365      1.0  0.18510  0.40931  0.52826  1.0000
  N   N169      1.0  0.18973  0.39983  0.59936  1.0000
  C   C366      1.0  0.20941  0.39920  0.60552  1.0000
  O   O31       1.0  0.16531  0.40988  0.53323  1.0000
  N   N170      1.0  0.22526  0.40852  0.53938  1.0000
  H   H133      1.0  0.21245  0.39222  0.66120  1.0000
  H   H134      1.0  0.23967  0.40871  0.54897  1.0000
  C   C367      1.0  0.58127  0.81261  0.39513  1.0000
  C   C368      1.0  0.59072  0.80519  0.46420  1.0000
  C   C369      1.0  0.58974  0.78358  0.45669  1.0000
  C   C370      1.0  0.57912  0.76923  0.38087  1.0000
  C   C371      1.0  0.59980  0.77748  0.52763  1.0000
  N   N171      1.0  0.60922  0.79153  0.59893  1.0000
  C   C372      1.0  0.60989  0.81186  0.60518  1.0000
  O   O32       1.0  0.59918  0.75709  0.53243  1.0000
  N   N172      1.0  0.60068  0.81847  0.53892  1.0000
  H   H135      1.0  0.61683  0.82184  0.66099  1.0000
  H   H136      1.0  0.60053  0.83271  0.54853  1.0000
  C   C373      1.0  0.19666  0.77047  0.39480  1.0000
  C   C374      1.0  0.20407  0.78733  0.46390  1.0000
  C   C375      1.0  0.22569  0.80796  0.45652  1.0000
  C   C376      1.0  0.24008  0.81172  0.38076  1.0000
  C   C377      1.0  0.23175  0.82410  0.52749  1.0000
  N   N173      1.0  0.21768  0.81948  0.59870  1.0000
  C   C378      1.0  0.19734  0.79982  0.60480  1.0000
  O   O33       1.0  0.25215  0.84387  0.53246  1.0000
  N   N174      1.0  0.19075  0.78401  0.53852  1.0000
  H   H137      1.0  0.18734  0.79676  0.66056  1.0000
  H   H138      1.0  0.17651  0.76961  0.54807  1.0000
  C   C379      1.0  0.77218  0.57916  0.39372  1.0000
  C   C380      1.0  0.78903  0.58829  0.46289  1.0000
  C   C381      1.0  0.80958  0.58716  0.45492  1.0000
  C   C382      1.0  0.81334  0.57677  0.37840  1.0000
  C   C383      1.0  0.82573  0.59698  0.52599  1.0000
  N   N175      1.0  0.82115  0.60623  0.59799  1.0000
  C   C384      1.0  0.80153  0.60698  0.60471  1.0000
  O   O34       1.0  0.84548  0.59631  0.53014  1.0000
  N   N176      1.0  0.78576  0.59810  0.53818  1.0000
  H   H139      1.0  0.79850  0.61379  0.66092  1.0000
  H   H140      1.0  0.77142  0.59805  0.54799  1.0000
  C   C385      1.0  0.43025  0.19489  0.39402  1.0000
  C   C386      1.0  0.42121  0.20268  0.46326  1.0000
  C   C387      1.0  0.42233  0.22434  0.45508  1.0000
  C   C388      1.0  0.43261  0.23841  0.37824  1.0000
  C   C389      1.0  0.41261  0.23076  0.52626  1.0000
  N   N177      1.0  0.40345  0.21700  0.59852  1.0000
  C   C390      1.0  0.40271  0.19664  0.60541  1.0000
  O   O35       1.0  0.41330  0.25119  0.53021  1.0000
  N   N178      1.0  0.41151  0.18968  0.53883  1.0000
  H   H141      1.0  0.39596  0.18686  0.66181  1.0000
  H   H142      1.0  0.41153  0.17538  0.54867  1.0000
  C   C391      1.0  0.81439  0.23716  0.39314  1.0000
  C   C392      1.0  0.80652  0.22033  0.46245  1.0000
  C   C393      1.0  0.78483  0.19981  0.45422  1.0000
  C   C394      1.0  0.77085  0.19611  0.37727  1.0000
  C   C395      1.0  0.77835  0.18367  0.52542  1.0000
  N   N179      1.0  0.79204  0.18826  0.59789  1.0000
  C   C396      1.0  0.81242  0.20786  0.60486  1.0000
  O   O36       1.0  0.75788  0.16397  0.52931  1.0000
  N   N180      1.0  0.81945  0.22361  0.53820  1.0000
  H   H143      1.0  0.82215  0.21091  0.66144  1.0000
  H   H144      1.0  0.83377  0.23792  0.54815  1.0000
  C   C397      1.0  0.11421  0.43161  0.38870  1.0000
  C   C398      1.0  0.10239  0.44386  0.38998  1.0000
  H   H145      1.0  0.09230  0.44190  0.44464  1.0000
  H   H146      1.0  0.11239  0.42130  0.44245  1.0000
  C   C399      1.0  0.57778  0.68451  0.38830  1.0000
  C   C400      1.0  0.56552  0.66043  0.38967  1.0000
  H   H147      1.0  0.56750  0.65232  0.44433  1.0000
  H   H148      1.0  0.58810  0.69301  0.44198  1.0000
  C   C401      1.0  0.32477  0.89473  0.38980  1.0000
  C   C402      1.0  0.34886  0.90657  0.39118  1.0000
  H   H149      1.0  0.35698  0.91639  0.44643  1.0000
  H   H150      1.0  0.31626  0.89629  0.44408  1.0000
  C   C403      1.0  0.89532  0.57431  0.39364  1.0000
  C   C404      1.0  0.90716  0.56205  0.39522  1.0000
  H   H151      1.0  0.91607  0.56285  0.45226  1.0000
  H   H152      1.0  0.89592  0.58347  0.44960  1.0000
  C   C405      1.0  0.43383  0.32281  0.39088  1.0000
  C   C406      1.0  0.44605  0.34690  0.39248  1.0000
  H   H153      1.0  0.44446  0.35498  0.44812  1.0000
  H   H154      1.0  0.42391  0.31425  0.44539  1.0000
  C   C407      1.0  0.68652  0.11312  0.39145  1.0000
  C   C408      1.0  0.66243  0.10127  0.39315  1.0000
  H   H155      1.0  0.65435  0.09181  0.44921  1.0000
  H   H156      1.0  0.69510  0.11196  0.44631  1.0000
  C   C409      1.0  0.46305  0.10419  0.33208  1.0000
  C   C410      1.0  0.45966  0.11196  0.41671  1.0000
  C   C411      1.0  0.44641  0.12331  0.42221  1.0000
  C   C412      1.0  0.43669  0.12691  0.34263  1.0000
  C   C413      1.0  0.44328  0.12977  0.50986  1.0000
  N   N181      1.0  0.45264  0.12555  0.58257  1.0000
  C   C414      1.0  0.46527  0.11514  0.57559  1.0000
  O   O37       1.0  0.43069  0.13982  0.52877  1.0000
  N   N182      1.0  0.46863  0.10841  0.49398  1.0000
  H   H157      1.0  0.47205  0.11229  0.63235  1.0000
  H   H158      1.0  0.47783  0.10094  0.49266  1.0000
  C   C415      1.0  0.64860  0.54628  0.33197  1.0000
  C   C416      1.0  0.65976  0.54941  0.41646  1.0000
  C   C417      1.0  0.68437  0.56267  0.42204  1.0000
  C   C418      1.0  0.69768  0.57263  0.34267  1.0000
  C   C419      1.0  0.69394  0.56558  0.50961  1.0000
  N   N183      1.0  0.68036  0.55601  0.58216  1.0000
  C   C420      1.0  0.65734  0.54336  0.57508  1.0000
  O   O38       1.0  0.71658  0.57822  0.52866  1.0000
  N   N184      1.0  0.64725  0.54021  0.49357  1.0000
  H   H159      1.0  0.64770  0.53643  0.63173  1.0000
  H   H160      1.0  0.63058  0.53100  0.49220  1.0000
  C   C421      1.0  0.90511  0.36068  0.33211  1.0000
  C   C422      1.0  0.89728  0.34952  0.41671  1.0000
  C   C423      1.0  0.88594  0.32491  0.42219  1.0000
  C   C424      1.0  0.88241  0.31161  0.34266  1.0000
  C   C425      1.0  0.87941  0.31533  0.50981  1.0000
  N   N185      1.0  0.88357  0.32890  0.58248  1.0000
  C   C426      1.0  0.89397  0.35193  0.57552  1.0000
  O   O39       1.0  0.86938  0.29268  0.52871  1.0000
  N   N186      1.0  0.90076  0.36202  0.49395  1.0000
  H   H161      1.0  0.89679  0.36156  0.63227  1.0000
  H   H162      1.0  0.90823  0.37870  0.49263  1.0000
  C   C427      1.0  0.54820  0.90320  0.33174  1.0000
  C   C428      1.0  0.55158  0.89542  0.41639  1.0000
  C   C429      1.0  0.56480  0.88403  0.42188  1.0000
  C   C430      1.0  0.57448  0.88040  0.34229  1.0000
  C   C431      1.0  0.56794  0.87760  0.50955  1.0000
  N   N187      1.0  0.55862  0.88186  0.58227  1.0000
  C   C432      1.0  0.54600  0.89228  0.57529  1.0000
  O   O40       1.0  0.58054  0.86756  0.52849  1.0000
  N   N188      1.0  0.54264  0.89899  0.49368  1.0000
  H   H163      1.0  0.53925  0.89517  0.63206  1.0000
  H   H164      1.0  0.53345  0.90648  0.49236  1.0000
  C   C433      1.0  0.36240  0.46109  0.33152  1.0000
  C   C434      1.0  0.35126  0.45763  0.41624  1.0000
  C   C435      1.0  0.32665  0.44440  0.42175  1.0000
  C   C436      1.0  0.31332  0.43481  0.34211  1.0000
  C   C437      1.0  0.31709  0.44118  0.50949  1.0000
  N   N189      1.0  0.33068  0.45043  0.58222  1.0000
  C   C438      1.0  0.35371  0.46305  0.57522  1.0000
  O   O41       1.0  0.29445  0.42859  0.52843  1.0000
  N   N190      1.0  0.36378  0.46649  0.49355  1.0000
  H   H165      1.0  0.36336  0.46974  0.63202  1.0000
  H   H166      1.0  0.38046  0.47568  0.49222  1.0000
  C   C439      1.0  0.10606  0.64686  0.33129  1.0000
  C   C440      1.0  0.11391  0.65802  0.41589  1.0000
  C   C441      1.0  0.12529  0.68262  0.42141  1.0000
  C   C442      1.0  0.12886  0.69594  0.34187  1.0000
  C   C443      1.0  0.13179  0.69220  0.50906  1.0000
  N   N191      1.0  0.12761  0.67861  0.58171  1.0000
  C   C444      1.0  0.11720  0.65558  0.57471  1.0000
  O   O42       1.0  0.14184  0.71484  0.52802  1.0000
  N   N192      1.0  0.11041  0.64550  0.49312  1.0000
  H   H167      1.0  0.11437  0.64594  0.63144  1.0000
  H   H168      1.0  0.10293  0.62882  0.49177  1.0000
  C   C445      1.0  0.09997  0.19722  0.37745  1.0000
  C   C446      1.0  0.11466  0.20929  0.45115  1.0000
  C   C447      1.0  0.12630  0.23399  0.45426  1.0000
  C   C448      1.0  0.12434  0.24687  0.38183  1.0000
  C   C449      1.0  0.13851  0.24435  0.53446  1.0000
  N   N193      1.0  0.13987  0.23156  0.60158  1.0000
  C   C450      1.0  0.12994  0.20855  0.59513  1.0000
  O   O43       1.0  0.14689  0.26671  0.55461  1.0000
  N   N194      1.0  0.11720  0.19763  0.52182  1.0000
  H   H169      1.0  0.13117  0.19948  0.64789  1.0000
  H   H170      1.0  0.10940  0.18095  0.52279  1.0000
  C   C451      1.0  0.81203  0.90457  0.37766  1.0000
  C   C452      1.0  0.79994  0.90715  0.45138  1.0000
  C   C453      1.0  0.77524  0.89408  0.45442  1.0000
  C   C454      1.0  0.76238  0.87927  0.38191  1.0000
  C   C455      1.0  0.76486  0.89589  0.53462  1.0000
  N   N195      1.0  0.77763  0.91003  0.60182  1.0000
  C   C456      1.0  0.80064  0.92309  0.59547  1.0000
  O   O44       1.0  0.74250  0.88190  0.55469  1.0000
  N   N196      1.0  0.81159  0.92134  0.52211  1.0000
  H   H171      1.0  0.80970  0.93343  0.64818  1.0000
  H   H172      1.0  0.82827  0.93024  0.52308  1.0000
  C   C457      1.0  0.10470  0.90928  0.37743  1.0000
  C   C458      1.0  0.10211  0.89462  0.45118  1.0000
  C   C459      1.0  0.11518  0.88299  0.45425  1.0000
  C   C460      1.0  0.12998  0.88493  0.38172  1.0000
  C   C461      1.0  0.11335  0.87079  0.53447  1.0000
  N   N197      1.0  0.09922  0.86943  0.60164  1.0000
  C   C462      1.0  0.08616  0.87940  0.59528  1.0000
  O   O45       1.0  0.12731  0.86239  0.55453  1.0000
  N   N198      1.0  0.08794  0.89210  0.52193  1.0000
  H   H173      1.0  0.07583  0.87812  0.64798  1.0000
  H   H174      1.0  0.07903  0.89987  0.52285  1.0000
  C   C463      1.0  0.91112  0.81002  0.37730  1.0000
  C   C464      1.0  0.89649  0.79792  0.45113  1.0000
  C   C465      1.0  0.88490  0.77322  0.45419  1.0000
  C   C466      1.0  0.88681  0.76037  0.38156  1.0000
  C   C467      1.0  0.87275  0.76282  0.53449  1.0000
  N   N199      1.0  0.87144  0.77560  0.60179  1.0000
  C   C468      1.0  0.88133  0.79861  0.59541  1.0000
  O   O46       1.0  0.86451  0.74050  0.55473  1.0000
  N   N200      1.0  0.89399  0.80956  0.52198  1.0000
  H   H175      1.0  0.88011  0.80766  0.64827  1.0000
  H   H176      1.0  0.90174  0.82623  0.52291  1.0000
  C   C469      1.0  0.19921  0.10290  0.37689  1.0000
  C   C470      1.0  0.21132  0.10043  0.45081  1.0000
  C   C471      1.0  0.23602  0.11353  0.45378  1.0000
  C   C472      1.0  0.24886  0.12823  0.38100  1.0000
  C   C473      1.0  0.24643  0.11186  0.53416  1.0000
  N   N201      1.0  0.23367  0.09784  0.60165  1.0000
  C   C474      1.0  0.21066  0.08471  0.59535  1.0000
  O   O47       1.0  0.26876  0.12599  0.55429  1.0000
  N   N202      1.0  0.19969  0.08634  0.52180  1.0000
  H   H177      1.0  0.20162  0.07450  0.64834  1.0000
  H   H178      1.0  0.18302  0.07742  0.52282  1.0000
  C   C475      1.0  0.90634  0.09813  0.37699  1.0000
  C   C476      1.0  0.90879  0.11270  0.45091  1.0000
  C   C477      1.0  0.89569  0.12430  0.45383  1.0000
  C   C478      1.0  0.88099  0.12243  0.38102  1.0000
  C   C479      1.0  0.89733  0.13636  0.53423  1.0000
  N   N203      1.0  0.91134  0.13761  0.60176  1.0000
  C   C480      1.0  0.92448  0.12775  0.59549  1.0000
  O   O48       1.0  0.88318  0.14454  0.55434  1.0000
  N   N204      1.0  0.92287  0.11517  0.52193  1.0000
  H   H179      1.0  0.93469  0.12893  0.64851  1.0000
  H   H180      1.0  0.93179  0.10741  0.52296  1.0000
  C   C481      1.0  0.09788  0.53902  0.38388  1.0000
  C   C482      1.0  0.09810  0.56003  0.38361  1.0000
  H   H181      1.0  0.10020  0.56833  0.44360  1.0000
  H   H182      1.0  0.09985  0.53285  0.44421  1.0000
  C   C483      1.0  0.47031  0.56075  0.38396  1.0000
  C   C484      1.0  0.44929  0.53997  0.38361  1.0000
  H   H183      1.0  0.44101  0.53375  0.44363  1.0000
  H   H184      1.0  0.47651  0.56885  0.44432  1.0000
  C   C485      1.0  0.44849  0.91139  0.38421  1.0000
  C   C486      1.0  0.46928  0.91114  0.38404  1.0000
  H   H185      1.0  0.47549  0.90912  0.44414  1.0000
  H   H186      1.0  0.44036  0.90945  0.44452  1.0000
  C   C487      1.0  0.91341  0.46862  0.38507  1.0000
  C   C488      1.0  0.91318  0.44760  0.38468  1.0000
  H   H187      1.0  0.91124  0.43938  0.44478  1.0000
  H   H188      1.0  0.91163  0.47485  0.44555  1.0000
  C   C489      1.0  0.54059  0.44668  0.38562  1.0000
  C   C490      1.0  0.56162  0.46746  0.38531  1.0000
  H   H189      1.0  0.56979  0.47378  0.44545  1.0000
  H   H190      1.0  0.53431  0.43871  0.44612  1.0000
  C   C491      1.0  0.56271  0.09590  0.38513  1.0000
  C   C492      1.0  0.54192  0.09613  0.38478  1.0000
  H   H191      1.0  0.53566  0.09810  0.44487  1.0000
  H   H192      1.0  0.57075  0.09773  0.44559  1.0000
  C   C493      1.0  0.98067  0.42672  0.35490  1.0000
  C   C494      1.0  0.99256  0.44338  0.42330  1.0000
  C   C495      1.0  0.01715  0.45531  0.42595  1.0000
  C   C496      1.0  0.02957  0.45070  0.35933  1.0000
  C   C497      1.0  0.02776  0.47101  0.49808  1.0000
  N   N205      1.0  0.01501  0.47451  0.55939  1.0000
  C   C498      1.0  0.99191  0.46350  0.55461  1.0000
  O   O49       1.0  0.05053  0.48198  0.51578  1.0000
  N   N206      1.0  0.98093  0.44801  0.48830  1.0000
  H   H193      1.0  0.98289  0.46643  0.60302  1.0000
  H   H194      1.0  0.96424  0.43974  0.49065  1.0000
  C   C499      1.0  0.58255  0.55578  0.35491  1.0000
  C   C500      1.0  0.56590  0.55102  0.42335  1.0000
  C   C501      1.0  0.55398  0.56369  0.42598  1.0000
  C   C502      1.0  0.55861  0.58074  0.35940  1.0000
  C   C503      1.0  0.53827  0.55861  0.49811  1.0000
  N   N207      1.0  0.53477  0.54236  0.55944  1.0000
  C   C504      1.0  0.54578  0.53027  0.55469  1.0000
  O   O50       1.0  0.52731  0.57042  0.51580  1.0000
  N   N208      1.0  0.56127  0.53477  0.48839  1.0000
  H   H195      1.0  0.54285  0.51832  0.60311  1.0000
  H   H196      1.0  0.56954  0.52636  0.49077  1.0000
  C   C505      1.0  0.45350  0.02861  0.35498  1.0000
  C   C506      1.0  0.45825  0.01674  0.42354  1.0000
  C   C507      1.0  0.44558  0.99215  0.42629  1.0000
  C   C508      1.0  0.42855  0.97971  0.35966  1.0000
  C   C509      1.0  0.45064  0.98155  0.49858  1.0000
  N   N209      1.0  0.46690  0.99432  0.55985  1.0000
  C   C510      1.0  0.47898  0.01742  0.55497  1.0000
  O   O51       1.0  0.43888  0.95878  0.51621  1.0000
  N   N210      1.0  0.47449  0.02838  0.48857  1.0000
  H   H197      1.0  0.49094  0.02645  0.60337  1.0000
  H   H198      1.0  0.48291  0.04507  0.49083  1.0000
  C   C511      1.0  0.03050  0.58085  0.35507  1.0000
  C   C512      1.0  0.01870  0.56424  0.42376  1.0000
  C   C513      1.0  0.99410  0.55232  0.42694  1.0000
  C   C514      1.0  0.98160  0.55690  0.36062  1.0000
  C   C515      1.0  0.98359  0.53667  0.49928  1.0000
  N   N211      1.0  0.99642  0.53319  0.56027  1.0000
  C   C516      1.0  0.01951  0.54421  0.55504  1.0000
  O   O52       1.0  0.96084  0.52565  0.51722  1.0000
  N   N212      1.0  0.03041  0.55966  0.48854  1.0000
  H   H199      1.0  0.02860  0.54129  0.60322  1.0000
  H   H200      1.0  0.04709  0.56792  0.49053  1.0000
  C   C517      1.0  0.42845  0.45161  0.35522  1.0000
  C   C518      1.0  0.44511  0.45645  0.42373  1.0000
  C   C519      1.0  0.45701  0.44376  0.42687  1.0000
  C   C520      1.0  0.45238  0.42662  0.36069  1.0000
  C   C521      1.0  0.47270  0.44892  0.49912  1.0000
  N   N213      1.0  0.47624  0.46527  0.55999  1.0000
  C   C522      1.0  0.46525  0.47738  0.55471  1.0000
  O   O53       1.0  0.48368  0.43715  0.51715  1.0000
  N   N214      1.0  0.44975  0.47279  0.48836  1.0000
  H   H201      1.0  0.46820  0.48941  0.60284  1.0000
  H   H202      1.0  0.44150  0.48122  0.49038  1.0000
  C   C523      1.0  0.55775  0.97875  0.35566  1.0000
  C   C524      1.0  0.55293  0.99057  0.42420  1.0000
  C   C525      1.0  0.56562  0.01516  0.42727  1.0000
  C   C526      1.0  0.58273  0.02764  0.36099  1.0000
  C   C527      1.0  0.56047  0.02571  0.49948  1.0000
  N   N215      1.0  0.54414  0.01290  0.56044  1.0000
  C   C528      1.0  0.53205  0.98981  0.55531  1.0000
  O   O54       1.0  0.57222  0.04847  0.51735  1.0000
  N   N216      1.0  0.53661  0.97889  0.48892  1.0000
  H   H203      1.0  0.52002  0.98075  0.60341  1.0000
  H   H204      1.0  0.52817  0.96220  0.49097  1.0000
  C   C529      1.0  0.12631  0.11428  0.42020  1.0000
  C   C530      1.0  0.11367  0.12581  0.42153  1.0000
  H   H205      1.0  0.11329  0.13369  0.47987  1.0000
  H   H206      1.0  0.13455  0.11413  0.47786  1.0000
  C   C531      1.0  0.89489  0.01384  0.42025  1.0000
  C   C532      1.0  0.88338  0.98968  0.42161  1.0000
  H   H207      1.0  0.87545  0.98142  0.47990  1.0000
  H   H208      1.0  0.89499  0.02223  0.47785  1.0000
  C   C533      1.0  0.99543  0.88281  0.42004  1.0000
  C   C534      1.0  0.01958  0.89544  0.42135  1.0000
  H   H209      1.0  0.02785  0.89575  0.47957  1.0000
  H   H210      1.0  0.98704  0.87448  0.47760  1.0000
  C   C535      1.0  0.88487  0.89307  0.42054  1.0000
  C   C536      1.0  0.89745  0.88150  0.42178  1.0000
  H   H211      1.0  0.89784  0.87361  0.48009  1.0000
  H   H212      1.0  0.87666  0.89325  0.47827  1.0000
  C   C537      1.0  0.11609  0.99359  0.42050  1.0000
  C   C538      1.0  0.12767  0.01775  0.42174  1.0000
  H   H213      1.0  0.13552  0.02602  0.48012  1.0000
  H   H214      1.0  0.11588  0.98520  0.47825  1.0000
  C   C539      1.0  0.01566  0.12438  0.42037  1.0000
  C   C540      1.0  0.99150  0.11180  0.42166  1.0000
  H   H215      1.0  0.98324  0.11143  0.47998  1.0000
  H   H216      1.0  0.02405  0.13260  0.47806  1.0000
