data_image0
_chemical_formula_structural       C2HC2HC2H4C2HC2HC2H4C2HC2HC2H4C8H4C8H4C8H4C2HC2HC2H4C2HC2HC2H4C2HC2HC2H4C2HC2HC2H4C2HC2HC2H4C2HC2HC2H4C8H4C8H4C8H4C8H4C8H4C8H4C2HC2HC2H4C2HC2HC2H4C2HC2HC2H4C2HC2HC2H4C2HC2HC2H4C2HC2HC2H4C6H3C6H3C6H3C6H3C6H3C6H3C6H3C6H3C6H3C6H3C6H3C6H3C6H3C6H3C6H3C6H3C8H4C8H4C8H4C2HC2HC2H4C2HC2HC2H4C2HC2HC2H4C8H4C8H4C8H4C8H4C8H4C8H4C2HC2HC2H4C2HC2HC2H4C2HC2HC2H4C2HC2HC2H4C2HC2HC2H4C2HC2HC2H4C8H4C8H4C8H4C8H4C8H4C8H4
_chemical_formula_sum              "C432 H288"
_cell_length_a       63.4758
_cell_length_b       63.4758
_cell_length_c       14.9085
_cell_angle_alpha    90
_cell_angle_beta     90
_cell_angle_gamma    120

_space_group_name_H-M_alt    "P 1"
_space_group_IT_number       1

loop_
  _space_group_symop_operation_xyz
  'x, y, z'

loop_
  _atom_site_type_symbol
  _atom_site_label
  _atom_site_symmetry_multiplicity
  _atom_site_fract_x
  _atom_site_fract_y
  _atom_site_fract_z
  _atom_site_occupancy
  C   C1        1.0  0.99704  0.12432  0.27011  1.0000
  C   C2        1.0  0.99629  0.14629  0.26940  1.0000
  H   H1        1.0  0.98955  0.15059  0.21429  1.0000
  C   C3        1.0  0.99169  0.05406  0.28100  1.0000
  C   C4        1.0  0.99241  0.07677  0.28113  1.0000
  H   H2        1.0  0.98086  0.04109  0.23528  1.0000
  C   C5        1.0  0.97687  0.08098  0.21711  1.0000
  C   C6        1.0  0.98863  0.10812  0.19014  1.0000
  H   H3        1.0  0.95931  0.07517  0.24912  1.0000
  H   H4        1.0  0.97355  0.07023  0.15598  1.0000
  H   H5        1.0  0.97543  0.11055  0.15094  1.0000
  H   H6        1.0  0.00439  0.11295  0.14732  1.0000
  C   C7        1.0  0.88335  0.87426  0.27009  1.0000
  C   C8        1.0  0.86138  0.85153  0.26939  1.0000
  H   H7        1.0  0.85707  0.84049  0.21427  1.0000
  C   C9        1.0  0.95360  0.93916  0.28098  1.0000
  C   C10       1.0  0.93089  0.91717  0.28111  1.0000
  H   H8        1.0  0.96657  0.94131  0.23525  1.0000
  C   C11       1.0  0.92668  0.89743  0.21707  1.0000
  C   C12       1.0  0.89955  0.88206  0.19011  1.0000
  H   H9        1.0  0.93249  0.88567  0.24907  1.0000
  H   H10       1.0  0.93743  0.90486  0.15594  1.0000
  H   H11       1.0  0.89710  0.86642  0.15089  1.0000
  H   H12       1.0  0.89471  0.89298  0.14731  1.0000
  C   C13       1.0  0.13342  0.01063  0.27012  1.0000
  C   C14       1.0  0.15614  0.01139  0.26942  1.0000
  H   H13       1.0  0.16719  0.01813  0.21431  1.0000
  C   C15       1.0  0.06851  0.01598  0.28101  1.0000
  C   C16       1.0  0.09050  0.01526  0.28114  1.0000
  H   H14       1.0  0.06637  0.02681  0.23528  1.0000
  C   C17       1.0  0.11025  0.03081  0.21712  1.0000
  C   C18       1.0  0.12562  0.01904  0.19015  1.0000
  H   H15       1.0  0.12200  0.04837  0.24914  1.0000
  H   H16       1.0  0.10282  0.03413  0.15599  1.0000
  H   H17       1.0  0.14127  0.03225  0.15096  1.0000
  H   H18       1.0  0.11471  0.00329  0.14733  1.0000
  C   C19       1.0  0.04909  0.25307  0.34521  1.0000
  C   C20       1.0  0.06498  0.26189  0.27102  1.0000
  C   C21       1.0  0.08472  0.28595  0.26974  1.0000
  C   C22       1.0  0.08957  0.30211  0.34276  1.0000
  C   C23       1.0  0.10827  0.32759  0.34062  1.0000
  C   C24       1.0  0.12845  0.33720  0.28129  1.0000
  C   C25       1.0  0.14610  0.36214  0.28071  1.0000
  C   C26       1.0  0.14431  0.37875  0.33891  1.0000
  H   H19       1.0  0.13090  0.32611  0.23815  1.0000
  H   H20       1.0  0.16014  0.36818  0.23578  1.0000
  H   H21       1.0  0.06155  0.25125  0.21521  1.0000
  H   H22       1.0  0.09472  0.29178  0.21212  1.0000
  C   C27       1.0  0.75459  0.79754  0.34517  1.0000
  C   C28       1.0  0.74578  0.80463  0.27102  1.0000
  C   C29       1.0  0.72173  0.80031  0.26975  1.0000
  C   C30       1.0  0.70556  0.78898  0.34276  1.0000
  C   C31       1.0  0.68007  0.78221  0.34062  1.0000
  C   C32       1.0  0.67047  0.79278  0.28130  1.0000
  C   C33       1.0  0.64553  0.78549  0.28073  1.0000
  C   C34       1.0  0.62892  0.76708  0.33891  1.0000
  H   H23       1.0  0.68156  0.80633  0.23819  1.0000
  H   H24       1.0  0.63949  0.79350  0.23582  1.0000
  H   H25       1.0  0.75643  0.81185  0.21522  1.0000
  H   H26       1.0  0.71590  0.80449  0.21215  1.0000
  C   C35       1.0  0.21012  0.95858  0.34519  1.0000
  C   C36       1.0  0.20304  0.94268  0.27103  1.0000
  C   C37       1.0  0.20735  0.92295  0.26975  1.0000
  C   C38       1.0  0.21868  0.91810  0.34276  1.0000
  C   C39       1.0  0.22545  0.89940  0.34062  1.0000
  C   C40       1.0  0.21488  0.87922  0.28129  1.0000
  C   C41       1.0  0.22218  0.86158  0.28071  1.0000
  C   C42       1.0  0.24058  0.86337  0.33889  1.0000
  H   H27       1.0  0.20133  0.87676  0.23817  1.0000
  H   H28       1.0  0.21417  0.84753  0.23580  1.0000
  H   H29       1.0  0.19582  0.94611  0.21522  1.0000
  H   H30       1.0  0.20317  0.91294  0.21213  1.0000
  C   C43       1.0  0.29408  0.07190  0.25866  1.0000
  C   C44       1.0  0.27000  0.05197  0.25832  1.0000
  H   H31       1.0  0.26406  0.04032  0.20468  1.0000
  C   C45       1.0  0.37041  0.12268  0.27806  1.0000
  C   C46       1.0  0.34533  0.10510  0.27578  1.0000
  H   H32       1.0  0.38191  0.12105  0.23409  1.0000
  C   C47       1.0  0.33651  0.08435  0.21188  1.0000
  C   C48       1.0  0.31027  0.07604  0.18047  1.0000
  H   H33       1.0  0.33695  0.06927  0.24553  1.0000
  H   H34       1.0  0.34819  0.08923  0.15260  1.0000
  H   H35       1.0  0.30382  0.05967  0.13932  1.0000
  H   H36       1.0  0.31039  0.09021  0.13846  1.0000
  C   C49       1.0  0.78396  0.71359  0.25867  1.0000
  C   C50       1.0  0.78811  0.73767  0.25834  1.0000
  H   H37       1.0  0.78241  0.74362  0.20468  1.0000
  C   C51       1.0  0.75841  0.63726  0.27806  1.0000
  C   C52       1.0  0.76591  0.66234  0.27578  1.0000
  H   H38       1.0  0.74528  0.62576  0.23409  1.0000
  C   C53       1.0  0.75398  0.67116  0.21188  1.0000
  C   C54       1.0  0.77191  0.69740  0.18047  1.0000
  H   H39       1.0  0.73846  0.67072  0.24552  1.0000
  H   H40       1.0  0.74718  0.65948  0.15260  1.0000
  H   H41       1.0  0.76200  0.70386  0.13934  1.0000
  H   H42       1.0  0.78596  0.69728  0.13846  1.0000
  C   C55       1.0  0.93577  0.22372  0.25868  1.0000
  C   C56       1.0  0.95570  0.21956  0.25834  1.0000
  H   H43       1.0  0.96735  0.22527  0.20469  1.0000
  C   C57       1.0  0.88499  0.24926  0.27808  1.0000
  C   C58       1.0  0.90257  0.24176  0.27579  1.0000
  H   H44       1.0  0.88662  0.26239  0.23410  1.0000
  C   C59       1.0  0.92332  0.25370  0.21190  1.0000
  C   C60       1.0  0.93164  0.23577  0.18049  1.0000
  H   H45       1.0  0.93840  0.26922  0.24554  1.0000
  H   H46       1.0  0.91844  0.26050  0.15262  1.0000
  H   H47       1.0  0.94800  0.24569  0.13936  1.0000
  H   H48       1.0  0.91746  0.22172  0.13848  1.0000
  C   C61       1.0  0.26846  0.45833  0.27154  1.0000
  C   C62       1.0  0.24273  0.44646  0.27202  1.0000
  H   H49       1.0  0.23325  0.43857  0.21437  1.0000
  C   C63       1.0  0.34578  0.48878  0.27520  1.0000
  C   C64       1.0  0.32014  0.47766  0.27701  1.0000
  H   H50       1.0  0.35385  0.48394  0.22612  1.0000
  C   C65       1.0  0.30536  0.45901  0.20836  1.0000
  C   C66       1.0  0.28147  0.45903  0.18758  1.0000
  H   H51       1.0  0.30106  0.44115  0.23393  1.0000
  H   H52       1.0  0.31549  0.46220  0.14570  1.0000
  H   H53       1.0  0.27015  0.44348  0.14433  1.0000
  H   H54       1.0  0.28569  0.47560  0.15090  1.0000
  C   C67       1.0  0.54932  0.81165  0.27154  1.0000
  C   C68       1.0  0.56120  0.79779  0.27203  1.0000
  H   H55       1.0  0.56909  0.79621  0.21437  1.0000
  C   C69       1.0  0.51888  0.85853  0.27520  1.0000
  C   C70       1.0  0.52999  0.84400  0.27700  1.0000
  H   H56       1.0  0.52372  0.87144  0.22611  1.0000
  C   C71       1.0  0.54863  0.84787  0.20834  1.0000
  C   C72       1.0  0.54861  0.82395  0.18758  1.0000
  H   H57       1.0  0.56650  0.86142  0.23387  1.0000
  H   H58       1.0  0.54545  0.85480  0.14566  1.0000
  H   H59       1.0  0.56417  0.82819  0.14431  1.0000
  H   H60       1.0  0.53204  0.81160  0.15092  1.0000
  C   C73       1.0  0.19602  0.73921  0.27155  1.0000
  C   C74       1.0  0.20988  0.76494  0.27205  1.0000
  H   H61       1.0  0.21146  0.77442  0.21439  1.0000
  C   C75       1.0  0.14914  0.66189  0.27523  1.0000
  C   C76       1.0  0.16367  0.68753  0.27703  1.0000
  H   H62       1.0  0.13622  0.65382  0.22615  1.0000
  C   C77       1.0  0.15980  0.70230  0.20838  1.0000
  C   C78       1.0  0.18371  0.72620  0.18760  1.0000
  H   H63       1.0  0.14624  0.70661  0.23393  1.0000
  H   H64       1.0  0.15286  0.69218  0.14571  1.0000
  H   H65       1.0  0.17947  0.73751  0.14434  1.0000
  H   H66       1.0  0.19606  0.72197  0.15093  1.0000
  C   C79       1.0  0.44761  0.22839  0.32705  1.0000
  C   C80       1.0  0.45944  0.24181  0.24943  1.0000
  C   C81       1.0  0.47125  0.26735  0.24943  1.0000
  C   C82       1.0  0.47232  0.28057  0.32766  1.0000
  C   C83       1.0  0.48471  0.30687  0.33031  1.0000
  C   C84       1.0  0.50300  0.32193  0.26797  1.0000
  C   C85       1.0  0.51446  0.34747  0.27195  1.0000
  C   C86       1.0  0.50798  0.35906  0.33826  1.0000
  H   H67       1.0  0.50855  0.31459  0.21878  1.0000
  H   H68       1.0  0.52712  0.35755  0.22415  1.0000
  H   H69       1.0  0.45981  0.23303  0.19229  1.0000
  H   H70       1.0  0.47910  0.27606  0.19078  1.0000
  C   C87       1.0  0.78690  0.56005  0.32706  1.0000
  C   C88       1.0  0.78850  0.54823  0.24942  1.0000
  C   C89       1.0  0.80224  0.53643  0.24943  1.0000
  C   C90       1.0  0.81439  0.53536  0.32766  1.0000
  C   C91       1.0  0.82830  0.52297  0.33031  1.0000
  C   C92       1.0  0.82507  0.50468  0.26795  1.0000
  C   C93       1.0  0.83915  0.49322  0.27194  1.0000
  C   C94       1.0  0.85721  0.49969  0.33824  1.0000
  H   H71       1.0  0.81218  0.49913  0.21877  1.0000
  H   H72       1.0  0.83657  0.48055  0.22413  1.0000
  H   H73       1.0  0.77935  0.54786  0.19228  1.0000
  H   H74       1.0  0.80311  0.52858  0.19077  1.0000
  C   C95       1.0  0.77928  0.22076  0.32707  1.0000
  C   C96       1.0  0.76587  0.21918  0.24944  1.0000
  C   C97       1.0  0.74032  0.20544  0.24944  1.0000
  C   C98       1.0  0.72710  0.19328  0.32766  1.0000
  C   C99       1.0  0.70080  0.17937  0.33032  1.0000
  C   C100      1.0  0.68575  0.18260  0.26799  1.0000
  C   C101      1.0  0.66020  0.16853  0.27197  1.0000
  C   C102      1.0  0.64862  0.15046  0.33827  1.0000
  H   H75       1.0  0.69308  0.19550  0.21881  1.0000
  H   H76       1.0  0.65012  0.17112  0.22418  1.0000
  H   H77       1.0  0.77465  0.22834  0.19231  1.0000
  H   H78       1.0  0.73161  0.20458  0.19080  1.0000
  C   C103      1.0  0.13840  0.56301  0.33356  1.0000
  C   C104      1.0  0.13606  0.54977  0.25470  1.0000
  C   C105      1.0  0.14110  0.53059  0.25528  1.0000
  C   C106      1.0  0.14802  0.52348  0.33512  1.0000
  C   C107      1.0  0.15277  0.50347  0.33831  1.0000
  C   C108      1.0  0.14366  0.48455  0.27356  1.0000
  C   C109      1.0  0.14903  0.46559  0.27767  1.0000
  C   C110      1.0  0.16384  0.46482  0.34663  1.0000
  H   H79       1.0  0.13278  0.48409  0.22228  1.0000
  H   H80       1.0  0.14269  0.45276  0.22782  1.0000
  H   H81       1.0  0.13024  0.55375  0.19634  1.0000
  H   H82       1.0  0.13951  0.52190  0.19588  1.0000
  C   C111      1.0  0.44466  0.57692  0.33360  1.0000
  C   C112      1.0  0.45789  0.58782  0.25471  1.0000
  C   C113      1.0  0.47706  0.61204  0.25528  1.0000
  C   C114      1.0  0.48419  0.62608  0.33512  1.0000
  C   C115      1.0  0.50419  0.65084  0.33830  1.0000
  C   C116      1.0  0.52311  0.66065  0.27354  1.0000
  C   C117      1.0  0.54207  0.68498  0.27763  1.0000
  C   C118      1.0  0.54284  0.70055  0.34661  1.0000
  H   H83       1.0  0.52356  0.65022  0.22224  1.0000
  H   H84       1.0  0.55489  0.69146  0.22778  1.0000
  H   H85       1.0  0.45391  0.57803  0.19635  1.0000
  H   H86       1.0  0.48574  0.61914  0.19587  1.0000
  C   C119      1.0  0.43075  0.86928  0.33361  1.0000
  C   C120      1.0  0.41986  0.87161  0.25471  1.0000
  C   C121      1.0  0.39563  0.86657  0.25529  1.0000
  C   C122      1.0  0.38159  0.85965  0.33512  1.0000
  C   C123      1.0  0.35683  0.85490  0.33830  1.0000
  C   C124      1.0  0.34702  0.86400  0.27354  1.0000
  C   C125      1.0  0.32270  0.85864  0.27763  1.0000
  C   C126      1.0  0.30712  0.84383  0.34661  1.0000
  H   H87       1.0  0.35745  0.87489  0.22226  1.0000
  H   H88       1.0  0.31621  0.86498  0.22778  1.0000
  H   H89       1.0  0.42965  0.87742  0.19636  1.0000
  H   H90       1.0  0.38854  0.86815  0.19588  1.0000
  C   C127      1.0  0.53950  0.15056  0.26637  1.0000
  C   C128      1.0  0.55883  0.14549  0.26816  1.0000
  H   H91       1.0  0.56818  0.14689  0.21035  1.0000
  C   C129      1.0  0.48471  0.17118  0.26515  1.0000
  C   C130      1.0  0.50358  0.16548  0.26813  1.0000
  H   H92       1.0  0.48456  0.18201  0.21445  1.0000
  C   C131      1.0  0.52294  0.17542  0.19828  1.0000
  C   C132      1.0  0.53314  0.15814  0.18087  1.0000
  H   H93       1.0  0.53762  0.19306  0.22116  1.0000
  H   H94       1.0  0.51604  0.17824  0.13482  1.0000
  H   H95       1.0  0.54897  0.16739  0.13675  1.0000
  H   H96       1.0  0.51940  0.14183  0.14626  1.0000
  C   C133      1.0  0.61719  0.46817  0.26638  1.0000
  C   C134      1.0  0.59279  0.44884  0.26817  1.0000
  H   H97       1.0  0.58484  0.43949  0.21036  1.0000
  C   C135      1.0  0.69260  0.52296  0.26516  1.0000
  C   C136      1.0  0.66803  0.50410  0.26814  1.0000
  H   H98       1.0  0.70357  0.52311  0.21446  1.0000
  C   C137      1.0  0.65861  0.48474  0.19828  1.0000
  C   C138      1.0  0.63113  0.47454  0.18088  1.0000
  H   H99       1.0  0.66157  0.47005  0.22118  1.0000
  H   H100      1.0  0.66833  0.49164  0.13483  1.0000
  H   H101      1.0  0.62455  0.45870  0.13677  1.0000
  H   H102      1.0  0.62856  0.48827  0.14627  1.0000
  C   C139      1.0  0.85711  0.39048  0.26637  1.0000
  C   C140      1.0  0.86218  0.41488  0.26816  1.0000
  H   H103      1.0  0.86078  0.42283  0.21035  1.0000
  C   C141      1.0  0.83649  0.31507  0.26514  1.0000
  C   C142      1.0  0.84220  0.33964  0.26812  1.0000
  H   H104      1.0  0.82567  0.30410  0.21444  1.0000
  C   C143      1.0  0.83226  0.34906  0.19827  1.0000
  C   C144      1.0  0.84954  0.37654  0.18086  1.0000
  H   H105      1.0  0.81462  0.34610  0.22116  1.0000
  H   H106      1.0  0.82944  0.33934  0.13482  1.0000
  H   H107      1.0  0.84028  0.38312  0.13675  1.0000
  H   H108      1.0  0.86584  0.37911  0.14625  1.0000
  C   C145      1.0  0.02967  0.55695  0.26613  1.0000
  C   C146      1.0  0.05528  0.56814  0.26202  1.0000
  H   H109      1.0  0.06367  0.57006  0.20140  1.0000
  C   C147      1.0  0.95249  0.52397  0.27429  1.0000
  C   C148      1.0  0.97817  0.53787  0.27417  1.0000
  H   H110      1.0  0.94306  0.52227  0.21639  1.0000
  C   C149      1.0  0.99148  0.54983  0.19017  1.0000
  C   C150      1.0  0.01505  0.54836  0.18218  1.0000
  H   H111      1.0  0.99620  0.56892  0.19202  1.0000
  H   H112      1.0  0.98029  0.54152  0.13058  1.0000
  H   H113      1.0  0.02543  0.55928  0.12448  1.0000
  H   H114      1.0  0.01037  0.52953  0.16996  1.0000
  C   C151      1.0  0.45071  0.47425  0.26614  1.0000
  C   C152      1.0  0.43953  0.48868  0.26204  1.0000
  H   H115      1.0  0.43761  0.49515  0.20142  1.0000
  C   C153      1.0  0.48370  0.43005  0.27428  1.0000
  C   C154      1.0  0.46980  0.44183  0.27417  1.0000
  H   H116      1.0  0.48541  0.42233  0.21638  1.0000
  C   C155      1.0  0.45783  0.44318  0.19017  1.0000
  C   C156      1.0  0.45930  0.46822  0.18219  1.0000
  H   H117      1.0  0.43875  0.42881  0.19201  1.0000
  H   H118      1.0  0.46614  0.44031  0.13058  1.0000
  H   H119      1.0  0.44839  0.46769  0.12449  1.0000
  H   H120      1.0  0.47814  0.48237  0.16998  1.0000
  C   C157      1.0  0.53343  0.97801  0.26613  1.0000
  C   C158      1.0  0.51900  0.95239  0.26202  1.0000
  H   H121      1.0  0.51252  0.94400  0.20140  1.0000
  C   C159      1.0  0.57762  0.05519  0.27427  1.0000
  C   C160      1.0  0.56584  0.02951  0.27415  1.0000
  H   H122      1.0  0.58534  0.06462  0.21637  1.0000
  C   C161      1.0  0.56449  0.01620  0.19015  1.0000
  C   C162      1.0  0.53945  0.99262  0.18218  1.0000
  H   H123      1.0  0.57886  0.01148  0.19199  1.0000
  H   H124      1.0  0.56737  0.02738  0.13056  1.0000
  H   H125      1.0  0.53998  0.98224  0.12447  1.0000
  H   H126      1.0  0.52530  0.99730  0.16996  1.0000
  C   C163      1.0  0.00531  0.02602  0.33961  1.0000
  C   C164      1.0  0.02701  0.02479  0.33958  1.0000
  C   C165      1.0  0.02685  0.00236  0.33961  1.0000
  C   C166      1.0  0.00391  0.98065  0.33958  1.0000
  C   C167      1.0  0.98165  0.98082  0.33960  1.0000
  C   C168      1.0  0.98288  0.00376  0.33958  1.0000
  H   H127      1.0  0.00341  0.96427  0.33986  1.0000
  H   H128      1.0  0.96700  0.00426  0.33987  1.0000
  H   H129      1.0  0.04340  0.04067  0.33987  1.0000
  C   C169      1.0  0.02717  0.23015  0.34187  1.0000
  C   C170      1.0  0.00466  0.22959  0.33803  1.0000
  C   C171      1.0  0.98232  0.20744  0.33508  1.0000
  C   C172      1.0  0.98277  0.18536  0.33651  1.0000
  C   C173      1.0  0.00505  0.18522  0.34014  1.0000
  C   C174      1.0  0.02711  0.20783  0.34257  1.0000
  H   H130      1.0  0.96667  0.16919  0.33487  1.0000
  H   H131      1.0  0.04336  0.20808  0.34523  1.0000
  H   H132      1.0  0.00455  0.24570  0.33748  1.0000
  C   C175      1.0  0.77752  0.79854  0.34185  1.0000
  C   C176      1.0  0.77808  0.77660  0.33802  1.0000
  C   C177      1.0  0.80024  0.77641  0.33508  1.0000
  C   C178      1.0  0.82232  0.79895  0.33652  1.0000
  C   C179      1.0  0.82245  0.82136  0.34014  1.0000
  C   C180      1.0  0.79984  0.82081  0.34256  1.0000
  H   H133      1.0  0.83848  0.79902  0.33488  1.0000
  H   H134      1.0  0.79959  0.83681  0.34522  1.0000
  H   H135      1.0  0.76197  0.76038  0.33747  1.0000
  C   C181      1.0  0.20912  0.98050  0.34187  1.0000
  C   C182      1.0  0.23107  0.00301  0.33802  1.0000
  C   C183      1.0  0.23126  0.02536  0.33508  1.0000
  C   C184      1.0  0.20872  0.02490  0.33653  1.0000
  C   C185      1.0  0.18631  0.00263  0.34015  1.0000
  C   C186      1.0  0.18686  0.98056  0.34258  1.0000
  H   H136      1.0  0.20866  0.04100  0.33489  1.0000
  H   H137      1.0  0.17086  0.96431  0.34524  1.0000
  H   H138      1.0  0.24729  0.00312  0.33747  1.0000
  C   C187      1.0  0.17132  0.44705  0.34593  1.0000
  C   C188      1.0  0.19632  0.45459  0.34959  1.0000
  C   C189      1.0  0.20455  0.43767  0.34609  1.0000
  C   C190      1.0  0.18725  0.41260  0.33956  1.0000
  C   C191      1.0  0.16193  0.40424  0.33840  1.0000
  C   C192      1.0  0.15440  0.42186  0.34009  1.0000
  H   H139      1.0  0.19321  0.40029  0.33973  1.0000
  H   H140      1.0  0.13622  0.41627  0.33798  1.0000
  H   H141      1.0  0.20885  0.47282  0.35218  1.0000
  C   C193      1.0  0.56061  0.72580  0.34591  1.0000
  C   C194      1.0  0.55308  0.74327  0.34954  1.0000
  C   C195      1.0  0.57001  0.76842  0.34610  1.0000
  C   C196      1.0  0.59508  0.77619  0.33965  1.0000
  C   C197      1.0  0.60343  0.75922  0.33840  1.0000
  C   C198      1.0  0.58581  0.73407  0.34007  1.0000
  H   H142      1.0  0.60739  0.79445  0.33975  1.0000
  H   H143      1.0  0.59140  0.72148  0.33795  1.0000
  H   H144      1.0  0.53485  0.73757  0.35217  1.0000
  C   C199      1.0  0.28187  0.83635  0.34590  1.0000
  C   C200      1.0  0.26441  0.81135  0.34954  1.0000
  C   C201      1.0  0.23926  0.80313  0.34610  1.0000
  C   C202      1.0  0.23148  0.82042  0.33964  1.0000
  C   C203      1.0  0.24845  0.84575  0.33838  1.0000
  C   C204      1.0  0.27360  0.85327  0.34006  1.0000
  H   H145      1.0  0.21321  0.81447  0.33975  1.0000
  H   H146      1.0  0.28619  0.87146  0.33794  1.0000
  H   H147      1.0  0.27010  0.79882  0.35217  1.0000
  C   C205      1.0  0.44827  0.16977  0.33092  1.0000
  C   C206      1.0  0.45577  0.19477  0.32724  1.0000
  C   C207      1.0  0.43882  0.20297  0.33038  1.0000
  C   C208      1.0  0.41375  0.18565  0.33675  1.0000
  C   C209      1.0  0.40540  0.16032  0.33817  1.0000
  C   C210      1.0  0.42306  0.15284  0.33664  1.0000
  H   H148      1.0  0.40144  0.19160  0.33653  1.0000
  H   H149      1.0  0.41749  0.13466  0.33890  1.0000
  H   H150      1.0  0.47399  0.20733  0.32483  1.0000
  C   C211      1.0  0.72763  0.55940  0.33094  1.0000
  C   C212      1.0  0.74513  0.55190  0.32729  1.0000
  C   C213      1.0  0.77028  0.56884  0.33040  1.0000
  C   C214      1.0  0.77803  0.59391  0.33676  1.0000
  C   C215      1.0  0.76106  0.60227  0.33818  1.0000
  C   C216      1.0  0.73591  0.58461  0.33667  1.0000
  H   H151      1.0  0.79630  0.60623  0.33652  1.0000
  H   H152      1.0  0.72331  0.59018  0.33890  1.0000
  H   H153      1.0  0.73947  0.53368  0.32484  1.0000
  C   C217      1.0  0.83791  0.28004  0.33093  1.0000
  C   C218      1.0  0.81290  0.26254  0.32728  1.0000
  C   C219      1.0  0.80470  0.23739  0.33042  1.0000
  C   C220      1.0  0.82202  0.22964  0.33689  1.0000
  C   C221      1.0  0.84735  0.24661  0.33821  1.0000
  C   C222      1.0  0.85483  0.27176  0.33668  1.0000
  H   H154      1.0  0.81607  0.21137  0.33652  1.0000
  H   H155      1.0  0.87301  0.28436  0.33888  1.0000
  H   H156      1.0  0.80035  0.26820  0.32479  1.0000
  C   C223      1.0  0.09486  0.58630  0.33713  1.0000
  C   C224      1.0  0.10439  0.57048  0.33435  1.0000
  C   C225      1.0  0.12975  0.57970  0.33566  1.0000
  C   C226      1.0  0.14564  0.60516  0.33933  1.0000
  C   C227      1.0  0.13642  0.62142  0.33919  1.0000
  C   C228      1.0  0.11090  0.61164  0.33920  1.0000
  H   H157      1.0  0.16405  0.61189  0.33883  1.0000
  H   H158      1.0  0.10385  0.62305  0.34164  1.0000
  H   H159      1.0  0.09272  0.55203  0.33336  1.0000
  C   C229      1.0  0.42137  0.51009  0.33715  1.0000
  C   C230      1.0  0.43719  0.53544  0.33438  1.0000
  C   C231      1.0  0.42797  0.55158  0.33568  1.0000
  C   C232      1.0  0.40251  0.54201  0.33928  1.0000
  C   C233      1.0  0.38625  0.51654  0.33916  1.0000
  C   C234      1.0  0.39603  0.50080  0.33920  1.0000
  H   H160      1.0  0.39578  0.55370  0.33882  1.0000
  H   H161      1.0  0.38462  0.48233  0.34162  1.0000
  H   H162      1.0  0.45564  0.54222  0.33342  1.0000
  C   C235      1.0  0.49758  0.91281  0.33714  1.0000
  C   C236      1.0  0.47223  0.90328  0.33437  1.0000
  C   C237      1.0  0.45609  0.87793  0.33568  1.0000
  C   C238      1.0  0.46566  0.86204  0.33929  1.0000
  C   C239      1.0  0.49113  0.87125  0.33917  1.0000
  C   C240      1.0  0.50687  0.89677  0.33920  1.0000
  H   H163      1.0  0.45397  0.84363  0.33885  1.0000
  H   H164      1.0  0.52534  0.90382  0.34162  1.0000
  H   H165      1.0  0.46545  0.91496  0.33341  1.0000
  C   C241      1.0  0.58761  0.09343  0.34906  1.0000
  C   C242      1.0  0.57195  0.10316  0.35135  1.0000
  C   C243      1.0  0.58122  0.12849  0.34550  1.0000
  C   C244      1.0  0.60666  0.14420  0.33843  1.0000
  C   C245      1.0  0.62284  0.13488  0.33933  1.0000
  C   C246      1.0  0.61292  0.10935  0.34300  1.0000
  H   H166      1.0  0.61347  0.16262  0.33634  1.0000
  H   H167      1.0  0.62426  0.10220  0.34178  1.0000
  H   H168      1.0  0.55351  0.09160  0.35512  1.0000
  C   C247      1.0  0.51195  0.42006  0.34907  1.0000
  C   C248      1.0  0.53734  0.43572  0.35136  1.0000
  C   C249      1.0  0.55340  0.42645  0.34551  1.0000
  C   C250      1.0  0.54367  0.40101  0.33843  1.0000
  C   C251      1.0  0.51818  0.38483  0.33932  1.0000
  C   C252      1.0  0.50257  0.39475  0.34300  1.0000
  H   H169      1.0  0.55528  0.39420  0.33634  1.0000
  H   H170      1.0  0.48407  0.38341  0.34178  1.0000
  H   H171      1.0  0.54422  0.45416  0.35515  1.0000
  C   C253      1.0  0.91425  0.49572  0.34907  1.0000
  C   C254      1.0  0.90451  0.47033  0.35136  1.0000
  C   C255      1.0  0.87919  0.45427  0.34550  1.0000
  C   C256      1.0  0.86347  0.46400  0.33842  1.0000
  C   C257      1.0  0.87279  0.48949  0.33932  1.0000
  C   C258      1.0  0.89832  0.50511  0.34301  1.0000
  H   H172      1.0  0.84506  0.45239  0.33632  1.0000
  H   H173      1.0  0.90548  0.52360  0.34178  1.0000
  H   H174      1.0  0.91608  0.46345  0.35514  1.0000
  C   C259      1.0  0.00537  0.16283  0.34185  1.0000
  C   C260      1.0  0.01510  0.15668  0.41584  1.0000
  C   C261      1.0  0.01562  0.13474  0.41758  1.0000
  C   C262      1.0  0.00701  0.11814  0.34461  1.0000
  C   C263      1.0  0.00700  0.09521  0.34449  1.0000
  C   C264      1.0  0.02146  0.09009  0.40330  1.0000
  C   C265      1.0  0.02104  0.06767  0.40119  1.0000
  C   C266      1.0  0.00599  0.04904  0.34058  1.0000
  H   H175      1.0  0.03299  0.10281  0.44809  1.0000
  H   H176      1.0  0.03164  0.06492  0.44603  1.0000
  H   H177      1.0  0.02151  0.16801  0.47030  1.0000
  H   H178      1.0  0.02211  0.13100  0.47443  1.0000
  C   C267      1.0  0.84483  0.84407  0.34185  1.0000
  C   C268      1.0  0.85099  0.85995  0.41585  1.0000
  C   C269      1.0  0.87293  0.88241  0.41759  1.0000
  C   C270      1.0  0.88953  0.89041  0.34460  1.0000
  C   C271      1.0  0.91246  0.91333  0.34449  1.0000
  C   C272      1.0  0.91758  0.93291  0.40331  1.0000
  C   C273      1.0  0.94000  0.95489  0.40120  1.0000
  C   C274      1.0  0.95863  0.95848  0.34057  1.0000
  H   H179      1.0  0.90487  0.93172  0.44811  1.0000
  H   H180      1.0  0.94275  0.96825  0.44605  1.0000
  H   H181      1.0  0.83966  0.85503  0.47032  1.0000
  H   H182      1.0  0.87668  0.89264  0.47444  1.0000
  C   C275      1.0  0.16361  0.00231  0.34187  1.0000
  C   C276      1.0  0.14772  0.99257  0.41586  1.0000
  C   C277      1.0  0.12526  0.99205  0.41758  1.0000
  C   C278      1.0  0.11726  0.00066  0.34462  1.0000
  C   C279      1.0  0.09434  0.00067  0.34449  1.0000
  C   C280      1.0  0.07476  0.98621  0.40329  1.0000
  C   C281      1.0  0.05277  0.98663  0.40118  1.0000
  C   C282      1.0  0.04918  0.00168  0.34057  1.0000
  H   H183      1.0  0.07595  0.97467  0.44808  1.0000
  H   H184      1.0  0.03941  0.97602  0.44601  1.0000
  H   H185      1.0  0.15263  0.98616  0.47031  1.0000
  H   H186      1.0  0.11502  0.98555  0.47442  1.0000
  C   C283      1.0  0.07369  0.29294  0.41826  1.0000
  C   C284      1.0  0.05375  0.26887  0.41857  1.0000
  H   H187      1.0  0.04224  0.26283  0.47262  1.0000
  C   C285      1.0  0.12449  0.36925  0.39938  1.0000
  C   C286      1.0  0.10692  0.34418  0.40168  1.0000
  H   H188      1.0  0.12299  0.38073  0.44384  1.0000
  C   C287      1.0  0.08635  0.33531  0.46645  1.0000
  C   C288      1.0  0.07805  0.30901  0.49703  1.0000
  H   H189      1.0  0.07120  0.33585  0.43381  1.0000
  H   H190      1.0  0.09144  0.34691  0.52602  1.0000
  H   H191      1.0  0.06179  0.30253  0.53879  1.0000
  H   H192      1.0  0.09231  0.30903  0.53820  1.0000
  C   C289      1.0  0.71473  0.78227  0.41824  1.0000
  C   C290      1.0  0.73880  0.78640  0.41854  1.0000
  H   H193      1.0  0.74484  0.78092  0.47259  1.0000
  C   C291      1.0  0.63842  0.75676  0.39936  1.0000
  C   C292      1.0  0.66349  0.76426  0.40166  1.0000
  H   H194      1.0  0.62694  0.74377  0.44380  1.0000
  C   C293      1.0  0.67235  0.75255  0.46639  1.0000
  C   C294      1.0  0.69865  0.77055  0.49699  1.0000
  H   H195      1.0  0.67182  0.73687  0.43373  1.0000
  H   H196      1.0  0.66075  0.74603  0.52596  1.0000
  H   H197      1.0  0.70514  0.76078  0.53874  1.0000
  H   H198      1.0  0.69863  0.78479  0.53819  1.0000
  C   C295      1.0  0.22539  0.93398  0.41824  1.0000
  C   C296      1.0  0.22126  0.95393  0.41856  1.0000
  H   H199      1.0  0.22673  0.96544  0.47261  1.0000
  C   C297      1.0  0.25090  0.88319  0.39936  1.0000
  C   C298      1.0  0.24340  0.90076  0.40166  1.0000
  H   H200      1.0  0.26389  0.88470  0.44380  1.0000
  C   C299      1.0  0.25511  0.92133  0.46641  1.0000
  C   C300      1.0  0.23710  0.92962  0.49700  1.0000
  H   H201      1.0  0.27079  0.93648  0.43376  1.0000
  H   H202      1.0  0.26162  0.91625  0.52597  1.0000
  H   H203      1.0  0.24688  0.94589  0.53877  1.0000
  H   H204      1.0  0.22286  0.91536  0.53819  1.0000
  C   C301      1.0  0.25408  0.04744  0.33122  1.0000
  C   C302      1.0  0.26281  0.06355  0.40483  1.0000
  C   C303      1.0  0.28687  0.08330  0.40612  1.0000
  C   C304      1.0  0.30317  0.08795  0.33370  1.0000
  C   C305      1.0  0.32868  0.10663  0.33602  1.0000
  C   C306      1.0  0.33827  0.12695  0.39467  1.0000
  C   C307      1.0  0.36322  0.14459  0.39526  1.0000
  C   C308      1.0  0.37989  0.14267  0.33775  1.0000
  H   H205      1.0  0.32715  0.12952  0.43725  1.0000
  H   H206      1.0  0.36922  0.15874  0.43968  1.0000
  H   H207      1.0  0.25211  0.06023  0.46042  1.0000
  H   H208      1.0  0.29262  0.09344  0.46345  1.0000
  C   C309      1.0  0.79951  0.75360  0.33121  1.0000
  C   C310      1.0  0.80687  0.74486  0.40484  1.0000
  C   C311      1.0  0.80256  0.72080  0.40614  1.0000
  C   C312      1.0  0.79092  0.70450  0.33372  1.0000
  C   C313      1.0  0.78409  0.67899  0.33603  1.0000
  C   C314      1.0  0.79482  0.66940  0.39469  1.0000
  C   C315      1.0  0.78750  0.64445  0.39527  1.0000
  C   C316      1.0  0.76892  0.62778  0.33776  1.0000
  H   H209      1.0  0.80851  0.68052  0.43728  1.0000
  H   H210      1.0  0.79565  0.63845  0.43969  1.0000
  H   H211      1.0  0.81424  0.75555  0.46044  1.0000
  H   H212      1.0  0.80694  0.71504  0.46348  1.0000
  C   C317      1.0  0.96023  0.20817  0.33122  1.0000
  C   C318      1.0  0.94413  0.20080  0.40484  1.0000
  C   C319      1.0  0.92438  0.20511  0.40615  1.0000
  C   C320      1.0  0.91972  0.21676  0.33373  1.0000
  C   C321      1.0  0.90104  0.22359  0.33604  1.0000
  C   C322      1.0  0.88072  0.21286  0.39470  1.0000
  C   C323      1.0  0.86309  0.22017  0.39528  1.0000
  C   C324      1.0  0.86500  0.23876  0.33777  1.0000
  H   H213      1.0  0.87816  0.19917  0.43729  1.0000
  H   H214      1.0  0.84894  0.21202  0.43971  1.0000
  H   H215      1.0  0.94745  0.19343  0.46044  1.0000
  H   H216      1.0  0.91424  0.20073  0.46348  1.0000
  C   C325      1.0  0.22995  0.44645  0.34944  1.0000
  C   C326      1.0  0.24335  0.45829  0.42708  1.0000
  C   C327      1.0  0.26888  0.47004  0.42717  1.0000
  C   C328      1.0  0.28210  0.47101  0.34904  1.0000
  C   C329      1.0  0.30838  0.48336  0.34650  1.0000
  C   C330      1.0  0.32340  0.50175  0.40857  1.0000
  C   C331      1.0  0.34893  0.51315  0.40490  1.0000
  C   C332      1.0  0.36052  0.50650  0.33919  1.0000
  H   H217      1.0  0.31605  0.50741  0.45732  1.0000
  H   H218      1.0  0.35899  0.52587  0.45255  1.0000
  H   H219      1.0  0.23456  0.45872  0.48413  1.0000
  H   H220      1.0  0.27759  0.47791  0.48580  1.0000
  C   C333      1.0  0.56123  0.78504  0.34946  1.0000
  C   C334      1.0  0.54938  0.78659  0.42709  1.0000
  C   C335      1.0  0.53762  0.80037  0.42717  1.0000
  C   C336      1.0  0.53665  0.81261  0.34905  1.0000
  C   C337      1.0  0.52430  0.82655  0.34651  1.0000
  C   C338      1.0  0.50591  0.82318  0.40859  1.0000
  C   C339      1.0  0.49452  0.83732  0.40492  1.0000
  C   C340      1.0  0.50117  0.85555  0.33920  1.0000
  H   H221      1.0  0.50025  0.81017  0.45735  1.0000
  H   H222      1.0  0.48180  0.83466  0.45259  1.0000
  H   H223      1.0  0.54895  0.77738  0.48414  1.0000
  H   H224      1.0  0.52976  0.80121  0.48581  1.0000
  C   C341      1.0  0.22263  0.77772  0.34947  1.0000
  C   C342      1.0  0.22109  0.76433  0.42709  1.0000
  C   C343      1.0  0.20731  0.73879  0.42717  1.0000
  C   C344      1.0  0.19506  0.72557  0.34906  1.0000
  C   C345      1.0  0.18113  0.69929  0.34651  1.0000
  C   C346      1.0  0.18449  0.68427  0.40858  1.0000
  C   C347      1.0  0.17036  0.65874  0.40492  1.0000
  C   C348      1.0  0.15211  0.64715  0.33924  1.0000
  H   H225      1.0  0.19751  0.69162  0.45732  1.0000
  H   H226      1.0  0.17302  0.64868  0.45257  1.0000
  H   H227      1.0  0.23030  0.77311  0.48413  1.0000
  H   H228      1.0  0.20647  0.73008  0.48580  1.0000
  C   C349      1.0  0.45970  0.26692  0.40524  1.0000
  C   C350      1.0  0.44777  0.24118  0.40464  1.0000
  H   H229      1.0  0.43993  0.23170  0.46235  1.0000
  C   C351      1.0  0.49037  0.34427  0.40252  1.0000
  C   C352      1.0  0.47916  0.31862  0.40031  1.0000
  H   H230      1.0  0.48567  0.35230  0.45220  1.0000
  C   C353      1.0  0.46058  0.30384  0.46913  1.0000
  C   C354      1.0  0.46056  0.27991  0.48943  1.0000
  H   H231      1.0  0.44270  0.29959  0.44393  1.0000
  H   H232      1.0  0.46385  0.31393  0.53194  1.0000
  H   H233      1.0  0.44505  0.26860  0.53290  1.0000
  H   H234      1.0  0.47716  0.28407  0.52573  1.0000
  C   C355      1.0  0.81334  0.54796  0.40525  1.0000
  C   C356      1.0  0.79953  0.55989  0.40465  1.0000
  H   H235      1.0  0.79790  0.56773  0.46237  1.0000
  C   C357      1.0  0.86003  0.51730  0.40252  1.0000
  C   C358      1.0  0.84559  0.52851  0.40032  1.0000
  H   H236      1.0  0.87276  0.52199  0.45221  1.0000
  C   C359      1.0  0.84939  0.54709  0.46915  1.0000
  C   C360      1.0  0.82548  0.54710  0.48944  1.0000
  H   H237      1.0  0.86301  0.56496  0.44395  1.0000
  H   H238      1.0  0.85621  0.54381  0.53195  1.0000
  H   H239      1.0  0.82968  0.56261  0.53292  1.0000
  H   H240      1.0  0.81303  0.53050  0.52573  1.0000
  C   C361      1.0  0.74076  0.19431  0.40524  1.0000
  C   C362      1.0  0.76650  0.20812  0.40465  1.0000
  H   H241      1.0  0.77597  0.20976  0.46235  1.0000
  C   C363      1.0  0.66341  0.14764  0.40252  1.0000
  C   C364      1.0  0.68906  0.16207  0.40029  1.0000
  H   H242      1.0  0.65537  0.13490  0.45218  1.0000
  C   C365      1.0  0.70383  0.15826  0.46910  1.0000
  C   C366      1.0  0.72777  0.18217  0.48942  1.0000
  H   H243      1.0  0.70808  0.14464  0.44386  1.0000
  H   H244      1.0  0.69374  0.15143  0.53190  1.0000
  H   H245      1.0  0.73907  0.17796  0.53286  1.0000
  H   H246      1.0  0.72360  0.19461  0.52575  1.0000
  C   C367      1.0  0.15121  0.53749  0.41400  1.0000
  C   C368      1.0  0.14609  0.55678  0.41295  1.0000
  H   H247      1.0  0.14712  0.56579  0.47127  1.0000
  C   C369      1.0  0.17230  0.48308  0.41335  1.0000
  C   C370      1.0  0.16649  0.50187  0.41100  1.0000
  H   H248      1.0  0.18287  0.48270  0.46453  1.0000
  C   C371      1.0  0.17590  0.52081  0.48242  1.0000
  C   C372      1.0  0.15832  0.53066  0.49954  1.0000
  H   H249      1.0  0.19360  0.53573  0.46121  1.0000
  H   H250      1.0  0.17846  0.51359  0.54559  1.0000
  H   H251      1.0  0.16717  0.54620  0.54519  1.0000
  H   H252      1.0  0.14185  0.51660  0.53233  1.0000
  C   C373      1.0  0.47019  0.61525  0.41402  1.0000
  C   C374      1.0  0.45090  0.59084  0.41299  1.0000
  H   H253      1.0  0.44189  0.58286  0.47132  1.0000
  C   C375      1.0  0.52459  0.69075  0.41333  1.0000
  C   C376      1.0  0.50580  0.66615  0.41099  1.0000
  H   H254      1.0  0.52498  0.70171  0.46453  1.0000
  C   C377      1.0  0.48686  0.65663  0.48244  1.0000
  C   C378      1.0  0.47702  0.62920  0.49956  1.0000
  H   H255      1.0  0.47194  0.65940  0.46125  1.0000
  H   H256      1.0  0.49408  0.66640  0.54561  1.0000
  H   H257      1.0  0.46148  0.62250  0.54522  1.0000
  H   H258      1.0  0.49108  0.62679  0.53232  1.0000
  C   C379      1.0  0.39242  0.85647  0.41403  1.0000
  C   C380      1.0  0.41683  0.86160  0.41299  1.0000
  H   H259      1.0  0.42481  0.86056  0.47132  1.0000
  C   C381      1.0  0.31692  0.83538  0.41333  1.0000
  C   C382      1.0  0.34152  0.84118  0.41099  1.0000
  H   H260      1.0  0.30596  0.82480  0.46452  1.0000
  C   C383      1.0  0.35104  0.83178  0.48244  1.0000
  C   C384      1.0  0.37847  0.84936  0.49956  1.0000
  H   H261      1.0  0.34827  0.81408  0.46124  1.0000
  H   H262      1.0  0.34127  0.82922  0.54560  1.0000
  H   H263      1.0  0.38517  0.84052  0.54522  1.0000
  H   H264      1.0  0.38088  0.86583  0.53233  1.0000
  C   C385      1.0  0.56458  0.13724  0.34727  1.0000
  C   C386      1.0  0.55082  0.13439  0.42523  1.0000
  C   C387      1.0  0.53162  0.13939  0.42395  1.0000
  C   C388      1.0  0.52495  0.14679  0.34421  1.0000
  C   C389      1.0  0.50487  0.15142  0.34020  1.0000
  C   C390      1.0  0.48559  0.14190  0.40353  1.0000
  C   C391      1.0  0.46659  0.14720  0.39881  1.0000
  C   C392      1.0  0.46610  0.16234  0.33056  1.0000
  H   H265      1.0  0.48491  0.13077  0.45428  1.0000
  H   H266      1.0  0.45352  0.14056  0.44780  1.0000
  H   H267      1.0  0.55443  0.12819  0.48344  1.0000
  H   H268      1.0  0.52255  0.13737  0.48276  1.0000
  C   C393      1.0  0.57879  0.44310  0.34728  1.0000
  C   C394      1.0  0.58970  0.45685  0.42524  1.0000
  C   C395      1.0  0.61390  0.47606  0.42397  1.0000
  C   C396      1.0  0.62797  0.48272  0.34422  1.0000
  C   C397      1.0  0.65268  0.50281  0.34022  1.0000
  C   C398      1.0  0.66244  0.52208  0.40354  1.0000
  C   C399      1.0  0.68674  0.54108  0.39883  1.0000
  C   C400      1.0  0.70237  0.54158  0.33057  1.0000
  H   H269      1.0  0.65199  0.52276  0.45430  1.0000
  H   H270      1.0  0.69317  0.55415  0.44781  1.0000
  H   H271      1.0  0.57990  0.45325  0.48345  1.0000
  H   H272      1.0  0.62095  0.48512  0.48278  1.0000
  C   C401      1.0  0.87044  0.42888  0.34727  1.0000
  C   C402      1.0  0.87329  0.41797  0.42523  1.0000
  C   C403      1.0  0.86829  0.39377  0.42395  1.0000
  C   C404      1.0  0.86088  0.37970  0.34421  1.0000
  C   C405      1.0  0.85626  0.35499  0.34020  1.0000
  C   C406      1.0  0.86578  0.34523  0.40352  1.0000
  C   C407      1.0  0.86048  0.32093  0.39880  1.0000
  C   C408      1.0  0.84534  0.30530  0.33055  1.0000
  H   H273      1.0  0.87691  0.35568  0.45427  1.0000
  H   H274      1.0  0.86712  0.31450  0.44779  1.0000
  H   H275      1.0  0.87948  0.42777  0.48344  1.0000
  H   H276      1.0  0.87031  0.38672  0.48276  1.0000
  C   C409      1.0  0.06945  0.57658  0.34059  1.0000
  C   C410      1.0  0.05784  0.57391  0.42371  1.0000
  C   C411      1.0  0.03236  0.56228  0.42853  1.0000
  C   C412      1.0  0.01773  0.55297  0.35065  1.0000
  C   C413      1.0  0.99155  0.54006  0.35379  1.0000
  C   C414      1.0  0.97838  0.52721  0.43112  1.0000
  C   C415      1.0  0.95290  0.51298  0.43013  1.0000
  C   C416      1.0  0.93972  0.51139  0.35195  1.0000
  H   H277      1.0  0.98715  0.52696  0.48825  1.0000
  H   H278      1.0  0.94405  0.50347  0.48662  1.0000
  H   H279      1.0  0.06781  0.57992  0.48163  1.0000
  H   H280      1.0  0.02473  0.56089  0.49017  1.0000
  C   C417      1.0  0.43109  0.49440  0.34061  1.0000
  C   C418      1.0  0.43375  0.48545  0.42372  1.0000
  C   C419      1.0  0.44538  0.47160  0.42854  1.0000
  C   C420      1.0  0.45468  0.46628  0.35066  1.0000
  C   C421      1.0  0.46760  0.45302  0.35380  1.0000
  C   C422      1.0  0.48045  0.45270  0.43113  1.0000
  C   C423      1.0  0.49468  0.44145  0.43014  1.0000
  C   C424      1.0  0.49628  0.42987  0.35195  1.0000
  H   H281      1.0  0.48069  0.46170  0.48828  1.0000
  H   H282      1.0  0.50419  0.44211  0.48663  1.0000
  H   H283      1.0  0.42774  0.48942  0.48164  1.0000
  H   H284      1.0  0.44676  0.46535  0.49018  1.0000
  C   C425      1.0  0.51327  0.93822  0.34059  1.0000
  C   C426      1.0  0.52223  0.94983  0.42371  1.0000
  C   C427      1.0  0.53608  0.97531  0.42853  1.0000
  C   C428      1.0  0.54139  0.98994  0.35064  1.0000
  C   C429      1.0  0.55465  0.01612  0.35378  1.0000
  C   C430      1.0  0.55497  0.02929  0.43112  1.0000
  C   C431      1.0  0.56622  0.05477  0.43013  1.0000
  C   C432      1.0  0.57780  0.06795  0.35193  1.0000
  H   H285      1.0  0.54597  0.02053  0.48826  1.0000
  H   H286      1.0  0.56556  0.06362  0.48663  1.0000
  H   H287      1.0  0.51826  0.93987  0.48162  1.0000
  H   H288      1.0  0.54232  0.98295  0.49016  1.0000
