data_image0
_chemical_formula_structural       C4HOC2NO2CHC2H2CHOC2NO2C4HOC2NO2CHC2H2CHOC2NO2C3HOCOHCHOC2NO3H2C2H2C2NO2CHOC3HOCOHCHOC2NO3H2C2H2C2NO2CHOC7HC7HNOC3HNOC4HC4HNOC3HNOC7HC7HNOC3HNOC4HC4HNOC3HNOC4OHCOHOC3HNO2C3HNO2C2H3CH2C3HNO2C3HNO2C4OHCOHOC3HNO2C3HNO2C2H3CH2C3HNO2C3HNO2C4HOC4OHC4HOC4OHC4HOC4OHC3HNO2C3HNO2C3HNO2C3HNO2C3HNO2C3HNO2C4H4C4H4C4H4C3HNO2C3HNO2C3HNO2C3HNO2C3HNO2C3HNO2C4HOC4OHC4HOC4OHC4HOC4OHC3HNO2C3HNO2C3HNO2C3HNO2C3HNO2C3HNO2C4H4C4H4C4H4C3HNO2C3HNO2C3HNO2C3HNO2C3HNO2C3HNO2
_chemical_formula_sum              "C288 H120 O120 N48"
_cell_length_a       46.7858
_cell_length_b       46.7858
_cell_length_c       14.8075
_cell_angle_alpha    90
_cell_angle_beta     90
_cell_angle_gamma    120

_space_group_name_H-M_alt    "P 1"
_space_group_IT_number       1

loop_
  _space_group_symop_operation_xyz
  'x, y, z'

loop_
  _atom_site_type_symbol
  _atom_site_label
  _atom_site_symmetry_multiplicity
  _atom_site_fract_x
  _atom_site_fract_y
  _atom_site_fract_z
  _atom_site_occupancy
  C   C1        1.0  0.02769  0.26547  0.34895  1.0000
  C   C2        1.0  0.04692  0.30085  0.34918  1.0000
  C   C3        1.0  0.08187  0.31886  0.34725  1.0000
  C   C4        1.0  0.09907  0.30120  0.34694  1.0000
  H   H1        1.0  0.03585  0.31483  0.35008  1.0000
  O   O1        1.0  0.13282  0.31812  0.34677  1.0000
  C   C5        1.0  0.10068  0.25011  0.34078  1.0000
  C   C6        1.0  0.11808  0.25261  0.25980  1.0000
  N   N1        1.0  0.10669  0.25898  0.17766  1.0000
  O   O2        1.0  0.10072  0.23699  0.11997  1.0000
  O   O3        1.0  0.12723  0.28654  0.14494  1.0000
  C   C7        1.0  0.11687  0.36828  0.26288  1.0000
  H   H2        1.0  0.10849  0.35483  0.20446  1.0000
  C   C8        1.0  0.08191  0.26634  0.34598  1.0000
  C   C9        1.0  0.04696  0.24935  0.34747  1.0000
  H   H3        1.0  0.13952  0.32060  0.41053  1.0000
  H   H4        1.0  0.03591  0.22432  0.34575  1.0000
  C   C10       1.0  0.11423  0.24660  0.42279  1.0000
  H   H5        1.0  0.10394  0.24788  0.48269  1.0000
  O   O4        1.0  0.14256  0.22321  0.55629  1.0000
  C   C11       1.0  0.10060  0.35390  0.34521  1.0000
  C   C12       1.0  0.11528  0.37145  0.42614  1.0000
  N   N2        1.0  0.10121  0.35626  0.50992  1.0000
  O   O5        1.0  0.09345  0.37387  0.55616  1.0000
  O   O6        1.0  0.12053  0.35059  0.55540  1.0000
  C   C13       1.0  0.02769  0.76547  0.34895  1.0000
  C   C14       1.0  0.04692  0.80085  0.34918  1.0000
  C   C15       1.0  0.08187  0.81886  0.34725  1.0000
  C   C16       1.0  0.09907  0.80120  0.34694  1.0000
  H   H6        1.0  0.03586  0.81483  0.35008  1.0000
  O   O7        1.0  0.13282  0.81812  0.34677  1.0000
  C   C17       1.0  0.10068  0.75011  0.34078  1.0000
  C   C18       1.0  0.11808  0.75261  0.25980  1.0000
  N   N3        1.0  0.10669  0.75898  0.17766  1.0000
  O   O8        1.0  0.10072  0.73699  0.11997  1.0000
  O   O9        1.0  0.12723  0.78655  0.14494  1.0000
  C   C19       1.0  0.11687  0.86828  0.26288  1.0000
  H   H7        1.0  0.10849  0.85483  0.20446  1.0000
  C   C20       1.0  0.08191  0.76634  0.34598  1.0000
  C   C21       1.0  0.04696  0.74935  0.34747  1.0000
  H   H8        1.0  0.13952  0.82060  0.41053  1.0000
  H   H9        1.0  0.03591  0.72432  0.34575  1.0000
  C   C22       1.0  0.11423  0.74660  0.42279  1.0000
  H   H10       1.0  0.10394  0.74788  0.48269  1.0000
  O   O10       1.0  0.14256  0.72322  0.55629  1.0000
  C   C23       1.0  0.10060  0.85390  0.34521  1.0000
  C   C24       1.0  0.11528  0.87145  0.42614  1.0000
  N   N4        1.0  0.10121  0.85627  0.50992  1.0000
  O   O11       1.0  0.09345  0.87387  0.55616  1.0000
  O   O12       1.0  0.12053  0.85059  0.55540  1.0000
  C   C25       1.0  0.21538  0.24931  0.34903  1.0000
  C   C26       1.0  0.19738  0.26627  0.34734  1.0000
  C   C27       1.0  0.21506  0.30112  0.34703  1.0000
  H   H11       1.0  0.20139  0.22427  0.34974  1.0000
  O   O13       1.0  0.19815  0.31797  0.34682  1.0000
  C   C28       1.0  0.21514  0.41719  0.34662  1.0000
  O   O14       1.0  0.19831  0.38344  0.34641  1.0000
  H   H12       1.0  0.22753  0.03263  0.34957  1.0000
  C   C29       1.0  0.14792  0.25174  0.26260  1.0000
  H   H13       1.0  0.16134  0.25666  0.20418  1.0000
  O   O15       1.0  0.22966  0.34379  0.14513  1.0000
  C   C30       1.0  0.16243  0.41557  0.34109  1.0000
  C   C31       1.0  0.14761  0.39810  0.26006  1.0000
  N   N5        1.0  0.16537  0.40943  0.17787  1.0000
  O   O16       1.0  0.14936  0.41538  0.12010  1.0000
  O   O17       1.0  0.17240  0.38888  0.14531  1.0000
  O   O18       1.0  0.24019  0.14609  0.12002  1.0000
  H   H14       1.0  0.19576  0.32229  0.41056  1.0000
  H   H15       1.0  0.22755  0.19815  0.34575  1.0000
  C   C32       1.0  0.19744  0.43435  0.34572  1.0000
  C   C33       1.0  0.21540  0.46930  0.34763  1.0000
  H   H16       1.0  0.19401  0.37674  0.41016  1.0000
  H   H17       1.0  0.20141  0.48035  0.34633  1.0000
  C   C34       1.0  0.16234  0.24999  0.34494  1.0000
  C   C35       1.0  0.14491  0.24730  0.42602  1.0000
  N   N6        1.0  0.16014  0.24852  0.50983  1.0000
  O   O19       1.0  0.16582  0.27356  0.55509  1.0000
  O   O20       1.0  0.24288  0.39575  0.55488  1.0000
  C   C36       1.0  0.14528  0.40212  0.42294  1.0000
  H   H18       1.0  0.15680  0.41252  0.48278  1.0000
  O   O21       1.0  0.22639  0.09030  0.55611  1.0000
  C   C37       1.0  0.21538  0.74931  0.34903  1.0000
  C   C38       1.0  0.19738  0.76627  0.34734  1.0000
  C   C39       1.0  0.21506  0.80113  0.34703  1.0000
  H   H19       1.0  0.20139  0.72427  0.34974  1.0000
  O   O22       1.0  0.19815  0.81797  0.34682  1.0000
  C   C40       1.0  0.21514  0.91719  0.34662  1.0000
  O   O23       1.0  0.19831  0.88344  0.34641  1.0000
  H   H20       1.0  0.22753  0.53263  0.34957  1.0000
  C   C41       1.0  0.14792  0.75174  0.26260  1.0000
  H   H21       1.0  0.16134  0.75666  0.20418  1.0000
  O   O24       1.0  0.22966  0.84379  0.14513  1.0000
  C   C42       1.0  0.16243  0.91557  0.34109  1.0000
  C   C43       1.0  0.14761  0.89811  0.26006  1.0000
  N   N7        1.0  0.16537  0.90943  0.17787  1.0000
  O   O25       1.0  0.14937  0.91538  0.12010  1.0000
  O   O26       1.0  0.17240  0.88888  0.14531  1.0000
  O   O27       1.0  0.24019  0.64609  0.12002  1.0000
  H   H22       1.0  0.19576  0.82229  0.41056  1.0000
  H   H23       1.0  0.22755  0.69815  0.34575  1.0000
  C   C44       1.0  0.19744  0.93435  0.34572  1.0000
  C   C45       1.0  0.21540  0.96931  0.34763  1.0000
  H   H24       1.0  0.19401  0.87674  0.41016  1.0000
  H   H25       1.0  0.20141  0.98035  0.34633  1.0000
  C   C46       1.0  0.16234  0.74998  0.34494  1.0000
  C   C47       1.0  0.14491  0.74730  0.42602  1.0000
  N   N8        1.0  0.16014  0.74852  0.50983  1.0000
  O   O28       1.0  0.16582  0.77356  0.55509  1.0000
  O   O29       1.0  0.24288  0.89575  0.55488  1.0000
  C   C48       1.0  0.14528  0.90212  0.42294  1.0000
  H   H26       1.0  0.15680  0.91252  0.48278  1.0000
  O   O30       1.0  0.22639  0.59030  0.55611  1.0000
  C   C49       1.0  0.25076  0.26545  0.34887  1.0000
  C   C50       1.0  0.26871  0.24751  0.34888  1.0000
  C   C51       1.0  0.30442  0.21184  0.34710  1.0000
  C   C52       1.0  0.30410  0.26365  0.34910  1.0000
  C   C53       1.0  0.25078  0.48857  0.34890  1.0000
  C   C54       1.0  0.26694  0.46934  0.34887  1.0000
  C   C55       1.0  0.24999  0.43439  0.34702  1.0000
  H   H27       1.0  0.29198  0.48040  0.34955  1.0000
  C   C56       1.0  0.26872  0.02446  0.34896  1.0000
  C   C57       1.0  0.30438  0.09583  0.34697  1.0000
  C   C58       1.0  0.26953  0.07865  0.34728  1.0000
  C   C59       1.0  0.25257  0.04369  0.34900  1.0000
  C   C60       1.0  0.26614  0.35380  0.34105  1.0000
  C   C61       1.0  0.26363  0.36865  0.25991  1.0000
  C   C62       1.0  0.26455  0.39939  0.26242  1.0000
  H   H28       1.0  0.25951  0.40774  0.20392  1.0000
  N   N9        1.0  0.25722  0.35082  0.17785  1.0000
  O   O31       1.0  0.27920  0.36677  0.12010  1.0000
  C   C63       1.0  0.25330  0.15914  0.34090  1.0000
  C   C64       1.0  0.25582  0.14433  0.25980  1.0000
  C   C65       1.0  0.25499  0.11364  0.26254  1.0000
  H   H29       1.0  0.25993  0.10518  0.20409  1.0000
  N   N10       1.0  0.26217  0.16211  0.17768  1.0000
  O   O32       1.0  0.28974  0.16917  0.14493  1.0000
  C   C66       1.0  0.24991  0.31880  0.34596  1.0000
  C   C67       1.0  0.26689  0.30083  0.34750  1.0000
  C   C68       1.0  0.25258  0.21213  0.34747  1.0000
  C   C69       1.0  0.26956  0.19415  0.34602  1.0000
  H   H30       1.0  0.29193  0.31481  0.34594  1.0000
  C   C70       1.0  0.30410  0.04371  0.34767  1.0000
  C   C71       1.0  0.26628  0.41564  0.34457  1.0000
  C   C72       1.0  0.26908  0.40100  0.42573  1.0000
  C   C73       1.0  0.26982  0.37104  0.42278  1.0000
  H   H31       1.0  0.26852  0.35949  0.48272  1.0000
  N   N11       1.0  0.26789  0.41508  0.50947  1.0000
  O   O33       1.0  0.29323  0.42287  0.55586  1.0000
  C   C74       1.0  0.25326  0.09741  0.34477  1.0000
  C   C75       1.0  0.25051  0.11211  0.42591  1.0000
  C   C76       1.0  0.24978  0.14208  0.42286  1.0000
  H   H32       1.0  0.25105  0.15363  0.48279  1.0000
  N   N12       1.0  0.25172  0.09807  0.50968  1.0000
  O   O34       1.0  0.27675  0.11742  0.55503  1.0000
  C   C77       1.0  0.25076  0.76545  0.34887  1.0000
  C   C78       1.0  0.26871  0.74751  0.34888  1.0000
  C   C79       1.0  0.30442  0.71183  0.34710  1.0000
  C   C80       1.0  0.30410  0.76365  0.34910  1.0000
  C   C81       1.0  0.25078  0.98857  0.34890  1.0000
  C   C82       1.0  0.26694  0.96934  0.34887  1.0000
  C   C83       1.0  0.24999  0.93439  0.34702  1.0000
  H   H33       1.0  0.29198  0.98040  0.34955  1.0000
  C   C84       1.0  0.26872  0.52446  0.34896  1.0000
  C   C85       1.0  0.30438  0.59583  0.34697  1.0000
  C   C86       1.0  0.26953  0.57865  0.34728  1.0000
  C   C87       1.0  0.25257  0.54369  0.34900  1.0000
  C   C88       1.0  0.26614  0.85380  0.34105  1.0000
  C   C89       1.0  0.26363  0.86865  0.25991  1.0000
  C   C90       1.0  0.26455  0.89939  0.26242  1.0000
  H   H34       1.0  0.25951  0.90774  0.20392  1.0000
  N   N13       1.0  0.25722  0.85082  0.17785  1.0000
  O   O35       1.0  0.27920  0.86677  0.12010  1.0000
  C   C91       1.0  0.25330  0.65914  0.34090  1.0000
  C   C92       1.0  0.25582  0.64433  0.25980  1.0000
  C   C93       1.0  0.25499  0.61364  0.26254  1.0000
  H   H35       1.0  0.25993  0.60518  0.20409  1.0000
  N   N14       1.0  0.26217  0.66211  0.17768  1.0000
  O   O36       1.0  0.28974  0.66917  0.14493  1.0000
  C   C94       1.0  0.24991  0.81881  0.34596  1.0000
  C   C95       1.0  0.26689  0.80083  0.34750  1.0000
  C   C96       1.0  0.25258  0.71213  0.34747  1.0000
  C   C97       1.0  0.26956  0.69415  0.34602  1.0000
  H   H36       1.0  0.29193  0.81481  0.34594  1.0000
  C   C98       1.0  0.30410  0.54371  0.34767  1.0000
  C   C99       1.0  0.26628  0.91565  0.34457  1.0000
  C   C100      1.0  0.26908  0.90100  0.42573  1.0000
  C   C101      1.0  0.26982  0.87104  0.42278  1.0000
  H   H37       1.0  0.26852  0.85949  0.48272  1.0000
  N   N15       1.0  0.26789  0.91508  0.50947  1.0000
  O   O37       1.0  0.29323  0.92287  0.55586  1.0000
  C   C102      1.0  0.25326  0.59741  0.34477  1.0000
  C   C103      1.0  0.25051  0.61211  0.42591  1.0000
  C   C104      1.0  0.24978  0.64209  0.42286  1.0000
  H   H38       1.0  0.25105  0.65363  0.48279  1.0000
  N   N16       1.0  0.25172  0.59807  0.50968  1.0000
  O   O38       1.0  0.27675  0.61742  0.55503  1.0000
  C   C105      1.0  0.49180  0.24752  0.34891  1.0000
  C   C106      1.0  0.42043  0.21179  0.34658  1.0000
  C   C107      1.0  0.43762  0.19413  0.34708  1.0000
  C   C108      1.0  0.47257  0.21213  0.34906  1.0000
  O   O39       1.0  0.38668  0.19486  0.34629  1.0000
  H   H39       1.0  0.48364  0.19816  0.34995  1.0000
  C   C109      1.0  0.32209  0.24669  0.34733  1.0000
  O   O40       1.0  0.32132  0.19499  0.34696  1.0000
  H   H40       1.0  0.31808  0.28869  0.34991  1.0000
  O   O41       1.0  0.32122  0.12959  0.34673  1.0000
  C   C110      1.0  0.41881  0.26288  0.34071  1.0000
  C   C111      1.0  0.40134  0.26027  0.25978  1.0000
  C   C112      1.0  0.37148  0.26110  0.26283  1.0000
  H   H41       1.0  0.35803  0.25615  0.20445  1.0000
  N   N17       1.0  0.41267  0.25387  0.17757  1.0000
  O   O42       1.0  0.41856  0.27582  0.11983  1.0000
  O   O43       1.0  0.39212  0.22628  0.14501  1.0000
  C   C113      1.0  0.35707  0.09744  0.34117  1.0000
  C   C114      1.0  0.37193  0.11480  0.26004  1.0000
  C   C115      1.0  0.40268  0.14462  0.26256  1.0000
  H   H42       1.0  0.41105  0.15801  0.20406  1.0000
  N   N18       1.0  0.35412  0.10339  0.17796  1.0000
  O   O44       1.0  0.37006  0.09735  0.12023  1.0000
  O   O45       1.0  0.34709  0.12393  0.14521  1.0000
  C   C116      1.0  0.47254  0.26364  0.34745  1.0000
  C   C117      1.0  0.43758  0.24665  0.34570  1.0000
  H   H43       1.0  0.37995  0.19243  0.41002  1.0000
  H   H44       1.0  0.48358  0.28867  0.34592  1.0000
  H   H45       1.0  0.32377  0.19076  0.41073  1.0000
  C   C118      1.0  0.32207  0.07867  0.34604  1.0000
  H   H46       1.0  0.32553  0.13630  0.41047  1.0000
  H   H47       1.0  0.31809  0.03267  0.34625  1.0000
  C   C119      1.0  0.35713  0.26299  0.34523  1.0000
  C   C120      1.0  0.37470  0.26579  0.42610  1.0000
  C   C121      1.0  0.40536  0.26645  0.42277  1.0000
  H   H48       1.0  0.41579  0.26531  0.48258  1.0000
  N   N19       1.0  0.35952  0.26462  0.50994  1.0000
  O   O46       1.0  0.37713  0.28995  0.55627  1.0000
  O   O47       1.0  0.35386  0.23960  0.55529  1.0000
  C   C122      1.0  0.41889  0.15908  0.34479  1.0000
  C   C123      1.0  0.40426  0.14169  0.42596  1.0000
  C   C124      1.0  0.37429  0.11098  0.42294  1.0000
  H   H49       1.0  0.36272  0.10073  0.48286  1.0000
  N   N20       1.0  0.41832  0.15696  0.50968  1.0000
  O   O48       1.0  0.42610  0.13941  0.55613  1.0000
  O   O49       1.0  0.39899  0.16265  0.55503  1.0000
  C   C125      1.0  0.49180  0.74752  0.34891  1.0000
  C   C126      1.0  0.42043  0.71179  0.34658  1.0000
  C   C127      1.0  0.43762  0.69413  0.34708  1.0000
  C   C128      1.0  0.47257  0.71213  0.34906  1.0000
  O   O50       1.0  0.38667  0.69486  0.34629  1.0000
  H   H50       1.0  0.48364  0.69816  0.34995  1.0000
  C   C129      1.0  0.32209  0.74669  0.34733  1.0000
  O   O51       1.0  0.32132  0.69499  0.34696  1.0000
  H   H51       1.0  0.31808  0.78869  0.34991  1.0000
  O   O52       1.0  0.32122  0.62959  0.34673  1.0000
  C   C130      1.0  0.41881  0.76289  0.34071  1.0000
  C   C131      1.0  0.40134  0.76027  0.25978  1.0000
  C   C132      1.0  0.37148  0.76110  0.26283  1.0000
  H   H52       1.0  0.35803  0.75615  0.20445  1.0000
  N   N21       1.0  0.41267  0.75387  0.17757  1.0000
  O   O53       1.0  0.41856  0.77582  0.11983  1.0000
  O   O54       1.0  0.39212  0.72628  0.14501  1.0000
  C   C133      1.0  0.35707  0.59744  0.34117  1.0000
  C   C134      1.0  0.37193  0.61480  0.26004  1.0000
  C   C135      1.0  0.40268  0.64462  0.26256  1.0000
  H   H53       1.0  0.41105  0.65801  0.20406  1.0000
  N   N22       1.0  0.35412  0.60339  0.17796  1.0000
  O   O55       1.0  0.37006  0.59735  0.12023  1.0000
  O   O56       1.0  0.34709  0.62393  0.14521  1.0000
  C   C136      1.0  0.47254  0.76363  0.34745  1.0000
  C   C137      1.0  0.43758  0.74665  0.34570  1.0000
  H   H54       1.0  0.37995  0.69243  0.41002  1.0000
  H   H55       1.0  0.48358  0.78867  0.34592  1.0000
  H   H56       1.0  0.32377  0.69076  0.41073  1.0000
  C   C138      1.0  0.32207  0.57867  0.34604  1.0000
  H   H57       1.0  0.32553  0.63630  0.41047  1.0000
  H   H58       1.0  0.31809  0.53267  0.34625  1.0000
  C   C139      1.0  0.35713  0.76299  0.34523  1.0000
  C   C140      1.0  0.37470  0.76579  0.42610  1.0000
  C   C141      1.0  0.40536  0.76645  0.42277  1.0000
  H   H59       1.0  0.41579  0.76532  0.48258  1.0000
  N   N23       1.0  0.35952  0.76462  0.50994  1.0000
  O   O57       1.0  0.37713  0.78995  0.55627  1.0000
  O   O58       1.0  0.35386  0.73960  0.55529  1.0000
  C   C142      1.0  0.41889  0.65908  0.34479  1.0000
  C   C143      1.0  0.40426  0.64169  0.42596  1.0000
  C   C144      1.0  0.37429  0.61099  0.42294  1.0000
  H   H60       1.0  0.36272  0.60073  0.48286  1.0000
  N   N24       1.0  0.41832  0.65696  0.50968  1.0000
  O   O59       1.0  0.42610  0.63941  0.55613  1.0000
  O   O60       1.0  0.39899  0.66265  0.55503  1.0000
  C   C145      1.0  0.52769  0.26547  0.34895  1.0000
  C   C146      1.0  0.54692  0.30085  0.34918  1.0000
  C   C147      1.0  0.58187  0.31886  0.34725  1.0000
  C   C148      1.0  0.59907  0.30120  0.34694  1.0000
  H   H61       1.0  0.53585  0.31483  0.35008  1.0000
  O   O61       1.0  0.63282  0.31812  0.34677  1.0000
  C   C149      1.0  0.99180  0.24752  0.34891  1.0000
  C   C150      1.0  0.92043  0.21179  0.34658  1.0000
  C   C151      1.0  0.93763  0.19413  0.34708  1.0000
  C   C152      1.0  0.97257  0.21213  0.34906  1.0000
  O   O62       1.0  0.88668  0.19486  0.34629  1.0000
  H   H62       1.0  0.98364  0.19816  0.34995  1.0000
  C   C153      1.0  0.75076  0.26545  0.34887  1.0000
  C   C154      1.0  0.71538  0.24931  0.34903  1.0000
  C   C155      1.0  0.69738  0.26627  0.34734  1.0000
  C   C156      1.0  0.71505  0.30112  0.34703  1.0000
  H   H63       1.0  0.70139  0.22427  0.34974  1.0000
  O   O63       1.0  0.69815  0.31797  0.34682  1.0000
  C   C157      1.0  0.76871  0.24751  0.34888  1.0000
  C   C158      1.0  0.80442  0.21184  0.34710  1.0000
  C   C159      1.0  0.82209  0.24669  0.34733  1.0000
  C   C160      1.0  0.80409  0.26365  0.34910  1.0000
  O   O64       1.0  0.82132  0.19499  0.34696  1.0000
  H   H64       1.0  0.81808  0.28869  0.34991  1.0000
  C   C161      1.0  0.75078  0.48857  0.34890  1.0000
  C   C162      1.0  0.76694  0.46934  0.34887  1.0000
  C   C163      1.0  0.74999  0.43439  0.34702  1.0000
  C   C164      1.0  0.71514  0.41719  0.34662  1.0000
  H   H65       1.0  0.79198  0.48040  0.34955  1.0000
  O   O65       1.0  0.69831  0.38344  0.34641  1.0000
  C   C165      1.0  0.76872  0.02446  0.34896  1.0000
  C   C166      1.0  0.80438  0.09583  0.34697  1.0000
  C   C167      1.0  0.76953  0.07865  0.34728  1.0000
  C   C168      1.0  0.75257  0.04369  0.34900  1.0000
  O   O66       1.0  0.82122  0.12959  0.34673  1.0000
  H   H66       1.0  0.72753  0.03263  0.34957  1.0000
  C   C169      1.0  0.60068  0.25011  0.34078  1.0000
  C   C170      1.0  0.61808  0.25261  0.25980  1.0000
  C   C171      1.0  0.64792  0.25174  0.26260  1.0000
  H   H67       1.0  0.66134  0.25666  0.20418  1.0000
  N   N25       1.0  0.60669  0.25898  0.17766  1.0000
  O   O67       1.0  0.60072  0.23699  0.11997  1.0000
  O   O68       1.0  0.62722  0.28654  0.14494  1.0000
  C   C172      1.0  0.76614  0.35380  0.34105  1.0000
  C   C173      1.0  0.76363  0.36865  0.25991  1.0000
  C   C174      1.0  0.76455  0.39939  0.26242  1.0000
  H   H68       1.0  0.75951  0.40774  0.20392  1.0000
  N   N26       1.0  0.75722  0.35082  0.17785  1.0000
  O   O69       1.0  0.77920  0.36677  0.12010  1.0000
  O   O70       1.0  0.72966  0.34379  0.14513  1.0000
  C   C175      1.0  0.66243  0.41557  0.34109  1.0000
  C   C176      1.0  0.64761  0.39810  0.26006  1.0000
  C   C177      1.0  0.61687  0.36828  0.26288  1.0000
  H   H69       1.0  0.60849  0.35483  0.20446  1.0000
  N   N27       1.0  0.66537  0.40943  0.17787  1.0000
  O   O71       1.0  0.64936  0.41538  0.12010  1.0000
  O   O72       1.0  0.67240  0.38888  0.14531  1.0000
  C   C178      1.0  0.91881  0.26288  0.34071  1.0000
  C   C179      1.0  0.90134  0.26027  0.25978  1.0000
  C   C180      1.0  0.87148  0.26110  0.26283  1.0000
  H   H70       1.0  0.85803  0.25615  0.20445  1.0000
  N   N28       1.0  0.91267  0.25387  0.17757  1.0000
  O   O73       1.0  0.91856  0.27582  0.11983  1.0000
  O   O74       1.0  0.89212  0.22628  0.14501  1.0000
  C   C181      1.0  0.75330  0.15914  0.34090  1.0000
  C   C182      1.0  0.75582  0.14433  0.25980  1.0000
  C   C183      1.0  0.75499  0.11364  0.26254  1.0000
  H   H71       1.0  0.75993  0.10518  0.20409  1.0000
  N   N29       1.0  0.76217  0.16211  0.17768  1.0000
  O   O75       1.0  0.74018  0.14609  0.12002  1.0000
  O   O76       1.0  0.78974  0.16917  0.14493  1.0000
  C   C184      1.0  0.85707  0.09744  0.34117  1.0000
  C   C185      1.0  0.87193  0.11480  0.26004  1.0000
  C   C186      1.0  0.90268  0.14462  0.26256  1.0000
  H   H72       1.0  0.91105  0.15801  0.20406  1.0000
  N   N30       1.0  0.85412  0.10339  0.17796  1.0000
  O   O77       1.0  0.87006  0.09735  0.12023  1.0000
  O   O78       1.0  0.84709  0.12393  0.14521  1.0000
  C   C187      1.0  0.58191  0.26634  0.34598  1.0000
  C   C188      1.0  0.54695  0.24935  0.34747  1.0000
  C   C189      1.0  0.97254  0.26364  0.34745  1.0000
  C   C190      1.0  0.93758  0.24665  0.34570  1.0000
  H   H73       1.0  0.63952  0.32060  0.41053  1.0000
  H   H74       1.0  0.87995  0.19243  0.41002  1.0000
  H   H75       1.0  0.53591  0.22432  0.34575  1.0000
  H   H76       1.0  0.98358  0.28867  0.34592  1.0000
  C   C191      1.0  0.74991  0.31880  0.34596  1.0000
  C   C192      1.0  0.76689  0.30083  0.34750  1.0000
  C   C193      1.0  0.75258  0.21213  0.34747  1.0000
  C   C194      1.0  0.76956  0.19415  0.34602  1.0000
  H   H77       1.0  0.69576  0.32229  0.41056  1.0000
  H   H78       1.0  0.82377  0.19076  0.41073  1.0000
  H   H79       1.0  0.79193  0.31481  0.34594  1.0000
  H   H80       1.0  0.72755  0.19815  0.34575  1.0000
  C   C195      1.0  0.69744  0.43435  0.34572  1.0000
  C   C196      1.0  0.71540  0.46930  0.34763  1.0000
  C   C197      1.0  0.80410  0.04371  0.34767  1.0000
  C   C198      1.0  0.82207  0.07867  0.34604  1.0000
  H   H81       1.0  0.69402  0.37674  0.41016  1.0000
  H   H82       1.0  0.82553  0.13630  0.41047  1.0000
  H   H83       1.0  0.70141  0.48035  0.34633  1.0000
  H   H84       1.0  0.81809  0.03267  0.34625  1.0000
  C   C199      1.0  0.66234  0.24999  0.34494  1.0000
  C   C200      1.0  0.64491  0.24730  0.42602  1.0000
  C   C201      1.0  0.61423  0.24660  0.42279  1.0000
  H   H85       1.0  0.60394  0.24788  0.48269  1.0000
  N   N31       1.0  0.66014  0.24852  0.50983  1.0000
  O   O79       1.0  0.64256  0.22321  0.55629  1.0000
  O   O80       1.0  0.66582  0.27356  0.55509  1.0000
  C   C202      1.0  0.76628  0.41564  0.34457  1.0000
  C   C203      1.0  0.76908  0.40100  0.42573  1.0000
  C   C204      1.0  0.76982  0.37104  0.42278  1.0000
  H   H86       1.0  0.76852  0.35949  0.48272  1.0000
  N   N32       1.0  0.76789  0.41508  0.50947  1.0000
  O   O81       1.0  0.79323  0.42287  0.55586  1.0000
  O   O82       1.0  0.74288  0.39575  0.55488  1.0000
  C   C205      1.0  0.60060  0.35390  0.34521  1.0000
  C   C206      1.0  0.61528  0.37145  0.42614  1.0000
  C   C207      1.0  0.64528  0.40212  0.42294  1.0000
  H   H87       1.0  0.65680  0.41252  0.48278  1.0000
  N   N33       1.0  0.60121  0.35626  0.50992  1.0000
  O   O83       1.0  0.59345  0.37387  0.55616  1.0000
  O   O84       1.0  0.62053  0.35059  0.55540  1.0000
  C   C208      1.0  0.85713  0.26299  0.34523  1.0000
  C   C209      1.0  0.87470  0.26579  0.42610  1.0000
  C   C210      1.0  0.90536  0.26645  0.42277  1.0000
  H   H88       1.0  0.91579  0.26531  0.48258  1.0000
  N   N34       1.0  0.85952  0.26462  0.50994  1.0000
  O   O85       1.0  0.87713  0.28995  0.55627  1.0000
  O   O86       1.0  0.85386  0.23960  0.55529  1.0000
  C   C211      1.0  0.75326  0.09741  0.34477  1.0000
  C   C212      1.0  0.75051  0.11211  0.42591  1.0000
  C   C213      1.0  0.74978  0.14208  0.42286  1.0000
  H   H89       1.0  0.75105  0.15363  0.48279  1.0000
  N   N35       1.0  0.75172  0.09807  0.50968  1.0000
  O   O87       1.0  0.72640  0.09030  0.55611  1.0000
  O   O88       1.0  0.77675  0.11742  0.55503  1.0000
  C   C214      1.0  0.91889  0.15908  0.34479  1.0000
  C   C215      1.0  0.90426  0.14169  0.42596  1.0000
  C   C216      1.0  0.87429  0.11098  0.42294  1.0000
  H   H90       1.0  0.86272  0.10073  0.48286  1.0000
  N   N36       1.0  0.91832  0.15696  0.50968  1.0000
  O   O89       1.0  0.92610  0.13941  0.55613  1.0000
  O   O90       1.0  0.89899  0.16265  0.55503  1.0000
  C   C217      1.0  0.52769  0.76547  0.34895  1.0000
  C   C218      1.0  0.54692  0.80085  0.34918  1.0000
  C   C219      1.0  0.58187  0.81886  0.34725  1.0000
  C   C220      1.0  0.59907  0.80120  0.34694  1.0000
  H   H91       1.0  0.53585  0.81483  0.35008  1.0000
  O   O91       1.0  0.63282  0.81812  0.34677  1.0000
  C   C221      1.0  0.99180  0.74752  0.34891  1.0000
  C   C222      1.0  0.92043  0.71179  0.34658  1.0000
  C   C223      1.0  0.93762  0.69413  0.34708  1.0000
  C   C224      1.0  0.97257  0.71213  0.34906  1.0000
  O   O92       1.0  0.88667  0.69486  0.34629  1.0000
  H   H92       1.0  0.98364  0.69816  0.34995  1.0000
  C   C225      1.0  0.75076  0.76545  0.34887  1.0000
  C   C226      1.0  0.71538  0.74931  0.34903  1.0000
  C   C227      1.0  0.69738  0.76627  0.34734  1.0000
  C   C228      1.0  0.71506  0.80113  0.34703  1.0000
  H   H93       1.0  0.70139  0.72427  0.34974  1.0000
  O   O93       1.0  0.69815  0.81797  0.34682  1.0000
  C   C229      1.0  0.76871  0.74751  0.34888  1.0000
  C   C230      1.0  0.80442  0.71183  0.34710  1.0000
  C   C231      1.0  0.82209  0.74669  0.34733  1.0000
  C   C232      1.0  0.80410  0.76365  0.34910  1.0000
  O   O94       1.0  0.82132  0.69499  0.34696  1.0000
  H   H94       1.0  0.81808  0.78869  0.34991  1.0000
  C   C233      1.0  0.75078  0.98857  0.34890  1.0000
  C   C234      1.0  0.76694  0.96934  0.34887  1.0000
  C   C235      1.0  0.74999  0.93439  0.34702  1.0000
  C   C236      1.0  0.71514  0.91719  0.34662  1.0000
  H   H95       1.0  0.79198  0.98040  0.34955  1.0000
  O   O95       1.0  0.69831  0.88344  0.34641  1.0000
  C   C237      1.0  0.76872  0.52446  0.34896  1.0000
  C   C238      1.0  0.80438  0.59583  0.34697  1.0000
  C   C239      1.0  0.76953  0.57865  0.34728  1.0000
  C   C240      1.0  0.75257  0.54369  0.34900  1.0000
  O   O96       1.0  0.82122  0.62959  0.34673  1.0000
  H   H96       1.0  0.72753  0.53263  0.34957  1.0000
  C   C241      1.0  0.60068  0.75011  0.34078  1.0000
  C   C242      1.0  0.61808  0.75261  0.25980  1.0000
  C   C243      1.0  0.64792  0.75174  0.26260  1.0000
  H   H97       1.0  0.66134  0.75666  0.20418  1.0000
  N   N37       1.0  0.60669  0.75898  0.17766  1.0000
  O   O97       1.0  0.60072  0.73699  0.11997  1.0000
  O   O98       1.0  0.62723  0.78655  0.14494  1.0000
  C   C244      1.0  0.76614  0.85380  0.34105  1.0000
  C   C245      1.0  0.76363  0.86865  0.25991  1.0000
  C   C246      1.0  0.76455  0.89939  0.26242  1.0000
  H   H98       1.0  0.75951  0.90774  0.20392  1.0000
  N   N38       1.0  0.75722  0.85082  0.17785  1.0000
  O   O99       1.0  0.77920  0.86677  0.12010  1.0000
  O   O100      1.0  0.72966  0.84379  0.14513  1.0000
  C   C247      1.0  0.66243  0.91557  0.34109  1.0000
  C   C248      1.0  0.64761  0.89811  0.26006  1.0000
  C   C249      1.0  0.61688  0.86828  0.26288  1.0000
  H   H99       1.0  0.60849  0.85483  0.20446  1.0000
  N   N39       1.0  0.66537  0.90943  0.17787  1.0000
  O   O101      1.0  0.64937  0.91538  0.12010  1.0000
  O   O102      1.0  0.67240  0.88888  0.14531  1.0000
  C   C250      1.0  0.91881  0.76289  0.34071  1.0000
  C   C251      1.0  0.90134  0.76027  0.25978  1.0000
  C   C252      1.0  0.87148  0.76110  0.26283  1.0000
  H   H100      1.0  0.85803  0.75615  0.20445  1.0000
  N   N40       1.0  0.91267  0.75387  0.17757  1.0000
  O   O103      1.0  0.91856  0.77582  0.11983  1.0000
  O   O104      1.0  0.89212  0.72628  0.14501  1.0000
  C   C253      1.0  0.75330  0.65914  0.34090  1.0000
  C   C254      1.0  0.75582  0.64433  0.25980  1.0000
  C   C255      1.0  0.75499  0.61364  0.26254  1.0000
  H   H101      1.0  0.75993  0.60518  0.20409  1.0000
  N   N41       1.0  0.76217  0.66211  0.17768  1.0000
  O   O105      1.0  0.74019  0.64609  0.12002  1.0000
  O   O106      1.0  0.78974  0.66917  0.14493  1.0000
  C   C256      1.0  0.85706  0.59744  0.34117  1.0000
  C   C257      1.0  0.87193  0.61480  0.26004  1.0000
  C   C258      1.0  0.90268  0.64462  0.26256  1.0000
  H   H102      1.0  0.91105  0.65801  0.20406  1.0000
  N   N42       1.0  0.85412  0.60339  0.17796  1.0000
  O   O107      1.0  0.87006  0.59735  0.12023  1.0000
  O   O108      1.0  0.84709  0.62393  0.14521  1.0000
  C   C259      1.0  0.58191  0.76634  0.34598  1.0000
  C   C260      1.0  0.54696  0.74935  0.34747  1.0000
  C   C261      1.0  0.97254  0.76363  0.34745  1.0000
  C   C262      1.0  0.93758  0.74665  0.34570  1.0000
  H   H103      1.0  0.63952  0.82060  0.41053  1.0000
  H   H104      1.0  0.87995  0.69243  0.41002  1.0000
  H   H105      1.0  0.53591  0.72432  0.34575  1.0000
  H   H106      1.0  0.98358  0.78867  0.34592  1.0000
  C   C263      1.0  0.74991  0.81881  0.34596  1.0000
  C   C264      1.0  0.76689  0.80083  0.34750  1.0000
  C   C265      1.0  0.75258  0.71213  0.34747  1.0000
  C   C266      1.0  0.76956  0.69415  0.34602  1.0000
  H   H107      1.0  0.69576  0.82229  0.41056  1.0000
  H   H108      1.0  0.82377  0.69076  0.41073  1.0000
  H   H109      1.0  0.79193  0.81481  0.34594  1.0000
  H   H110      1.0  0.72755  0.69815  0.34575  1.0000
  C   C267      1.0  0.69744  0.93435  0.34572  1.0000
  C   C268      1.0  0.71540  0.96931  0.34763  1.0000
  C   C269      1.0  0.80410  0.54371  0.34767  1.0000
  C   C270      1.0  0.82207  0.57867  0.34604  1.0000
  H   H111      1.0  0.69401  0.87674  0.41016  1.0000
  H   H112      1.0  0.82553  0.63630  0.41047  1.0000
  H   H113      1.0  0.70141  0.98035  0.34633  1.0000
  H   H114      1.0  0.81809  0.53267  0.34625  1.0000
  C   C271      1.0  0.66234  0.74998  0.34494  1.0000
  C   C272      1.0  0.64491  0.74730  0.42602  1.0000
  C   C273      1.0  0.61423  0.74660  0.42279  1.0000
  H   H115      1.0  0.60394  0.74788  0.48269  1.0000
  N   N43       1.0  0.66014  0.74852  0.50983  1.0000
  O   O109      1.0  0.64256  0.72322  0.55629  1.0000
  O   O110      1.0  0.66583  0.77356  0.55509  1.0000
  C   C274      1.0  0.76628  0.91565  0.34457  1.0000
  C   C275      1.0  0.76908  0.90100  0.42573  1.0000
  C   C276      1.0  0.76982  0.87104  0.42278  1.0000
  H   H116      1.0  0.76852  0.85949  0.48272  1.0000
  N   N44       1.0  0.76789  0.91508  0.50947  1.0000
  O   O111      1.0  0.79323  0.92287  0.55586  1.0000
  O   O112      1.0  0.74288  0.89575  0.55488  1.0000
  C   C277      1.0  0.60060  0.85390  0.34521  1.0000
  C   C278      1.0  0.61528  0.87145  0.42614  1.0000
  C   C279      1.0  0.64528  0.90212  0.42294  1.0000
  H   H117      1.0  0.65680  0.91252  0.48278  1.0000
  N   N45       1.0  0.60121  0.85627  0.50992  1.0000
  O   O113      1.0  0.59345  0.87387  0.55616  1.0000
  O   O114      1.0  0.62053  0.85059  0.55540  1.0000
  C   C280      1.0  0.85713  0.76299  0.34523  1.0000
  C   C281      1.0  0.87470  0.76579  0.42610  1.0000
  C   C282      1.0  0.90536  0.76645  0.42277  1.0000
  H   H118      1.0  0.91579  0.76532  0.48258  1.0000
  N   N46       1.0  0.85952  0.76462  0.50994  1.0000
  O   O115      1.0  0.87713  0.78995  0.55627  1.0000
  O   O116      1.0  0.85386  0.73960  0.55529  1.0000
  C   C283      1.0  0.75326  0.59741  0.34477  1.0000
  C   C284      1.0  0.75051  0.61211  0.42591  1.0000
  C   C285      1.0  0.74978  0.64209  0.42286  1.0000
  H   H119      1.0  0.75105  0.65363  0.48279  1.0000
  N   N47       1.0  0.75172  0.59807  0.50968  1.0000
  O   O117      1.0  0.72639  0.59030  0.55611  1.0000
  O   O118      1.0  0.77675  0.61742  0.55503  1.0000
  C   C286      1.0  0.91889  0.65908  0.34479  1.0000
  C   C287      1.0  0.90426  0.64169  0.42596  1.0000
  C   C288      1.0  0.87429  0.61099  0.42294  1.0000
  H   H120      1.0  0.86272  0.60073  0.48286  1.0000
  N   N48       1.0  0.91832  0.65696  0.50968  1.0000
  O   O119      1.0  0.92610  0.63941  0.55613  1.0000
  O   O120      1.0  0.89899  0.66265  0.55503  1.0000
