data_image0
_chemical_formula_structural       C2H2C4N2O4C4N2O4C4N2O4C2H2C2H2C2H2C2H2C4N2O4C4N2O4C2H2C4N2O4C4N2O4C4N2O4C2H2C2H2C2H2C2H2C4N2O4C4N2O4C2H2C2H2C4N2O4C4N2O4C2H2C2H2C4N2O4C4N2O4C2H2C2H2C4N2O4C4N2O4C2H2C2H2C4N2O4C4N2O4C6H3C6H3C6H3C6H3C6H3C6H3C6H3C6H3C6H3C6H3C6H3C6H3C6H3C6H3C6H3C6H3C6H3C6H3C6H3C6H3C6H3C6H3C6H3C6H3C4N2O4C2H2C2H2C2H2C4N2O4C4N2O4C4N2O4C4N2O4C2H2C2H2C4N2O4C2H2C2H2C2H2C4N2O4C4N2O4C4N2O4C4N2O4C2H2C2H2C4N2O4C4N2O4C2H2C2H2C4N2O4C4N2O4C2H2C2H2C4N2O4C4N2O4C2H2C2H2C4N2O4C4N2O4C2H2C2H2
_chemical_formula_sum              "C360 H144 N72 O144"
_cell_length_a       42.6868
_cell_length_b       54.2762
_cell_length_c       14.8087
_cell_angle_alpha    90
_cell_angle_beta     90
_cell_angle_gamma    90

_space_group_name_H-M_alt    "P 1"
_space_group_IT_number       1

loop_
  _space_group_symop_operation_xyz
  'x, y, z'

loop_
  _atom_site_type_symbol
  _atom_site_label
  _atom_site_symmetry_multiplicity
  _atom_site_fract_x
  _atom_site_fract_y
  _atom_site_fract_z
  _atom_site_occupancy
  C   C1        1.0  0.51593  0.99584  0.26614  1.0000
  C   C2        1.0  0.49722  0.01719  0.26614  1.0000
  H   H1        1.0  0.49082  0.02475  0.20546  1.0000
  H   H2        1.0  0.52248  0.98837  0.20546  1.0000
  C   C3        1.0  0.98738  0.48471  0.34473  1.0000
  C   C4        1.0  0.02550  0.52821  0.34474  1.0000
  C   C5        1.0  0.01605  0.51732  0.26167  1.0000
  C   C6        1.0  0.99711  0.49546  0.26167  1.0000
  N   N1        1.0  0.02642  0.52936  0.18213  1.0000
  N   N2        1.0  0.98695  0.48330  0.18213  1.0000
  O   O1        1.0  0.04442  0.51650  0.13461  1.0000
  O   O2        1.0  0.00896  0.47457  0.13604  1.0000
  O   O3        1.0  0.00454  0.53802  0.13537  1.0000
  O   O4        1.0  0.96908  0.49610  0.13395  1.0000
  C   C7        1.0  0.31705  0.07551  0.33822  1.0000
  C   C8        1.0  0.38395  0.07053  0.33800  1.0000
  C   C9        1.0  0.36708  0.07165  0.25496  1.0000
  C   C10       1.0  0.33385  0.07416  0.25508  1.0000
  N   N3        1.0  0.38209  0.07102  0.16947  1.0000
  N   N4        1.0  0.31896  0.07586  0.16965  1.0000
  O   O5        1.0  0.39970  0.08923  0.15676  1.0000
  O   O6        1.0  0.29971  0.05873  0.15710  1.0000
  O   O7        1.0  0.39716  0.05142  0.15735  1.0000
  O   O8        1.0  0.30577  0.09628  0.15737  1.0000
  C   C11       1.0  0.69587  0.93738  0.33818  1.0000
  C   C12       1.0  0.62897  0.94238  0.33794  1.0000
  C   C13       1.0  0.64585  0.94123  0.25491  1.0000
  C   C14       1.0  0.67908  0.93872  0.25502  1.0000
  N   N5        1.0  0.63084  0.94184  0.16942  1.0000
  N   N6        1.0  0.69397  0.93698  0.16960  1.0000
  O   O9        1.0  0.61322  0.92363  0.15675  1.0000
  O   O10       1.0  0.71323  0.95410  0.15699  1.0000
  O   O11       1.0  0.61578  0.96144  0.15722  1.0000
  O   O12       1.0  0.70713  0.91655  0.15740  1.0000
  C   C15       1.0  0.17877  0.57442  0.27271  1.0000
  C   C16       1.0  0.14595  0.57196  0.27280  1.0000
  H   H3        1.0  0.13437  0.57200  0.21217  1.0000
  H   H4        1.0  0.19008  0.57622  0.21201  1.0000
  C   C17       1.0  0.83415  0.43851  0.27278  1.0000
  C   C18       1.0  0.86696  0.44097  0.27289  1.0000
  H   H5        1.0  0.87855  0.44095  0.21227  1.0000
  H   H6        1.0  0.82283  0.43673  0.21208  1.0000
  C   C19       1.0  0.50049  0.15532  0.26906  1.0000
  C   C20       1.0  0.48850  0.13119  0.26952  1.0000
  H   H7        1.0  0.48486  0.12249  0.20898  1.0000
  H   H8        1.0  0.50520  0.16355  0.20827  1.0000
  C   C21       1.0  0.51243  0.85760  0.26905  1.0000
  C   C22       1.0  0.52441  0.88173  0.26952  1.0000
  H   H9        1.0  0.52806  0.89043  0.20898  1.0000
  H   H10       1.0  0.50771  0.84937  0.20827  1.0000
  C   C23       1.0  0.00812  0.66843  0.34217  1.0000
  C   C24       1.0  0.03233  0.61934  0.34127  1.0000
  C   C25       1.0  0.02780  0.63225  0.25839  1.0000
  C   C26       1.0  0.01578  0.65680  0.25910  1.0000
  N   N7        1.0  0.03497  0.62182  0.17306  1.0000
  N   N8        1.0  0.01130  0.67067  0.17890  1.0000
  O   O13       1.0  0.06366  0.61737  0.16365  1.0000
  O   O14       1.0  0.03654  0.67417  0.13719  1.0000
  O   O15       1.0  0.01937  0.60267  0.15744  1.0000
  O   O16       1.0  0.99168  0.66080  0.12706  1.0000
  C   C27       1.0  0.00479  0.34449  0.34216  1.0000
  C   C28       1.0  0.98059  0.39358  0.34124  1.0000
  C   C29       1.0  0.98512  0.38067  0.25836  1.0000
  C   C30       1.0  0.99714  0.35612  0.25908  1.0000
  N   N9        1.0  0.97794  0.39109  0.17303  1.0000
  N   N10       1.0  0.00161  0.34224  0.17888  1.0000
  O   O17       1.0  0.94926  0.39555  0.16363  1.0000
  O   O18       1.0  0.97637  0.33875  0.13717  1.0000
  O   O19       1.0  0.99355  0.41024  0.15740  1.0000
  O   O20       1.0  0.02123  0.35211  0.12703  1.0000
  C   C31       1.0  0.52228  0.51009  0.27287  1.0000
  C   C32       1.0  0.49063  0.50280  0.27288  1.0000
  H   H11       1.0  0.47960  0.50018  0.21216  1.0000
  H   H12       1.0  0.53331  0.51272  0.21215  1.0000
  C   C33       1.0  0.97415  0.01379  0.33806  1.0000
  C   C34       1.0  0.03875  0.99911  0.33804  1.0000
  C   C35       1.0  0.02245  0.00272  0.25500  1.0000
  C   C36       1.0  0.99045  0.01018  0.25501  1.0000
  N   N11       1.0  0.03673  0.99919  0.16948  1.0000
  N   N12       1.0  0.97616  0.01372  0.16949  1.0000
  O   O21       1.0  0.05898  0.01386  0.15629  1.0000
  O   O22       1.0  0.96705  0.03547  0.15754  1.0000
  O   O23       1.0  0.04585  0.97743  0.15752  1.0000
  O   O24       1.0  0.95392  0.99905  0.15631  1.0000
  C   C37       1.0  0.39801  0.43086  0.34132  1.0000
  C   C38       1.0  0.38733  0.37878  0.34060  1.0000
  C   C39       1.0  0.39121  0.39179  0.25770  1.0000
  C   C40       1.0  0.39651  0.41770  0.25807  1.0000
  N   N13       1.0  0.39008  0.38003  0.17217  1.0000
  N   N14       1.0  0.40017  0.42931  0.17286  1.0000
  O   O25       1.0  0.41171  0.36461  0.16188  1.0000
  O   O26       1.0  0.37950  0.44530  0.15843  1.0000
  O   O27       1.0  0.36409  0.36995  0.15739  1.0000
  O   O28       1.0  0.42686  0.43865  0.16300  1.0000
  C   C41       1.0  0.61490  0.58206  0.34128  1.0000
  C   C42       1.0  0.62557  0.63414  0.34057  1.0000
  C   C43       1.0  0.62170  0.62112  0.25766  1.0000
  C   C44       1.0  0.61640  0.59522  0.25803  1.0000
  N   N15       1.0  0.62282  0.63288  0.17213  1.0000
  N   N16       1.0  0.61274  0.58360  0.17282  1.0000
  O   O29       1.0  0.60118  0.64831  0.16186  1.0000
  O   O30       1.0  0.63341  0.56761  0.15839  1.0000
  O   O31       1.0  0.64881  0.64296  0.15735  1.0000
  O   O32       1.0  0.58605  0.57426  0.16296  1.0000
  C   C45       1.0  0.11895  0.91770  0.26979  1.0000
  C   C46       1.0  0.12419  0.89211  0.27014  1.0000
  H   H13       1.0  0.12668  0.88317  0.20958  1.0000
  H   H14       1.0  0.11778  0.92668  0.20900  1.0000
  C   C47       1.0  0.89396  0.09521  0.26983  1.0000
  C   C48       1.0  0.88872  0.12080  0.27016  1.0000
  H   H15       1.0  0.88622  0.12974  0.20962  1.0000
  H   H16       1.0  0.89512  0.08623  0.20904  1.0000
  C   C49       1.0  0.34688  0.52555  0.27260  1.0000
  C   C50       1.0  0.32181  0.54241  0.27233  1.0000
  H   H17       1.0  0.31331  0.54845  0.21152  1.0000
  H   H18       1.0  0.35575  0.51970  0.21196  1.0000
  C   C51       1.0  0.66599  0.48732  0.27256  1.0000
  C   C52       1.0  0.69106  0.47046  0.27232  1.0000
  H   H19       1.0  0.69952  0.46438  0.21151  1.0000
  H   H20       1.0  0.65708  0.49313  0.21193  1.0000
  C   C53       1.0  0.15294  0.01693  0.33824  1.0000
  C   C54       1.0  0.20427  0.05116  0.33876  1.0000
  C   C55       1.0  0.19134  0.04264  0.25559  1.0000
  C   C56       1.0  0.16601  0.02553  0.25534  1.0000
  N   N17       1.0  0.20246  0.05067  0.17022  1.0000
  N   N18       1.0  0.15472  0.01790  0.16971  1.0000
  O   O33       1.0  0.19899  0.07343  0.15855  1.0000
  O   O34       1.0  0.15737  0.99509  0.15756  1.0000
  O   O35       1.0  0.23055  0.04484  0.15713  1.0000
  O   O36       1.0  0.12689  0.02440  0.15653  1.0000
  C   C57       1.0  0.85996  0.99599  0.33826  1.0000
  C   C58       1.0  0.80864  0.96175  0.33878  1.0000
  C   C59       1.0  0.82155  0.97029  0.25561  1.0000
  C   C60       1.0  0.84688  0.98740  0.25536  1.0000
  N   N19       1.0  0.81042  0.96227  0.17023  1.0000
  N   N20       1.0  0.85816  0.99504  0.16973  1.0000
  O   O37       1.0  0.81389  0.93951  0.15851  1.0000
  O   O38       1.0  0.85550  0.01785  0.15763  1.0000
  O   O39       1.0  0.78233  0.96810  0.15719  1.0000
  O   O40       1.0  0.88599  0.98855  0.15651  1.0000
  C   C61       1.0  0.22562  0.17765  0.27596  1.0000
  C   C62       1.0  0.23206  0.15226  0.27406  1.0000
  H   H21       1.0  0.23491  0.14378  0.21276  1.0000
  H   H22       1.0  0.22388  0.18696  0.21597  1.0000
  C   C63       1.0  0.78731  0.83526  0.27594  1.0000
  C   C64       1.0  0.78087  0.86064  0.27404  1.0000
  H   H23       1.0  0.77802  0.86913  0.21274  1.0000
  H   H24       1.0  0.78904  0.82594  0.21595  1.0000
  C   C65       1.0  0.29084  0.69026  0.33384  1.0000
  C   C66       1.0  0.27779  0.63867  0.33766  1.0000
  C   C67       1.0  0.28130  0.65109  0.25349  1.0000
  C   C68       1.0  0.28784  0.67678  0.25162  1.0000
  N   N21       1.0  0.27823  0.63900  0.16895  1.0000
  N   N22       1.0  0.29071  0.68782  0.16524  1.0000
  O   O41       1.0  0.25125  0.63038  0.15674  1.0000
  O   O42       1.0  0.31740  0.69681  0.15229  1.0000
  O   O43       1.0  0.29829  0.62233  0.15822  1.0000
  O   O44       1.0  0.27010  0.70383  0.15105  1.0000
  C   C69       1.0  0.72207  0.32265  0.33385  1.0000
  C   C70       1.0  0.73511  0.37424  0.33769  1.0000
  C   C71       1.0  0.73162  0.36182  0.25351  1.0000
  C   C72       1.0  0.72508  0.33612  0.25163  1.0000
  N   N23       1.0  0.73471  0.37391  0.16897  1.0000
  N   N24       1.0  0.72225  0.32509  0.16525  1.0000
  O   O45       1.0  0.76169  0.38252  0.15681  1.0000
  O   O46       1.0  0.69557  0.31608  0.15223  1.0000
  O   O47       1.0  0.71465  0.39057  0.15820  1.0000
  O   O48       1.0  0.74287  0.30908  0.15110  1.0000
  C   C73       1.0  0.30443  0.29644  0.27150  1.0000
  C   C74       1.0  0.27752  0.28157  0.27421  1.0000
  H   H25       1.0  0.26843  0.27514  0.21462  1.0000
  H   H26       1.0  0.31448  0.30018  0.21015  1.0000
  C   C75       1.0  0.70850  0.71646  0.27146  1.0000
  C   C76       1.0  0.73541  0.73133  0.27418  1.0000
  H   H27       1.0  0.74450  0.73776  0.21459  1.0000
  H   H28       1.0  0.69845  0.71272  0.21011  1.0000
  C   C77       1.0  0.19463  0.80517  0.34056  1.0000
  C   C78       1.0  0.24909  0.77482  0.33513  1.0000
  C   C79       1.0  0.23543  0.78354  0.25328  1.0000
  C   C80       1.0  0.20802  0.79854  0.25621  1.0000
  N   N25       1.0  0.24735  0.77755  0.16675  1.0000
  N   N26       1.0  0.19255  0.80683  0.17696  1.0000
  O   O49       1.0  0.24654  0.75486  0.15075  1.0000
  O   O50       1.0  0.18253  0.78926  0.12984  1.0000
  O   O51       1.0  0.27459  0.78560  0.15493  1.0000
  O   O52       1.0  0.20976  0.82048  0.12967  1.0000
  C   C81       1.0  0.81830  0.20775  0.34061  1.0000
  C   C82       1.0  0.76384  0.23810  0.33516  1.0000
  C   C83       1.0  0.77751  0.22938  0.25331  1.0000
  C   C84       1.0  0.80492  0.21438  0.25624  1.0000
  N   N27       1.0  0.76559  0.23537  0.16677  1.0000
  N   N28       1.0  0.82039  0.20609  0.17700  1.0000
  O   O53       1.0  0.76640  0.25806  0.15078  1.0000
  O   O54       1.0  0.83041  0.22367  0.12988  1.0000
  O   O55       1.0  0.73835  0.22732  0.15495  1.0000
  O   O56       1.0  0.80319  0.19245  0.12971  1.0000
  C   C85       1.0  0.46777  0.26761  0.27132  1.0000
  C   C86       1.0  0.44503  0.28629  0.27067  1.0000
  H   H29       1.0  0.43794  0.29342  0.20992  1.0000
  H   H30       1.0  0.47702  0.26185  0.21103  1.0000
  C   C87       1.0  0.54514  0.74530  0.27132  1.0000
  C   C88       1.0  0.56788  0.72663  0.27067  1.0000
  H   H31       1.0  0.57498  0.71950  0.20992  1.0000
  H   H32       1.0  0.53589  0.75107  0.21102  1.0000
  C   C89       1.0  0.03576  0.75648  0.33940  1.0000
  C   C90       1.0  0.08157  0.79451  0.34046  1.0000
  C   C91       1.0  0.07221  0.78370  0.25739  1.0000
  C   C92       1.0  0.04901  0.76481  0.25651  1.0000
  N   N29       1.0  0.08694  0.79234  0.17751  1.0000
  N   N30       1.0  0.04024  0.75514  0.17122  1.0000
  O   O57       1.0  0.06772  0.80195  0.12380  1.0000
  O   O58       1.0  0.01170  0.75838  0.15432  1.0000
  O   O59       1.0  0.10192  0.77560  0.13786  1.0000
  O   O60       1.0  0.04696  0.73274  0.16298  1.0000
  C   C93       1.0  0.97718  0.25642  0.33939  1.0000
  C   C94       1.0  0.93136  0.21840  0.34049  1.0000
  C   C95       1.0  0.94071  0.22921  0.25741  1.0000
  C   C96       1.0  0.96392  0.24810  0.25652  1.0000
  N   N31       1.0  0.92597  0.22059  0.17754  1.0000
  N   N32       1.0  0.97267  0.25778  0.17122  1.0000
  O   O61       1.0  0.94518  0.21098  0.12379  1.0000
  O   O62       1.0  0.00121  0.25454  0.15429  1.0000
  O   O63       1.0  0.91099  0.23733  0.13792  1.0000
  O   O64       1.0  0.96595  0.28018  0.16300  1.0000
  C   C97       1.0  0.10389  0.27560  0.27516  1.0000
  C   C98       1.0  0.13459  0.26631  0.27690  1.0000
  H   H33       1.0  0.14572  0.26292  0.21683  1.0000
  H   H34       1.0  0.09335  0.27852  0.21389  1.0000
  C   C99       1.0  0.90903  0.73730  0.27513  1.0000
  C   C100      1.0  0.87832  0.74659  0.27688  1.0000
  H   H35       1.0  0.86719  0.74997  0.21681  1.0000
  H   H36       1.0  0.91957  0.73439  0.21386  1.0000
  C   C101      1.0  0.42540  0.78038  0.33645  1.0000
  C   C102      1.0  0.36316  0.76130  0.33294  1.0000
  C   C103      1.0  0.37936  0.76608  0.25058  1.0000
  C   C104      1.0  0.41046  0.77546  0.25232  1.0000
  N   N33       1.0  0.36612  0.76163  0.16430  1.0000
  N   N34       1.0  0.42534  0.77929  0.16772  1.0000
  O   O65       1.0  0.36003  0.73929  0.15165  1.0000
  O   O66       1.0  0.43290  0.80140  0.15560  1.0000
  O   O67       1.0  0.34216  0.77442  0.15007  1.0000
  O   O68       1.0  0.44881  0.76566  0.15672  1.0000
  C   C105      1.0  0.58751  0.23255  0.33648  1.0000
  C   C106      1.0  0.64975  0.25160  0.33296  1.0000
  C   C107      1.0  0.63355  0.24683  0.25060  1.0000
  C   C108      1.0  0.60245  0.23747  0.25234  1.0000
  N   N35       1.0  0.64679  0.25128  0.16432  1.0000
  N   N36       1.0  0.58757  0.23364  0.16774  1.0000
  O   O69       1.0  0.65289  0.27363  0.15167  1.0000
  O   O70       1.0  0.57999  0.21154  0.15562  1.0000
  O   O71       1.0  0.67075  0.23848  0.15008  1.0000
  O   O72       1.0  0.56410  0.24727  0.15676  1.0000
  C   C109      1.0  0.46598  0.09570  0.34738  1.0000
  C   C110      1.0  0.43294  0.09409  0.34415  1.0000
  C   C111      1.0  0.41744  0.07108  0.34149  1.0000
  C   C112      1.0  0.43576  0.04929  0.34218  1.0000
  C   C113      1.0  0.46896  0.05029  0.34444  1.0000
  C   C114      1.0  0.48371  0.07367  0.34720  1.0000
  H   H37       1.0  0.42478  0.03251  0.34093  1.0000
  H   H38       1.0  0.50767  0.07468  0.35012  1.0000
  H   H39       1.0  0.41993  0.10998  0.34392  1.0000
  C   C115      1.0  0.54695  0.91722  0.34738  1.0000
  C   C116      1.0  0.57998  0.91883  0.34410  1.0000
  C   C117      1.0  0.59548  0.94184  0.34141  1.0000
  C   C118      1.0  0.57717  0.96362  0.34210  1.0000
  C   C119      1.0  0.54397  0.96263  0.34444  1.0000
  C   C120      1.0  0.52922  0.93925  0.34723  1.0000
  H   H40       1.0  0.58815  0.98040  0.34083  1.0000
  H   H41       1.0  0.50526  0.93825  0.35019  1.0000
  H   H42       1.0  0.59299  0.90294  0.34388  1.0000
  C   C121      1.0  0.04694  0.59570  0.34515  1.0000
  C   C122      1.0  0.07998  0.59408  0.34837  1.0000
  C   C123      1.0  0.09548  0.57107  0.35100  1.0000
  C   C124      1.0  0.07716  0.54929  0.35028  1.0000
  C   C125      1.0  0.04396  0.55029  0.34804  1.0000
  C   C126      1.0  0.02921  0.57367  0.34534  1.0000
  H   H43       1.0  0.08814  0.53251  0.35151  1.0000
  H   H44       1.0  0.00525  0.57467  0.34243  1.0000
  H   H45       1.0  0.09299  0.60997  0.34859  1.0000
  C   C127      1.0  0.96596  0.41721  0.34512  1.0000
  C   C128      1.0  0.93293  0.41882  0.34842  1.0000
  C   C129      1.0  0.91743  0.44183  0.35110  1.0000
  C   C130      1.0  0.93574  0.46362  0.35040  1.0000
  C   C131      1.0  0.96894  0.46263  0.34804  1.0000
  C   C132      1.0  0.98369  0.43925  0.34524  1.0000
  H   H46       1.0  0.92475  0.48040  0.35168  1.0000
  H   H47       1.0  0.00765  0.43825  0.34230  1.0000
  H   H48       1.0  0.91992  0.40293  0.34864  1.0000
  C   C133      1.0  0.44228  0.49093  0.35087  1.0000
  C   C134      1.0  0.43546  0.46543  0.34750  1.0000
  C   C135      1.0  0.40423  0.45671  0.34543  1.0000
  C   C136      1.0  0.37947  0.47406  0.34740  1.0000
  C   C137      1.0  0.38542  0.49972  0.35087  1.0000
  C   C138      1.0  0.41698  0.50786  0.35190  1.0000
  H   H49       1.0  0.35677  0.46791  0.34642  1.0000
  H   H50       1.0  0.42162  0.52636  0.35479  1.0000
  H   H51       1.0  0.45354  0.45300  0.34675  1.0000
  C   C139      1.0  0.57063  0.52198  0.35083  1.0000
  C   C140      1.0  0.57745  0.54748  0.34746  1.0000
  C   C141      1.0  0.60868  0.55620  0.34538  1.0000
  C   C142      1.0  0.63344  0.53885  0.34735  1.0000
  C   C143      1.0  0.62749  0.51319  0.35083  1.0000
  C   C144      1.0  0.59593  0.50506  0.35185  1.0000
  H   H52       1.0  0.65614  0.54501  0.34637  1.0000
  H   H53       1.0  0.59129  0.48655  0.35476  1.0000
  H   H54       1.0  0.55937  0.55991  0.34671  1.0000
  C   C145      1.0  0.07063  0.99094  0.34166  1.0000
  C   C146      1.0  0.07745  0.96544  0.34503  1.0000
  C   C147      1.0  0.10869  0.95672  0.34710  1.0000
  C   C148      1.0  0.13344  0.97407  0.34513  1.0000
  C   C149      1.0  0.12749  0.99972  0.34166  1.0000
  C   C150      1.0  0.09592  0.00786  0.34063  1.0000
  H   H55       1.0  0.15614  0.96791  0.34611  1.0000
  H   H56       1.0  0.09128  0.02637  0.33774  1.0000
  H   H57       1.0  0.05937  0.95300  0.34578  1.0000
  C   C151      1.0  0.94227  0.02197  0.34168  1.0000
  C   C152      1.0  0.93546  0.04747  0.34506  1.0000
  C   C153      1.0  0.90422  0.05620  0.34714  1.0000
  C   C154      1.0  0.87947  0.03885  0.34517  1.0000
  C   C155      1.0  0.88541  0.01319  0.34169  1.0000
  C   C156      1.0  0.91698  0.00505  0.34064  1.0000
  H   H58       1.0  0.85676  0.04500  0.34615  1.0000
  H   H59       1.0  0.92162  0.98654  0.33776  1.0000
  H   H60       1.0  0.95354  0.05991  0.34582  1.0000
  C   C157      1.0  0.24340  0.11329  0.34946  1.0000
  C   C158      1.0  0.27529  0.10638  0.34669  1.0000
  C   C159      1.0  0.28438  0.08136  0.34205  1.0000
  C   C160      1.0  0.26069  0.06304  0.34045  1.0000
  C   C161      1.0  0.22846  0.06944  0.34264  1.0000
  C   C162      1.0  0.22024  0.09468  0.34736  1.0000
  H   H61       1.0  0.26698  0.04486  0.33668  1.0000
  H   H62       1.0  0.19706  0.09961  0.34891  1.0000
  H   H63       1.0  0.29218  0.11982  0.34793  1.0000
  C   C163      1.0  0.76952  0.89962  0.34943  1.0000
  C   C164      1.0  0.73763  0.90652  0.34665  1.0000
  C   C165      1.0  0.72854  0.93154  0.34201  1.0000
  C   C166      1.0  0.75223  0.94986  0.34045  1.0000
  C   C167      1.0  0.78446  0.94347  0.34264  1.0000
  C   C168      1.0  0.79268  0.91822  0.34734  1.0000
  H   H64       1.0  0.74593  0.96804  0.33666  1.0000
  H   H65       1.0  0.81586  0.91330  0.34890  1.0000
  H   H66       1.0  0.72074  0.89307  0.34788  1.0000
  C   C169      1.0  0.26951  0.61329  0.34306  1.0000
  C   C170      1.0  0.23762  0.60638  0.34581  1.0000
  C   C171      1.0  0.22853  0.58135  0.35044  1.0000
  C   C172      1.0  0.25222  0.56304  0.35203  1.0000
  C   C173      1.0  0.28446  0.56943  0.34988  1.0000
  C   C174      1.0  0.29268  0.59468  0.34517  1.0000
  H   H67       1.0  0.24593  0.54485  0.35583  1.0000
  H   H68       1.0  0.31586  0.59961  0.34362  1.0000
  H   H69       1.0  0.22073  0.61982  0.34457  1.0000
  C   C175      1.0  0.74339  0.39963  0.34309  1.0000
  C   C176      1.0  0.77528  0.40653  0.34586  1.0000
  C   C177      1.0  0.78438  0.43154  0.35051  1.0000
  C   C178      1.0  0.76069  0.44987  0.35208  1.0000
  C   C179      1.0  0.72845  0.44348  0.34989  1.0000
  C   C180      1.0  0.72023  0.41823  0.34518  1.0000
  H   H70       1.0  0.76699  0.46805  0.35586  1.0000
  H   H71       1.0  0.69705  0.41331  0.34361  1.0000
  H   H72       1.0  0.79217  0.39308  0.34463  1.0000
  C   C181      1.0  0.40546  0.31091  0.34744  1.0000
  C   C182      1.0  0.37495  0.30097  0.34846  1.0000
  C   C183      1.0  0.34835  0.31639  0.34702  1.0000
  C   C184      1.0  0.35257  0.34225  0.34557  1.0000
  C   C185      1.0  0.38300  0.35269  0.34392  1.0000
  C   C186      1.0  0.40930  0.33678  0.34542  1.0000
  H   H73       1.0  0.33332  0.35353  0.34532  1.0000
  H   H74       1.0  0.43146  0.34406  0.34523  1.0000
  H   H75       1.0  0.37206  0.28221  0.35119  1.0000
  C   C187      1.0  0.60745  0.70200  0.34744  1.0000
  C   C188      1.0  0.63796  0.71194  0.34846  1.0000
  C   C189      1.0  0.66455  0.69652  0.34699  1.0000
  C   C190      1.0  0.66034  0.67066  0.34553  1.0000
  C   C191      1.0  0.62990  0.66022  0.34389  1.0000
  C   C192      1.0  0.60360  0.67614  0.34540  1.0000
  H   H76       1.0  0.67958  0.65938  0.34526  1.0000
  H   H77       1.0  0.58144  0.66886  0.34521  1.0000
  H   H78       1.0  0.64085  0.73070  0.35118  1.0000
  C   C193      1.0  0.10745  0.81092  0.34496  1.0000
  C   C194      1.0  0.13796  0.80098  0.34392  1.0000
  C   C195      1.0  0.16456  0.81639  0.34538  1.0000
  C   C196      1.0  0.16034  0.84225  0.34692  1.0000
  C   C197      1.0  0.12991  0.85269  0.34858  1.0000
  C   C198      1.0  0.10361  0.83678  0.34705  1.0000
  H   H79       1.0  0.17959  0.85354  0.34719  1.0000
  H   H80       1.0  0.08145  0.84406  0.34725  1.0000
  H   H81       1.0  0.14085  0.78221  0.34118  1.0000
  C   C199      1.0  0.90547  0.20199  0.34497  1.0000
  C   C200      1.0  0.87496  0.21194  0.34394  1.0000
  C   C201      1.0  0.84837  0.19652  0.34539  1.0000
  C   C202      1.0  0.85258  0.17066  0.34694  1.0000
  C   C203      1.0  0.88301  0.16022  0.34860  1.0000
  C   C204      1.0  0.90932  0.17613  0.34706  1.0000
  H   H82       1.0  0.83333  0.15938  0.34723  1.0000
  H   H83       1.0  0.93147  0.16885  0.34727  1.0000
  H   H84       1.0  0.87208  0.23070  0.34120  1.0000
  C   C205      1.0  0.21679  0.21620  0.35680  1.0000
  C   C206      1.0  0.24243  0.23270  0.35563  1.0000
  C   C207      1.0  0.23773  0.25849  0.35626  1.0000
  C   C208      1.0  0.20679  0.26776  0.35637  1.0000
  C   C209      1.0  0.18076  0.25165  0.35743  1.0000
  C   C210      1.0  0.18604  0.22591  0.35691  1.0000
  H   H85       1.0  0.20319  0.28644  0.35700  1.0000
  H   H86       1.0  0.16729  0.21411  0.35803  1.0000
  H   H87       1.0  0.26482  0.22584  0.35594  1.0000
  C   C211      1.0  0.79613  0.79671  0.35679  1.0000
  C   C212      1.0  0.77049  0.78021  0.35562  1.0000
  C   C213      1.0  0.77519  0.75441  0.35624  1.0000
  C   C214      1.0  0.80613  0.74514  0.35631  1.0000
  C   C215      1.0  0.83216  0.76125  0.35742  1.0000
  C   C216      1.0  0.82688  0.78700  0.35690  1.0000
  H   H88       1.0  0.80973  0.72647  0.35698  1.0000
  H   H89       1.0  0.84563  0.79880  0.35802  1.0000
  H   H90       1.0  0.74810  0.78706  0.35593  1.0000
  C   C217      1.0  0.29612  0.71619  0.33573  1.0000
  C   C218      1.0  0.27048  0.73270  0.33693  1.0000
  C   C219      1.0  0.27519  0.75849  0.33625  1.0000
  C   C220      1.0  0.30613  0.76775  0.33618  1.0000
  C   C221      1.0  0.33215  0.75165  0.33509  1.0000
  C   C222      1.0  0.32687  0.72590  0.33561  1.0000
  H   H91       1.0  0.30973  0.78643  0.33548  1.0000
  H   H92       1.0  0.34562  0.71410  0.33448  1.0000
  H   H93       1.0  0.24809  0.72585  0.33654  1.0000
  C   C223      1.0  0.71679  0.29671  0.33573  1.0000
  C   C224      1.0  0.74244  0.28021  0.33693  1.0000
  C   C225      1.0  0.73773  0.25442  0.33626  1.0000
  C   C226      1.0  0.70680  0.24515  0.33618  1.0000
  C   C227      1.0  0.68077  0.26126  0.33510  1.0000
  C   C228      1.0  0.68604  0.28700  0.33560  1.0000
  H   H94       1.0  0.70319  0.22647  0.33552  1.0000
  H   H95       1.0  0.66729  0.29880  0.33449  1.0000
  H   H96       1.0  0.76482  0.28707  0.33656  1.0000
  C   C229      1.0  0.00015  0.27534  0.34288  1.0000
  C   C230      1.0  0.99145  0.30046  0.34269  1.0000
  C   C231      1.0  0.01432  0.31930  0.34584  1.0000
  C   C232      1.0  0.04636  0.31263  0.34956  1.0000
  C   C233      1.0  0.05551  0.28756  0.35064  1.0000
  C   C234      1.0  0.03221  0.26911  0.34703  1.0000
  H   H97       1.0  0.06315  0.32611  0.35152  1.0000
  H   H98       1.0  0.03864  0.25089  0.34757  1.0000
  H   H99       1.0  0.96818  0.30507  0.33960  1.0000
  C   C235      1.0  0.01278  0.73757  0.34290  1.0000
  C   C236      1.0  0.02148  0.71245  0.34270  1.0000
  C   C237      1.0  0.99859  0.69361  0.34587  1.0000
  C   C238      1.0  0.96656  0.70029  0.34956  1.0000
  C   C239      1.0  0.95742  0.72537  0.35065  1.0000
  C   C240      1.0  0.98073  0.74381  0.34704  1.0000
  H   H100      1.0  0.94976  0.68681  0.35151  1.0000
  H   H101      1.0  0.97430  0.76203  0.34757  1.0000
  H   H102      1.0  0.04475  0.70783  0.33963  1.0000
  C   C241      1.0  0.51277  0.77534  0.34962  1.0000
  C   C242      1.0  0.52147  0.80046  0.34983  1.0000
  C   C243      1.0  0.49859  0.81930  0.34668  1.0000
  C   C244      1.0  0.46655  0.81263  0.34297  1.0000
  C   C245      1.0  0.45741  0.78755  0.34187  1.0000
  C   C246      1.0  0.48072  0.76911  0.34546  1.0000
  H   H103      1.0  0.44976  0.82611  0.34101  1.0000
  H   H104      1.0  0.47428  0.75089  0.34492  1.0000
  H   H105      1.0  0.54474  0.80508  0.35290  1.0000
  C   C247      1.0  0.50014  0.23758  0.34962  1.0000
  C   C248      1.0  0.49145  0.21245  0.34984  1.0000
  C   C249      1.0  0.51433  0.19362  0.34670  1.0000
  C   C250      1.0  0.54637  0.20030  0.34299  1.0000
  C   C251      1.0  0.55551  0.22537  0.34189  1.0000
  C   C252      1.0  0.53219  0.24382  0.34548  1.0000
  H   H106      1.0  0.56316  0.18682  0.34105  1.0000
  H   H107      1.0  0.53863  0.26203  0.34493  1.0000
  H   H108      1.0  0.46818  0.20783  0.35291  1.0000
  C   C253      1.0  0.52552  0.98471  0.34775  1.0000
  C   C254      1.0  0.48741  0.02821  0.34775  1.0000
  C   C255      1.0  0.49689  0.01734  0.43081  1.0000
  C   C256      1.0  0.51583  0.99547  0.43081  1.0000
  N   N37       1.0  0.48654  0.02939  0.51035  1.0000
  N   N38       1.0  0.52601  0.98333  0.51035  1.0000
  O   O73       1.0  0.46856  0.01654  0.55795  1.0000
  O   O74       1.0  0.50401  0.97461  0.55652  1.0000
  O   O75       1.0  0.50844  0.03806  0.55704  1.0000
  O   O76       1.0  0.54390  0.99613  0.55845  1.0000
  C   C257      1.0  0.99695  0.49586  0.42634  1.0000
  C   C258      1.0  0.01566  0.51721  0.42634  1.0000
  H   H109      1.0  0.02204  0.52477  0.48703  1.0000
  H   H110      1.0  0.99038  0.48840  0.48702  1.0000
  C   C259      1.0  0.33416  0.07444  0.41976  1.0000
  C   C260      1.0  0.36697  0.07199  0.41966  1.0000
  H   H111      1.0  0.37856  0.07208  0.48028  1.0000
  H   H112      1.0  0.32286  0.07629  0.48046  1.0000
  C   C261      1.0  0.67877  0.93852  0.41973  1.0000
  C   C262      1.0  0.64596  0.94099  0.41962  1.0000
  H   H113      1.0  0.63437  0.94093  0.48023  1.0000
  H   H114      1.0  0.69007  0.93670  0.48043  1.0000
  C   C263      1.0  0.19586  0.57551  0.35427  1.0000
  C   C264      1.0  0.12897  0.57053  0.35446  1.0000
  C   C265      1.0  0.14584  0.57165  0.43750  1.0000
  C   C266      1.0  0.17907  0.57416  0.43741  1.0000
  N   N39       1.0  0.13083  0.57101  0.52300  1.0000
  N   N40       1.0  0.19396  0.57587  0.52284  1.0000
  O   O77       1.0  0.11321  0.58922  0.53573  1.0000
  O   O78       1.0  0.21321  0.55874  0.53540  1.0000
  O   O79       1.0  0.11576  0.55142  0.53510  1.0000
  O   O80       1.0  0.20713  0.59629  0.53512  1.0000
  C   C267      1.0  0.81705  0.43738  0.35434  1.0000
  C   C268      1.0  0.88394  0.44237  0.35457  1.0000
  C   C269      1.0  0.86707  0.44123  0.43761  1.0000
  C   C270      1.0  0.83384  0.43871  0.43749  1.0000
  N   N41       1.0  0.88207  0.44184  0.52310  1.0000
  N   N42       1.0  0.81895  0.43699  0.52291  1.0000
  O   O81       1.0  0.89969  0.42363  0.53577  1.0000
  O   O82       1.0  0.79969  0.45412  0.53551  1.0000
  O   O83       1.0  0.89714  0.46143  0.53528  1.0000
  O   O84       1.0  0.80577  0.41657  0.53514  1.0000
  C   C271      1.0  0.50481  0.16843  0.35039  1.0000
  C   C272      1.0  0.48061  0.11933  0.35129  1.0000
  C   C273      1.0  0.48512  0.13225  0.43416  1.0000
  C   C274      1.0  0.49714  0.15680  0.43346  1.0000
  N   N43       1.0  0.47794  0.12182  0.51949  1.0000
  N   N44       1.0  0.50161  0.17067  0.51366  1.0000
  O   O85       1.0  0.44926  0.11737  0.52888  1.0000
  O   O86       1.0  0.47636  0.17417  0.55533  1.0000
  O   O87       1.0  0.49354  0.10267  0.53513  1.0000
  O   O88       1.0  0.52122  0.16081  0.56553  1.0000
  C   C275      1.0  0.50811  0.84449  0.35038  1.0000
  C   C276      1.0  0.53233  0.89358  0.35128  1.0000
  C   C277      1.0  0.52781  0.88067  0.43416  1.0000
  C   C278      1.0  0.51579  0.85612  0.43345  1.0000
  N   N45       1.0  0.53499  0.89109  0.51948  1.0000
  N   N46       1.0  0.51132  0.84224  0.51364  1.0000
  O   O89       1.0  0.56368  0.89554  0.52886  1.0000
  O   O90       1.0  0.53657  0.83874  0.55533  1.0000
  O   O91       1.0  0.51939  0.91024  0.53513  1.0000
  O   O92       1.0  0.49170  0.85211  0.56551  1.0000
  C   C279      1.0  0.01245  0.65532  0.42351  1.0000
  C   C280      1.0  0.02443  0.63119  0.42304  1.0000
  H   H115      1.0  0.02804  0.62248  0.48357  1.0000
  H   H116      1.0  0.00769  0.66354  0.48428  1.0000
  C   C281      1.0  0.00048  0.35760  0.42349  1.0000
  C   C282      1.0  0.98850  0.38173  0.42301  1.0000
  H   H117      1.0  0.98489  0.39044  0.48353  1.0000
  H   H118      1.0  0.00523  0.34938  0.48426  1.0000
  C   C283      1.0  0.53876  0.51380  0.35446  1.0000
  C   C284      1.0  0.47415  0.49911  0.35448  1.0000
  C   C285      1.0  0.49046  0.50272  0.43752  1.0000
  C   C286      1.0  0.52246  0.51019  0.43751  1.0000
  N   N47       1.0  0.47618  0.49920  0.52304  1.0000
  N   N48       1.0  0.53675  0.51372  0.52302  1.0000
  O   O93       1.0  0.45393  0.51387  0.53623  1.0000
  O   O94       1.0  0.54585  0.53548  0.53497  1.0000
  O   O95       1.0  0.46706  0.47744  0.53501  1.0000
  O   O96       1.0  0.55899  0.49906  0.53621  1.0000
  C   C287      1.0  0.99063  0.01010  0.41964  1.0000
  C   C288      1.0  0.02228  0.00281  0.41964  1.0000
  H   H119      1.0  0.03331  0.00019  0.48035  1.0000
  H   H120      1.0  0.97960  0.01273  0.48036  1.0000
  C   C289      1.0  0.39397  0.41769  0.42273  1.0000
  C   C290      1.0  0.38873  0.39210  0.42238  1.0000
  H   H121      1.0  0.38622  0.38317  0.48292  1.0000
  H   H122      1.0  0.39512  0.42667  0.48353  1.0000
  C   C291      1.0  0.61894  0.59522  0.42269  1.0000
  C   C292      1.0  0.62418  0.62081  0.42234  1.0000
  H   H123      1.0  0.62668  0.62974  0.48289  1.0000
  H   H124      1.0  0.61778  0.58624  0.48348  1.0000
  C   C293      1.0  0.11491  0.93086  0.35120  1.0000
  C   C294      1.0  0.12558  0.87878  0.35191  1.0000
  C   C295      1.0  0.12170  0.89180  0.43481  1.0000
  C   C296      1.0  0.11640  0.91770  0.43445  1.0000
  N   N49       1.0  0.12282  0.88003  0.52034  1.0000
  N   N50       1.0  0.11273  0.92931  0.51966  1.0000
  O   O97       1.0  0.10118  0.86461  0.53060  1.0000
  O   O98       1.0  0.13340  0.94530  0.53410  1.0000
  O   O99       1.0  0.14880  0.86995  0.53513  1.0000
  O   O100      1.0  0.08604  0.93865  0.52951  1.0000
  C   C297      1.0  0.89801  0.08205  0.35124  1.0000
  C   C298      1.0  0.88733  0.13413  0.35194  1.0000
  C   C299      1.0  0.89121  0.12112  0.43484  1.0000
  C   C300      1.0  0.89651  0.09521  0.43449  1.0000
  N   N51       1.0  0.89010  0.13289  0.52037  1.0000
  N   N52       1.0  0.90018  0.08360  0.51970  1.0000
  O   O101      1.0  0.91174  0.14831  0.53063  1.0000
  O   O102      1.0  0.87951  0.06761  0.53414  1.0000
  O   O103      1.0  0.86411  0.14297  0.53516  1.0000
  O   O104      1.0  0.92687  0.07426  0.52955  1.0000
  C   C301      1.0  0.35996  0.51692  0.35429  1.0000
  C   C302      1.0  0.30865  0.55116  0.35376  1.0000
  C   C303      1.0  0.32158  0.54265  0.43693  1.0000
  C   C304      1.0  0.34690  0.52553  0.43718  1.0000
  N   N53       1.0  0.31047  0.55068  0.52230  1.0000
  N   N54       1.0  0.35820  0.51791  0.52282  1.0000
  O   O105      1.0  0.31394  0.57344  0.53395  1.0000
  O   O106      1.0  0.35556  0.49511  0.53500  1.0000
  O   O107      1.0  0.28238  0.54486  0.53541  1.0000
  O   O108      1.0  0.38604  0.52442  0.53597  1.0000
  C   C305      1.0  0.65295  0.49600  0.35426  1.0000
  C   C306      1.0  0.70428  0.46176  0.35374  1.0000
  C   C307      1.0  0.69137  0.47031  0.43691  1.0000
  C   C308      1.0  0.66604  0.48742  0.43715  1.0000
  N   N55       1.0  0.70251  0.46230  0.52229  1.0000
  N   N56       1.0  0.65477  0.49507  0.52279  1.0000
  O   O109      1.0  0.69905  0.43955  0.53405  1.0000
  O   O110      1.0  0.65743  0.51788  0.53485  1.0000
  O   O111      1.0  0.73060  0.46814  0.53530  1.0000
  O   O112      1.0  0.62694  0.48858  0.53604  1.0000
  C   C309      1.0  0.16601  0.02557  0.41993  1.0000
  C   C310      1.0  0.19108  0.04243  0.42018  1.0000
  H   H125      1.0  0.19956  0.04849  0.48100  1.0000
  H   H126      1.0  0.15712  0.01975  0.48057  1.0000
  C   C311      1.0  0.84690  0.98733  0.41995  1.0000
  C   C312      1.0  0.82183  0.97047  0.42020  1.0000
  H   H127      1.0  0.81336  0.96440  0.48101  1.0000
  H   H128      1.0  0.85580  0.99315  0.48059  1.0000
  C   C313      1.0  0.22207  0.19026  0.35868  1.0000
  C   C314      1.0  0.23513  0.13867  0.35484  1.0000
  C   C315      1.0  0.23163  0.15110  0.43902  1.0000
  C   C316      1.0  0.22509  0.17679  0.44089  1.0000
  N   N57       1.0  0.23472  0.13901  0.52356  1.0000
  N   N58       1.0  0.22224  0.18782  0.52728  1.0000
  O   O113      1.0  0.26170  0.13039  0.53574  1.0000
  O   O114      1.0  0.19555  0.19682  0.54027  1.0000
  O   O115      1.0  0.21466  0.12234  0.53431  1.0000
  O   O116      1.0  0.24285  0.20383  0.54144  1.0000
  C   C317      1.0  0.79085  0.82264  0.35866  1.0000
  C   C318      1.0  0.77780  0.87423  0.35482  1.0000
  C   C319      1.0  0.78131  0.86181  0.43900  1.0000
  C   C320      1.0  0.78784  0.83612  0.44088  1.0000
  N   N59       1.0  0.77822  0.87390  0.52354  1.0000
  N   N60       1.0  0.79070  0.82508  0.52726  1.0000
  O   O117      1.0  0.75125  0.88251  0.53573  1.0000
  O   O118      1.0  0.81739  0.81609  0.54023  1.0000
  O   O119      1.0  0.79829  0.89057  0.53428  1.0000
  O   O120      1.0  0.77009  0.80907  0.54145  1.0000
  C   C321      1.0  0.28728  0.67764  0.41656  1.0000
  C   C322      1.0  0.28083  0.65226  0.41846  1.0000
  H   H129      1.0  0.27796  0.64378  0.47975  1.0000
  H   H130      1.0  0.28898  0.68697  0.47656  1.0000
  C   C323      1.0  0.72558  0.33527  0.41657  1.0000
  C   C324      1.0  0.73202  0.36066  0.41847  1.0000
  H   H131      1.0  0.73487  0.36913  0.47977  1.0000
  H   H132      1.0  0.72386  0.32595  0.47656  1.0000
  C   C325      1.0  0.31828  0.30516  0.35188  1.0000
  C   C326      1.0  0.26384  0.27481  0.35735  1.0000
  C   C327      1.0  0.27751  0.28354  0.43919  1.0000
  C   C328      1.0  0.30491  0.29854  0.43626  1.0000
  N   N61       1.0  0.26558  0.27757  0.52574  1.0000
  N   N62       1.0  0.32038  0.30685  0.51548  1.0000
  O   O121      1.0  0.26638  0.25488  0.54177  1.0000
  O   O122      1.0  0.33039  0.28928  0.56264  1.0000
  O   O123      1.0  0.23834  0.28562  0.53753  1.0000
  O   O124      1.0  0.30317  0.32050  0.56274  1.0000
  C   C329      1.0  0.69462  0.70775  0.35182  1.0000
  C   C330      1.0  0.74908  0.73809  0.35732  1.0000
  C   C331      1.0  0.73541  0.72937  0.43915  1.0000
  C   C332      1.0  0.70800  0.71437  0.43619  1.0000
  N   N63       1.0  0.74732  0.73536  0.52571  1.0000
  N   N64       1.0  0.69252  0.70608  0.51542  1.0000
  O   O125      1.0  0.74650  0.75804  0.54171  1.0000
  O   O126      1.0  0.68250  0.72365  0.56253  1.0000
  O   O127      1.0  0.77456  0.72731  0.53754  1.0000
  O   O128      1.0  0.70971  0.69244  0.56273  1.0000
  C   C333      1.0  0.20849  0.79645  0.42093  1.0000
  C   C334      1.0  0.23539  0.78157  0.41826  1.0000
  H   H133      1.0  0.24444  0.77512  0.47785  1.0000
  H   H134      1.0  0.19840  0.80015  0.48226  1.0000
  C   C335      1.0  0.80441  0.21644  0.42098  1.0000
  C   C336      1.0  0.77750  0.23132  0.41829  1.0000
  H   H135      1.0  0.76844  0.23776  0.47788  1.0000
  H   H136      1.0  0.81449  0.21273  0.48232  1.0000
  C   C337      1.0  0.47717  0.25649  0.35308  1.0000
  C   C338      1.0  0.43134  0.29450  0.35193  1.0000
  C   C339      1.0  0.44070  0.28370  0.43503  1.0000
  C   C340      1.0  0.46390  0.26482  0.43595  1.0000
  N   N65       1.0  0.42596  0.29235  0.51490  1.0000
  N   N66       1.0  0.47267  0.25516  0.52127  1.0000
  O   O129      1.0  0.44518  0.30197  0.56860  1.0000
  O   O130      1.0  0.50121  0.25841  0.53818  1.0000
  O   O131      1.0  0.41099  0.27561  0.55457  1.0000
  O   O132      1.0  0.46595  0.23276  0.52953  1.0000
  C   C341      1.0  0.53574  0.75643  0.35308  1.0000
  C   C342      1.0  0.58157  0.71842  0.35194  1.0000
  C   C343      1.0  0.57221  0.72921  0.43503  1.0000
  C   C344      1.0  0.54900  0.74810  0.43595  1.0000
  N   N67       1.0  0.58695  0.72057  0.51490  1.0000
  N   N68       1.0  0.54024  0.75776  0.52127  1.0000
  O   O133      1.0  0.56773  0.71095  0.56860  1.0000
  O   O134      1.0  0.51170  0.75451  0.53817  1.0000
  O   O135      1.0  0.60192  0.73730  0.55458  1.0000
  O   O136      1.0  0.54695  0.78016  0.52952  1.0000
  C   C345      1.0  0.04515  0.76763  0.42114  1.0000
  C   C346      1.0  0.06789  0.78630  0.42176  1.0000
  H   H137      1.0  0.07501  0.79342  0.48250  1.0000
  H   H138      1.0  0.03593  0.76185  0.48145  1.0000
  C   C347      1.0  0.96780  0.24527  0.42114  1.0000
  C   C348      1.0  0.94507  0.22659  0.42175  1.0000
  H   H139      1.0  0.93795  0.21948  0.48250  1.0000
  H   H140      1.0  0.97703  0.25105  0.48144  1.0000
  C   C349      1.0  0.08751  0.28038  0.35607  1.0000
  C   C350      1.0  0.14975  0.26131  0.35958  1.0000
  C   C351      1.0  0.13355  0.26609  0.44193  1.0000
  C   C352      1.0  0.10246  0.27547  0.44021  1.0000
  N   N69       1.0  0.14680  0.26164  0.52821  1.0000
  N   N70       1.0  0.08758  0.27930  0.52480  1.0000
  O   O137      1.0  0.15289  0.23930  0.54088  1.0000
  O   O138      1.0  0.08002  0.30141  0.53691  1.0000
  O   O139      1.0  0.17076  0.27444  0.54244  1.0000
  O   O140      1.0  0.06411  0.26568  0.53580  1.0000
  C   C353      1.0  0.92542  0.73255  0.35604  1.0000
  C   C354      1.0  0.86317  0.75160  0.35956  1.0000
  C   C355      1.0  0.87937  0.74682  0.44191  1.0000
  C   C356      1.0  0.91047  0.73746  0.44018  1.0000
  N   N71       1.0  0.86612  0.75126  0.52819  1.0000
  N   N72       1.0  0.92534  0.73363  0.52477  1.0000
  O   O141      1.0  0.86003  0.77361  0.54086  1.0000
  O   O142      1.0  0.93292  0.71152  0.53689  1.0000
  O   O143      1.0  0.84216  0.73846  0.54242  1.0000
  O   O144      1.0  0.94881  0.74726  0.53578  1.0000
  C   C357      1.0  0.40902  0.77561  0.41735  1.0000
  C   C358      1.0  0.37832  0.76631  0.41561  1.0000
  H   H141      1.0  0.36720  0.76291  0.47569  1.0000
  H   H142      1.0  0.41957  0.77851  0.47863  1.0000
  C   C359      1.0  0.60390  0.23729  0.41739  1.0000
  C   C360      1.0  0.63461  0.24658  0.41564  1.0000
  H   H143      1.0  0.64573  0.24997  0.47571  1.0000
  H   H144      1.0  0.59336  0.23439  0.47866  1.0000
