data_image0
_chemical_formula_structural       N2C4HC2HC4H2CHCH3C9HC6H3CHC2HC6H3CHC2HC6H3CHC2HC6H3CHC2HC6H3CHC2HC6H3CHC2NC2NHCH3CHC2NC2NHCH3CHC2NC2H3CHC2NC2NHCH3CHC2NC2NHCH3CHCNHCHC2NC2NHCH3CHC2NC2NHCH3CHC2NC2NHCH3CHC2NC2NHCH3CHC2NC2NHCH3CHC2NC2NHCH3CHCNCNCN4CNCNCN4CNCNCN4CNCNCN4CNCNCN4CNCNCN5CNCN5CNCN5CNCN5CNCN5CNCN5CNCN4C2NC2NHCH3CHC2NC2NHCH3CHC2NC2NHCH3CHC2NC2NHCH3CHC2NC2NHCH3CHC2NC2NHCH3CHC2HC6H3CHC2HC6H3CHC2HCHCHC2HC6H3CHC2HC6H3CHC5H2CHC2HC6H3CHC2HC6H3CHC2HC6H3CHC2HC6H3CHC2HC6H3CHC2HC6H3CH
_chemical_formula_sum              "N108 C306 H180"
_cell_length_a       73.8134
_cell_length_b       73.8135
_cell_length_c       14.9718
_cell_angle_alpha    90
_cell_angle_beta     90
_cell_angle_gamma    120

_space_group_name_H-M_alt    "P 1"
_space_group_IT_number       1

loop_
  _space_group_symop_operation_xyz
  'x, y, z'

loop_
  _atom_site_type_symbol
  _atom_site_label
  _atom_site_symmetry_multiplicity
  _atom_site_fract_x
  _atom_site_fract_y
  _atom_site_fract_z
  _atom_site_occupancy
  N   N1        1.0  0.02535  0.81115  0.27600  1.0000
  N   N2        1.0  0.01656  0.20974  0.26498  1.0000
  C   C1        1.0  0.00766  0.19919  0.34162  1.0000
  C   C2        1.0  0.01265  0.80803  0.34709  1.0000
  C   C3        1.0  0.02156  0.81908  0.42774  1.0000
  C   C4        1.0  0.00853  0.81585  0.50215  1.0000
  H   H1        1.0  0.01470  0.82365  0.56080  1.0000
  C   C5        1.0  0.02065  0.20237  0.41671  1.0000
  C   C6        1.0  0.01163  0.19145  0.49680  1.0000
  H   H2        1.0  0.02075  0.19356  0.55167  1.0000
  C   C7        1.0  0.04633  0.82439  0.27762  1.0000
  C   C8        1.0  0.05100  0.22734  0.32791  1.0000
  C   C9        1.0  0.03733  0.22348  0.25439  1.0000
  C   C10       1.0  0.04369  0.23302  0.16453  1.0000
  H   H3        1.0  0.03597  0.24201  0.14995  1.0000
  H   H4        1.0  0.03892  0.22069  0.11456  1.0000
  C   C11       1.0  0.04335  0.83315  0.43068  1.0000
  H   H5        1.0  0.04998  0.84137  0.48817  1.0000
  C   C12       1.0  0.04231  0.21656  0.40884  1.0000
  H   H6        1.0  0.05180  0.21924  0.46313  1.0000
  H   H7        1.0  0.05476  0.82603  0.22097  1.0000
  H   H8        1.0  0.06052  0.24341  0.15819  1.0000
  C   C13       1.0  0.05611  0.83597  0.35557  1.0000
  C   C14       1.0  0.28180  0.53210  0.32930  1.0000
  C   C15       1.0  0.46379  0.74371  0.32927  1.0000
  C   C16       1.0  0.25222  0.71411  0.32907  1.0000
  C   C17       1.0  0.71674  0.46116  0.32941  1.0000
  C   C18       1.0  0.53472  0.24954  0.32919  1.0000
  C   C19       1.0  0.74633  0.27919  0.32923  1.0000
  C   C20       1.0  0.20949  0.41402  0.24283  1.0000
  C   C21       1.0  0.22165  0.43593  0.25318  1.0000
  H   H9        1.0  0.22549  0.44531  0.19777  1.0000
  C   C22       1.0  0.19387  0.37918  0.31135  1.0000
  C   C23       1.0  0.17351  0.33534  0.29607  1.0000
  C   C24       1.0  0.17705  0.34777  0.21917  1.0000
  C   C25       1.0  0.18712  0.36980  0.22585  1.0000
  C   C26       1.0  0.19121  0.38266  0.15002  1.0000
  C   C27       1.0  0.20225  0.40457  0.15848  1.0000
  H   H10       1.0  0.18653  0.37618  0.08791  1.0000
  H   H11       1.0  0.20538  0.41356  0.10231  1.0000
  H   H12       1.0  0.17264  0.34078  0.15772  1.0000
  C   C28       1.0  0.16567  0.31410  0.28896  1.0000
  H   H13       1.0  0.17433  0.30914  0.25806  1.0000
  C   C29       1.0  0.58188  0.78950  0.24284  1.0000
  C   C30       1.0  0.55996  0.77976  0.25319  1.0000
  H   H14       1.0  0.55058  0.77421  0.19778  1.0000
  C   C31       1.0  0.61671  0.80870  0.31136  1.0000
  C   C32       1.0  0.66055  0.83218  0.29608  1.0000
  C   C33       1.0  0.64812  0.82330  0.21917  1.0000
  C   C34       1.0  0.62609  0.81134  0.22585  1.0000
  C   C35       1.0  0.61323  0.80259  0.15003  1.0000
  C   C36       1.0  0.59132  0.79170  0.15849  1.0000
  H   H15       1.0  0.61971  0.80439  0.08790  1.0000
  H   H16       1.0  0.58233  0.78586  0.10230  1.0000
  H   H17       1.0  0.65511  0.82589  0.15772  1.0000
  C   C37       1.0  0.68180  0.84558  0.28897  1.0000
  H   H18       1.0  0.68676  0.85919  0.25793  1.0000
  C   C38       1.0  0.20641  0.78640  0.24294  1.0000
  C   C39       1.0  0.21617  0.77424  0.25325  1.0000
  H   H19       1.0  0.22168  0.77038  0.19781  1.0000
  C   C40       1.0  0.18720  0.80202  0.31149  1.0000
  C   C41       1.0  0.16372  0.82237  0.29626  1.0000
  C   C42       1.0  0.17261  0.81885  0.21935  1.0000
  C   C43       1.0  0.18457  0.80876  0.22601  1.0000
  C   C44       1.0  0.19332  0.80468  0.15016  1.0000
  C   C45       1.0  0.20421  0.79364  0.15859  1.0000
  H   H20       1.0  0.19152  0.80935  0.08805  1.0000
  H   H21       1.0  0.21006  0.79051  0.10240  1.0000
  H   H22       1.0  0.17000  0.82323  0.15790  1.0000
  C   C46       1.0  0.15030  0.83020  0.28918  1.0000
  H   H23       1.0  0.13666  0.82152  0.25842  1.0000
  C   C47       1.0  0.78904  0.57926  0.24282  1.0000
  C   C48       1.0  0.77688  0.55734  0.25315  1.0000
  H   H24       1.0  0.77303  0.54797  0.19773  1.0000
  C   C49       1.0  0.80466  0.61409  0.31135  1.0000
  C   C50       1.0  0.82501  0.65792  0.29609  1.0000
  C   C51       1.0  0.82148  0.64550  0.21919  1.0000
  C   C52       1.0  0.81141  0.62347  0.22585  1.0000
  C   C53       1.0  0.80731  0.61062  0.15002  1.0000
  C   C54       1.0  0.79628  0.58870  0.15847  1.0000
  H   H25       1.0  0.81199  0.61709  0.08790  1.0000
  H   H26       1.0  0.79315  0.57971  0.10229  1.0000
  H   H27       1.0  0.82587  0.65250  0.15774  1.0000
  C   C55       1.0  0.83285  0.67917  0.28903  1.0000
  H   H28       1.0  0.82418  0.68413  0.25820  1.0000
  C   C56       1.0  0.41662  0.20378  0.24282  1.0000
  C   C57       1.0  0.43854  0.21352  0.25315  1.0000
  H   H29       1.0  0.44791  0.21906  0.19773  1.0000
  C   C58       1.0  0.38179  0.18457  0.31138  1.0000
  C   C59       1.0  0.33796  0.16107  0.29612  1.0000
  C   C60       1.0  0.35038  0.16997  0.21921  1.0000
  C   C61       1.0  0.37241  0.18193  0.22588  1.0000
  C   C62       1.0  0.38526  0.19069  0.15004  1.0000
  C   C63       1.0  0.40718  0.20158  0.15848  1.0000
  H   H30       1.0  0.37878  0.18887  0.08791  1.0000
  H   H31       1.0  0.41616  0.20741  0.10228  1.0000
  H   H32       1.0  0.34338  0.16736  0.15776  1.0000
  C   C64       1.0  0.31671  0.14767  0.28904  1.0000
  H   H33       1.0  0.31174  0.13405  0.25811  1.0000
  C   C65       1.0  0.79212  0.20689  0.24286  1.0000
  C   C66       1.0  0.78237  0.21905  0.25318  1.0000
  H   H34       1.0  0.77684  0.22290  0.19777  1.0000
  C   C67       1.0  0.81133  0.19127  0.31141  1.0000
  C   C68       1.0  0.83479  0.17089  0.29618  1.0000
  C   C69       1.0  0.82592  0.17444  0.21927  1.0000
  C   C70       1.0  0.81396  0.18452  0.22592  1.0000
  C   C71       1.0  0.80521  0.18861  0.15008  1.0000
  C   C72       1.0  0.79433  0.19965  0.15851  1.0000
  H   H35       1.0  0.80701  0.18393  0.08797  1.0000
  H   H36       1.0  0.78847  0.20278  0.10233  1.0000
  H   H37       1.0  0.82851  0.17003  0.15782  1.0000
  C   C73       1.0  0.84820  0.16305  0.28910  1.0000
  H   H38       1.0  0.86181  0.17170  0.25813  1.0000
  C   C74       1.0  0.22996  0.17560  0.32798  1.0000
  C   C75       1.0  0.22610  0.18540  0.25447  1.0000
  N   N3        1.0  0.21235  0.19243  0.26504  1.0000
  C   C76       1.0  0.20180  0.19078  0.34167  1.0000
  C   C77       1.0  0.17151  0.21596  0.27766  1.0000
  N   N4        1.0  0.18474  0.20821  0.27605  1.0000
  H   H39       1.0  0.16986  0.22273  0.22099  1.0000
  C   C78       1.0  0.23564  0.18858  0.16461  1.0000
  H   H40       1.0  0.24603  0.18214  0.15827  1.0000
  H   H41       1.0  0.24464  0.20529  0.15004  1.0000
  H   H42       1.0  0.22331  0.18103  0.11463  1.0000
  C   C79       1.0  0.24460  0.16914  0.32451  1.0000
  H   H43       1.0  0.25934  0.17969  0.31004  1.0000
  C   C80       1.0  0.82030  0.04838  0.32786  1.0000
  C   C81       1.0  0.81048  0.03470  0.25438  1.0000
  N   N5        1.0  0.80345  0.01393  0.26498  1.0000
  C   C82       1.0  0.80511  0.00503  0.34161  1.0000
  C   C83       1.0  0.77993  0.94956  0.27762  1.0000
  N   N6        1.0  0.78767  0.97054  0.27601  1.0000
  H   H44       1.0  0.77315  0.94113  0.22096  1.0000
  C   C84       1.0  0.80730  0.04106  0.16452  1.0000
  H   H45       1.0  0.81374  0.05790  0.15817  1.0000
  H   H46       1.0  0.79058  0.03335  0.14998  1.0000
  H   H47       1.0  0.81485  0.03628  0.11454  1.0000
  C   C85       1.0  0.82676  0.06947  0.32436  1.0000
  H   H48       1.0  0.81620  0.07367  0.31008  1.0000
  C   C86       1.0  0.94752  0.76593  0.32784  1.0000
  C   C87       1.0  0.96119  0.76979  0.25435  1.0000
  N   N7        1.0  0.98196  0.78354  0.26495  1.0000
  C   C88       1.0  0.99086  0.79409  0.34159  1.0000
  C   C89       1.0  0.95484  0.76026  0.16448  1.0000
  H   H49       1.0  0.93801  0.74987  0.15811  1.0000
  H   H50       1.0  0.96256  0.75127  0.14990  1.0000
  H   H51       1.0  0.95961  0.77259  0.11451  1.0000
  C   C90       1.0  0.92643  0.75131  0.32430  1.0000
  H   H52       1.0  0.92223  0.73656  0.30996  1.0000
  C   C91       1.0  0.76855  0.81767  0.32782  1.0000
  C   C92       1.0  0.77241  0.80785  0.25435  1.0000
  N   N8        1.0  0.78615  0.80082  0.26497  1.0000
  C   C93       1.0  0.79671  0.80248  0.34162  1.0000
  C   C94       1.0  0.82700  0.77729  0.27774  1.0000
  N   N9        1.0  0.81376  0.78504  0.27609  1.0000
  H   H53       1.0  0.82865  0.77051  0.22110  1.0000
  C   C95       1.0  0.76287  0.80466  0.16447  1.0000
  H   H54       1.0  0.75248  0.81110  0.15809  1.0000
  H   H55       1.0  0.75388  0.78795  0.14991  1.0000
  H   H56       1.0  0.77521  0.81222  0.11451  1.0000
  C   C96       1.0  0.75392  0.82413  0.32425  1.0000
  H   H57       1.0  0.73917  0.81358  0.30997  1.0000
  C   C97       1.0  0.17823  0.94489  0.32786  1.0000
  C   C98       1.0  0.18804  0.95856  0.25435  1.0000
  N   N10       1.0  0.19506  0.97933  0.26493  1.0000
  C   C99       1.0  0.19340  0.98823  0.34157  1.0000
  C   C100      1.0  0.21857  0.04370  0.27756  1.0000
  N   N11       1.0  0.21083  0.02272  0.27595  1.0000
  H   H58       1.0  0.22535  0.05213  0.22089  1.0000
  C   C101      1.0  0.19122  0.95220  0.16448  1.0000
  H   H59       1.0  0.18478  0.93537  0.15814  1.0000
  H   H60       1.0  0.20793  0.95992  0.14990  1.0000
  H   H61       1.0  0.18366  0.95697  0.11452  1.0000
  C   C102      1.0  0.17176  0.92380  0.32432  1.0000
  H   H62       1.0  0.18232  0.91960  0.31002  1.0000
  C   C103      1.0  0.95218  0.16890  0.27760  1.0000
  N   N12       1.0  0.97317  0.18213  0.27599  1.0000
  H   H63       1.0  0.94376  0.16724  0.22092  1.0000
  C   C104      1.0  0.07209  0.24197  0.32440  1.0000
  H   H64       1.0  0.07629  0.25672  0.30999  1.0000
  C   C105      1.0  0.22056  0.55895  0.32585  1.0000
  C   C106      1.0  0.22495  0.57244  0.25123  1.0000
  N   N13       1.0  0.22587  0.59112  0.26378  1.0000
  C   C107      1.0  0.22266  0.59793  0.34327  1.0000
  C   C108      1.0  0.23659  0.65179  0.28701  1.0000
  N   N14       1.0  0.23179  0.63154  0.28102  1.0000
  H   H65       1.0  0.24207  0.66095  0.23118  1.0000
  C   C109      1.0  0.22953  0.56831  0.15953  1.0000
  H   H66       1.0  0.22802  0.55292  0.15251  1.0000
  H   H67       1.0  0.24546  0.58010  0.14127  1.0000
  H   H68       1.0  0.21867  0.56922  0.11272  1.0000
  C   C110      1.0  0.22313  0.54168  0.32351  1.0000
  H   H69       1.0  0.21086  0.52732  0.32781  1.0000
  C   C111      1.0  0.43692  0.65564  0.32602  1.0000
  C   C112      1.0  0.42341  0.64654  0.25142  1.0000
  N   N15       1.0  0.40473  0.62878  0.26402  1.0000
  C   C113      1.0  0.39795  0.61875  0.34349  1.0000
  C   C114      1.0  0.34408  0.57881  0.28742  1.0000
  N   N16       1.0  0.36432  0.59428  0.28136  1.0000
  H   H70       1.0  0.33491  0.57513  0.23164  1.0000
  C   C115      1.0  0.42751  0.65526  0.15975  1.0000
  H   H71       1.0  0.44290  0.66915  0.15267  1.0000
  H   H72       1.0  0.41572  0.65940  0.14162  1.0000
  H   H73       1.0  0.42659  0.64350  0.11285  1.0000
  C   C116      1.0  0.45421  0.67546  0.32357  1.0000
  H   H74       1.0  0.46855  0.67753  0.32790  1.0000
  C   C117      1.0  0.34028  0.77534  0.32588  1.0000
  C   C118      1.0  0.34938  0.77094  0.25129  1.0000
  N   N17       1.0  0.36714  0.77002  0.26389  1.0000
  C   C119      1.0  0.37716  0.77326  0.34337  1.0000
  C   C120      1.0  0.41710  0.75931  0.28729  1.0000
  N   N18       1.0  0.40164  0.76411  0.28125  1.0000
  H   H75       1.0  0.42078  0.75382  0.23150  1.0000
  C   C121      1.0  0.34068  0.76636  0.15957  1.0000
  H   H76       1.0  0.32680  0.76787  0.15250  1.0000
  H   H77       1.0  0.33653  0.75042  0.14135  1.0000
  H   H78       1.0  0.35245  0.77720  0.11277  1.0000
  C   C122      1.0  0.32045  0.77280  0.32348  1.0000
  H   H79       1.0  0.31838  0.78506  0.32867  1.0000
  C   C123      1.0  0.77798  0.43434  0.32587  1.0000
  C   C124      1.0  0.77356  0.42082  0.25130  1.0000
  N   N19       1.0  0.77264  0.40214  0.26388  1.0000
  C   C125      1.0  0.77589  0.39536  0.34334  1.0000
  C   C126      1.0  0.76193  0.34148  0.28727  1.0000
  N   N20       1.0  0.76673  0.36173  0.28122  1.0000
  H   H80       1.0  0.75644  0.33230  0.23148  1.0000
  C   C127      1.0  0.76893  0.42492  0.15965  1.0000
  H   H81       1.0  0.77043  0.44031  0.15260  1.0000
  H   H82       1.0  0.75299  0.41313  0.14156  1.0000
  H   H83       1.0  0.77975  0.42399  0.11272  1.0000
  C   C128      1.0  0.77540  0.45160  0.32355  1.0000
  H   H84       1.0  0.78769  0.46595  0.32741  1.0000
  C   C129      1.0  0.56161  0.33762  0.32601  1.0000
  C   C130      1.0  0.57510  0.34672  0.25139  1.0000
  N   N21       1.0  0.59378  0.36449  0.26398  1.0000
  C   C131      1.0  0.60057  0.37451  0.34346  1.0000
  C   C132      1.0  0.65445  0.41444  0.28741  1.0000
  N   N22       1.0  0.63420  0.39899  0.28133  1.0000
  H   H85       1.0  0.66362  0.41816  0.23160  1.0000
  C   C133      1.0  0.57100  0.33801  0.15971  1.0000
  H   H86       1.0  0.55561  0.32411  0.15265  1.0000
  H   H87       1.0  0.58280  0.33387  0.14155  1.0000
  H   H88       1.0  0.57191  0.34976  0.11284  1.0000
  C   C134      1.0  0.54432  0.31779  0.32356  1.0000
  H   H89       1.0  0.52997  0.31574  0.32742  1.0000
  C   C135      1.0  0.65826  0.21797  0.32587  1.0000
  C   C136      1.0  0.64916  0.22236  0.25125  1.0000
  N   N23       1.0  0.63139  0.22326  0.26384  1.0000
  C   C137      1.0  0.62136  0.22002  0.34333  1.0000
  C   C138      1.0  0.58140  0.23392  0.28720  1.0000
  N   N24       1.0  0.59687  0.22914  0.28116  1.0000
  H   H90       1.0  0.57770  0.23939  0.23139  1.0000
  C   C139      1.0  0.65786  0.22696  0.15957  1.0000
  H   H91       1.0  0.67176  0.22547  0.15252  1.0000
  H   H92       1.0  0.66199  0.24289  0.14136  1.0000
  H   H93       1.0  0.64611  0.21610  0.11273  1.0000
  C   C140      1.0  0.67810  0.22052  0.32348  1.0000
  H   H94       1.0  0.68017  0.20825  0.32782  1.0000
  C   C141      1.0  0.13903  0.24867  0.33042  1.0000
  N   N25       1.0  0.14909  0.26984  0.32462  1.0000
  C   C142      1.0  0.13831  0.28036  0.32333  1.0000
  N   N26       1.0  0.11712  0.26928  0.32829  1.0000
  C   C143      1.0  0.10662  0.24801  0.33301  1.0000
  N   N27       1.0  0.11775  0.23793  0.33437  1.0000
  N   N28       1.0  0.15050  0.23947  0.33158  1.0000
  N   N29       1.0  0.08596  0.23651  0.33575  1.0000
  N   N30       1.0  0.14772  0.30103  0.32189  1.0000
  C   C144      1.0  0.74722  0.88437  0.33045  1.0000
  N   N31       1.0  0.72605  0.87326  0.32469  1.0000
  C   C145      1.0  0.71554  0.85197  0.32340  1.0000
  N   N32       1.0  0.72661  0.84185  0.32833  1.0000
  C   C146      1.0  0.74788  0.85262  0.33301  1.0000
  N   N33       1.0  0.75796  0.87384  0.33435  1.0000
  N   N34       1.0  0.75642  0.90504  0.33155  1.0000
  N   N35       1.0  0.75938  0.84346  0.33566  1.0000
  N   N36       1.0  0.69486  0.84070  0.32199  1.0000
  C   C147      1.0  0.11153  0.85686  0.33047  1.0000
  N   N37       1.0  0.12264  0.84680  0.32469  1.0000
  C   C148      1.0  0.14393  0.85758  0.32340  1.0000
  N   N38       1.0  0.15405  0.87877  0.32833  1.0000
  C   C149      1.0  0.14328  0.88927  0.33301  1.0000
  N   N39       1.0  0.12206  0.87813  0.33437  1.0000
  N   N40       1.0  0.09086  0.84539  0.33157  1.0000
  N   N41       1.0  0.15243  0.90993  0.33569  1.0000
  N   N42       1.0  0.15520  0.84817  0.32196  1.0000
  C   C150      1.0  0.85948  0.74459  0.33054  1.0000
  N   N43       1.0  0.84943  0.72342  0.32472  1.0000
  C   C151      1.0  0.86021  0.71291  0.32338  1.0000
  N   N44       1.0  0.88140  0.72399  0.32829  1.0000
  C   C152      1.0  0.89190  0.74526  0.33302  1.0000
  N   N45       1.0  0.88076  0.75534  0.33443  1.0000
  N   N46       1.0  0.84801  0.75379  0.33172  1.0000
  N   N47       1.0  0.91256  0.75677  0.33570  1.0000
  N   N48       1.0  0.85080  0.69224  0.32191  1.0000
  C   C153      1.0  0.25128  0.10889  0.33045  1.0000
  N   N49       1.0  0.27246  0.12000  0.32470  1.0000
  C   C154      1.0  0.28297  0.14129  0.32350  1.0000
  N   N50       1.0  0.27191  0.15141  0.32844  1.0000
  C   C155      1.0  0.25063  0.14065  0.33311  1.0000
  N   N51       1.0  0.24055  0.11943  0.33440  1.0000
  N   N52       1.0  0.24208  0.08822  0.33150  1.0000
  N   N53       1.0  0.23913  0.14981  0.33585  1.0000
  N   N54       1.0  0.30365  0.15256  0.32202  1.0000
  C   C156      1.0  0.88699  0.13641  0.33048  1.0000
  N   N55       1.0  0.87588  0.14647  0.32476  1.0000
  C   C157      1.0  0.85459  0.13569  0.32355  1.0000
  N   N56       1.0  0.84447  0.11450  0.32843  1.0000
  C   C158      1.0  0.85524  0.10400  0.33307  1.0000
  N   N57       1.0  0.87646  0.11514  0.33438  1.0000
  N   N58       1.0  0.90766  0.14788  0.33154  1.0000
  N   N59       1.0  0.84609  0.08334  0.33572  1.0000
  N   N60       1.0  0.84332  0.14510  0.32209  1.0000
  N   N61       1.0  0.27071  0.51089  0.32686  1.0000
  C   C159      1.0  0.24937  0.50044  0.32480  1.0000
  N   N62       1.0  0.23924  0.51158  0.32318  1.0000
  C   C160      1.0  0.25017  0.53286  0.32446  1.0000
  N   N63       1.0  0.27131  0.54283  0.32730  1.0000
  N   N64       1.0  0.30249  0.54251  0.32879  1.0000
  N   N65       1.0  0.24194  0.54508  0.32306  1.0000
  N   N66       1.0  0.23796  0.47975  0.32334  1.0000
  N   N67       1.0  0.48500  0.75384  0.32684  1.0000
  C   C161      1.0  0.49545  0.74294  0.32483  1.0000
  N   N68       1.0  0.48431  0.72167  0.32322  1.0000
  C   C162      1.0  0.46304  0.71133  0.32448  1.0000
  N   N69       1.0  0.45307  0.72249  0.32728  1.0000
  N   N70       1.0  0.45337  0.75398  0.32871  1.0000
  N   N71       1.0  0.45082  0.69088  0.32311  1.0000
  N   N72       1.0  0.51615  0.75223  0.32340  1.0000
  N   N73       1.0  0.24209  0.72518  0.32676  1.0000
  C   C163      1.0  0.25297  0.74653  0.32476  1.0000
  N   N74       1.0  0.27424  0.75667  0.32304  1.0000
  C   C164      1.0  0.28459  0.74574  0.32419  1.0000
  N   N75       1.0  0.27344  0.72461  0.32696  1.0000
  N   N76       1.0  0.24196  0.69342  0.32849  1.0000
  N   N77       1.0  0.30504  0.75399  0.32263  1.0000
  N   N78       1.0  0.24367  0.75793  0.32338  1.0000
  N   N79       1.0  0.72782  0.48237  0.32688  1.0000
  C   C165      1.0  0.74916  0.49283  0.32483  1.0000
  N   N80       1.0  0.75930  0.48169  0.32328  1.0000
  C   C166      1.0  0.74836  0.46041  0.32461  1.0000
  N   N81       1.0  0.72723  0.45044  0.32745  1.0000
  N   N82       1.0  0.69605  0.45075  0.32883  1.0000
  N   N83       1.0  0.75659  0.44820  0.32330  1.0000
  N   N84       1.0  0.76057  0.51352  0.32334  1.0000
  N   N85       1.0  0.51351  0.23942  0.32674  1.0000
  C   C167      1.0  0.50306  0.25032  0.32476  1.0000
  N   N86       1.0  0.51421  0.27159  0.32323  1.0000
  C   C168      1.0  0.53548  0.28192  0.32452  1.0000
  N   N87       1.0  0.54545  0.27076  0.32728  1.0000
  N   N88       1.0  0.54513  0.23926  0.32863  1.0000
  N   N89       1.0  0.54771  0.30237  0.32327  1.0000
  N   N90       1.0  0.48237  0.24104  0.32335  1.0000
  N   N91       1.0  0.75646  0.26811  0.32682  1.0000
  C   C169      1.0  0.74557  0.24677  0.32477  1.0000
  N   N92       1.0  0.72430  0.23663  0.32314  1.0000
  C   C170      1.0  0.71396  0.24757  0.32440  1.0000
  N   N93       1.0  0.72512  0.26870  0.32722  1.0000
  N   N94       1.0  0.75661  0.29988  0.32873  1.0000
  N   N95       1.0  0.69351  0.23933  0.32301  1.0000
  N   N96       1.0  0.75486  0.23536  0.32335  1.0000
  C   C171      1.0  0.22949  0.44499  0.33787  1.0000
  C   C172      1.0  0.22445  0.43147  0.41284  1.0000
  N   N97       1.0  0.21265  0.41047  0.39991  1.0000
  C   C173      1.0  0.20511  0.40120  0.31958  1.0000
  C   C174      1.0  0.18022  0.34553  0.37934  1.0000
  N   N98       1.0  0.19012  0.36671  0.38391  1.0000
  H   H95       1.0  0.17843  0.33727  0.43669  1.0000
  C   C175      1.0  0.23118  0.43820  0.50608  1.0000
  H   H96       1.0  0.24003  0.45515  0.51369  1.0000
  H   H97       1.0  0.24097  0.43188  0.52879  1.0000
  H   H98       1.0  0.21745  0.43219  0.54917  1.0000
  C   C176      1.0  0.24344  0.46623  0.34339  1.0000
  H   H99       1.0  0.25788  0.47083  0.36452  1.0000
  C   C177      1.0  0.55090  0.77853  0.33790  1.0000
  C   C178      1.0  0.56443  0.78700  0.41286  1.0000
  N   N99       1.0  0.58543  0.79620  0.39993  1.0000
  C   C179      1.0  0.59469  0.79792  0.31960  1.0000
  C   C180      1.0  0.65036  0.82867  0.37937  1.0000
  N   N100      1.0  0.62919  0.81741  0.38393  1.0000
  H   H100      1.0  0.65863  0.83515  0.43672  1.0000
  C   C181      1.0  0.55770  0.78700  0.50611  1.0000
  H   H101      1.0  0.54074  0.77890  0.51370  1.0000
  H   H102      1.0  0.56402  0.80310  0.52884  1.0000
  H   H103      1.0  0.56370  0.77927  0.54919  1.0000
  C   C182      1.0  0.52967  0.77123  0.34339  1.0000
  H   H104      1.0  0.52507  0.78109  0.36444  1.0000
  C   C183      1.0  0.21737  0.76638  0.33792  1.0000
  C   C184      1.0  0.20890  0.77142  0.41291  1.0000
  N   N101      1.0  0.19970  0.78323  0.40001  1.0000
  C   C185      1.0  0.19798  0.79078  0.31970  1.0000
  C   C186      1.0  0.16721  0.81567  0.37953  1.0000
  N   N102      1.0  0.17848  0.80576  0.38407  1.0000
  H   H105      1.0  0.16071  0.81744  0.43688  1.0000
  C   C187      1.0  0.20889  0.76468  0.50613  1.0000
  H   H106      1.0  0.21699  0.75582  0.51371  1.0000
  H   H107      1.0  0.19278  0.75490  0.52884  1.0000
  H   H108      1.0  0.21662  0.77841  0.54925  1.0000
  C   C188      1.0  0.22467  0.75244  0.34341  1.0000
  H   H109      1.0  0.21482  0.73799  0.36445  1.0000
  C   C189      1.0  0.76904  0.54828  0.33784  1.0000
  C   C190      1.0  0.77408  0.56180  0.41282  1.0000
  N   N103      1.0  0.78588  0.58280  0.39990  1.0000
  C   C191      1.0  0.79342  0.59207  0.31957  1.0000
  C   C192      1.0  0.81833  0.64774  0.37939  1.0000
  N   N104      1.0  0.80842  0.62656  0.38392  1.0000
  H   H110      1.0  0.82009  0.65600  0.43672  1.0000
  C   C193      1.0  0.76735  0.55507  0.50607  1.0000
  H   H111      1.0  0.75851  0.53812  0.51366  1.0000
  H   H112      1.0  0.75757  0.56139  0.52881  1.0000
  H   H113      1.0  0.78109  0.56108  0.54913  1.0000
  C   C194      1.0  0.75509  0.52704  0.34335  1.0000
  H   H114      1.0  0.74064  0.52244  0.36451  1.0000
  C   C195      1.0  0.44761  0.21477  0.33786  1.0000
  C   C196      1.0  0.43408  0.20628  0.41281  1.0000
  N   N105      1.0  0.41308  0.19708  0.39991  1.0000
  C   C197      1.0  0.40381  0.19535  0.31959  1.0000
  C   C198      1.0  0.34815  0.16458  0.37941  1.0000
  N   N106      1.0  0.36932  0.17586  0.38396  1.0000
  H   H115      1.0  0.33989  0.15809  0.43676  1.0000
  C   C199      1.0  0.44082  0.20627  0.50604  1.0000
  H   H116      1.0  0.45777  0.21438  0.51362  1.0000
  H   H117      1.0  0.43450  0.19017  0.52874  1.0000
  H   H118      1.0  0.43481  0.21400  0.54915  1.0000
  C   C200      1.0  0.46884  0.22204  0.34330  1.0000
  H   H119      1.0  0.47343  0.21218  0.36428  1.0000
  C   C201      1.0  0.78115  0.22690  0.33787  1.0000
  C   C202      1.0  0.78963  0.22185  0.41285  1.0000
  N   N107      1.0  0.79882  0.21005  0.39994  1.0000
  C   C203      1.0  0.80055  0.20251  0.31962  1.0000
  C   C204      1.0  0.83130  0.17759  0.37945  1.0000
  N   N108      1.0  0.82004  0.18751  0.38399  1.0000
  H   H120      1.0  0.83779  0.17581  0.43680  1.0000
  C   C205      1.0  0.78963  0.22859  0.50609  1.0000
  H   H121      1.0  0.78153  0.23744  0.51368  1.0000
  H   H122      1.0  0.80573  0.23837  0.52881  1.0000
  H   H123      1.0  0.78190  0.21485  0.54918  1.0000
  C   C206      1.0  0.77386  0.24084  0.34338  1.0000
  H   H124      1.0  0.78371  0.25529  0.36444  1.0000
  C   C207      1.0  0.20498  0.18096  0.41677  1.0000
  C   C208      1.0  0.21917  0.17349  0.40891  1.0000
  H   H125      1.0  0.22185  0.16669  0.46320  1.0000
  C   C209      1.0  0.18786  0.19862  0.34715  1.0000
  C   C210      1.0  0.15992  0.21415  0.35559  1.0000
  C   C211      1.0  0.16274  0.20421  0.43072  1.0000
  C   C212      1.0  0.17681  0.19649  0.42780  1.0000
  C   C213      1.0  0.18004  0.18670  0.50222  1.0000
  C   C214      1.0  0.19406  0.17907  0.49685  1.0000
  H   H126      1.0  0.17224  0.18507  0.56087  1.0000
  H   H127      1.0  0.19617  0.17205  0.55173  1.0000
  H   H128      1.0  0.15452  0.20262  0.48820  1.0000
  C   C215      1.0  0.14558  0.22100  0.35813  1.0000
  H   H129      1.0  0.13153  0.21162  0.38440  1.0000
  C   C216      1.0  0.81493  0.01803  0.41669  1.0000
  C   C217      1.0  0.82241  0.03969  0.40880  1.0000
  H   H130      1.0  0.82921  0.04918  0.46309  1.0000
  C   C218      1.0  0.79726  0.98325  0.34710  1.0000
  C   C219      1.0  0.78174  0.93978  0.35556  1.0000
  C   C220      1.0  0.79168  0.95254  0.43068  1.0000
  C   C221      1.0  0.79940  0.97433  0.42775  1.0000
  C   C222      1.0  0.80920  0.98736  0.50215  1.0000
  C   C223      1.0  0.81683  0.00901  0.49678  1.0000
  H   H131      1.0  0.81083  0.98120  0.56081  1.0000
  H   H132      1.0  0.82385  0.01814  0.55163  1.0000
  H   H133      1.0  0.79328  0.94592  0.48816  1.0000
  C   C224      1.0  0.77489  0.91859  0.35808  1.0000
  H   H134      1.0  0.78426  0.91393  0.38446  1.0000
  C   C225      1.0  0.97787  0.79092  0.41667  1.0000
  C   C226      1.0  0.95620  0.77673  0.40878  1.0000
  H   H135      1.0  0.94671  0.77405  0.46305  1.0000
  C   C227      1.0  0.98688  0.80183  0.49676  1.0000
  H   H136      1.0  0.97775  0.79972  0.55161  1.0000
  C   C228      1.0  0.07730  0.85031  0.35810  1.0000
  H   H137      1.0  0.08197  0.86435  0.38448  1.0000
  C   C229      1.0  0.79353  0.81231  0.41668  1.0000
  C   C230      1.0  0.77934  0.81978  0.40877  1.0000
  H   H138      1.0  0.77666  0.82660  0.46302  1.0000
  C   C231      1.0  0.81065  0.79464  0.34715  1.0000
  C   C232      1.0  0.83858  0.77911  0.35570  1.0000
  C   C233      1.0  0.83576  0.78906  0.43078  1.0000
  C   C234      1.0  0.82170  0.79678  0.42781  1.0000
  C   C235      1.0  0.81846  0.80658  0.50219  1.0000
  C   C236      1.0  0.80444  0.81421  0.49678  1.0000
  H   H139      1.0  0.82626  0.80822  0.56086  1.0000
  H   H140      1.0  0.80234  0.82124  0.55162  1.0000
  H   H141      1.0  0.84398  0.79065  0.48827  1.0000
  C   C237      1.0  0.85292  0.77225  0.35828  1.0000
  H   H142      1.0  0.86697  0.78164  0.38450  1.0000
  C   C238      1.0  0.18359  0.97524  0.41666  1.0000
  C   C239      1.0  0.17611  0.95357  0.40878  1.0000
  H   H143      1.0  0.16931  0.94408  0.46307  1.0000
  C   C240      1.0  0.20125  0.01002  0.34705  1.0000
  C   C241      1.0  0.21677  0.05348  0.35550  1.0000
  C   C242      1.0  0.20683  0.04072  0.43062  1.0000
  C   C243      1.0  0.19911  0.01894  0.42770  1.0000
  C   C244      1.0  0.18932  0.00591  0.50211  1.0000
  C   C245      1.0  0.18169  0.98425  0.49674  1.0000
  H   H144      1.0  0.18768  0.01207  0.56077  1.0000
  H   H145      1.0  0.17467  0.97513  0.55160  1.0000
  H   H146      1.0  0.20523  0.04735  0.48810  1.0000
  C   C246      1.0  0.22361  0.07467  0.35800  1.0000
  H   H147      1.0  0.21424  0.07933  0.38447  1.0000
  C   C247      1.0  0.98587  0.18525  0.34710  1.0000
  C   C248      1.0  0.94240  0.15731  0.35554  1.0000
  C   C249      1.0  0.95516  0.16013  0.43066  1.0000
  C   C250      1.0  0.97695  0.17420  0.42775  1.0000
  C   C251      1.0  0.98998  0.17743  0.50217  1.0000
  H   H148      1.0  0.98381  0.16964  0.56082  1.0000
  H   H149      1.0  0.94854  0.15191  0.48815  1.0000
  C   C252      1.0  0.92121  0.14296  0.35803  1.0000
  H   H150      1.0  0.91655  0.12893  0.38446  1.0000
  C   C253      1.0  0.21773  0.58480  0.41929  1.0000
  C   C254      1.0  0.21660  0.56525  0.40935  1.0000
  H   H151      1.0  0.21404  0.55607  0.46466  1.0000
  C   C255      1.0  0.22570  0.61831  0.35208  1.0000
  C   C256      1.0  0.23602  0.66037  0.37063  1.0000
  C   C257      1.0  0.22935  0.64695  0.44571  1.0000
  C   C258      1.0  0.22405  0.62580  0.43744  1.0000
  C   C259      1.0  0.21842  0.61239  0.51218  1.0000
  C   C260      1.0  0.21522  0.59203  0.50313  1.0000
  H   H152      1.0  0.21738  0.61759  0.57430  1.0000
  H   H153      1.0  0.21193  0.58288  0.55888  1.0000
  H   H154      1.0  0.22944  0.65290  0.50770  1.0000
  C   C261      1.0  0.24532  0.68176  0.38197  1.0000
  H   H155      1.0  0.25616  0.68829  0.42959  1.0000
  C   C262      1.0  0.41111  0.62691  0.41942  1.0000
  C   C263      1.0  0.43067  0.64534  0.40944  1.0000
  H   H156      1.0  0.43986  0.65195  0.46471  1.0000
  C   C264      1.0  0.37757  0.60140  0.35236  1.0000
  C   C265      1.0  0.33553  0.56959  0.37099  1.0000
  C   C266      1.0  0.34897  0.57637  0.44599  1.0000
  C   C267      1.0  0.37012  0.59223  0.43768  1.0000
  C   C268      1.0  0.38355  0.60000  0.51236  1.0000
  C   C269      1.0  0.40390  0.61716  0.50326  1.0000
  H   H157      1.0  0.37839  0.59370  0.57443  1.0000
  H   H158      1.0  0.41310  0.62297  0.55892  1.0000
  H   H159      1.0  0.34306  0.57045  0.50795  1.0000
  C   C270      1.0  0.31414  0.55748  0.38245  1.0000
  H   H160      1.0  0.30763  0.56183  0.43000  1.0000
  C   C271      1.0  0.36898  0.77823  0.41934  1.0000
  C   C272      1.0  0.35056  0.77937  0.40934  1.0000
  H   H161      1.0  0.34394  0.78194  0.46462  1.0000
  C   C273      1.0  0.39451  0.77022  0.35226  1.0000
  C   C274      1.0  0.42628  0.75994  0.37091  1.0000
  C   C275      1.0  0.41952  0.76661  0.44591  1.0000
  C   C276      1.0  0.40366  0.77191  0.43760  1.0000
  C   C277      1.0  0.39588  0.77755  0.51230  1.0000
  C   C278      1.0  0.37872  0.78075  0.50319  1.0000
  H   H162      1.0  0.40217  0.77867  0.57437  1.0000
  H   H163      1.0  0.37290  0.78412  0.55886  1.0000
  H   H164      1.0  0.42540  0.76658  0.50790  1.0000
  C   C279      1.0  0.43836  0.75063  0.38221  1.0000
  H   H165      1.0  0.43404  0.73979  0.42984  1.0000
  C   C280      1.0  0.78087  0.40851  0.41930  1.0000
  C   C281      1.0  0.78202  0.42807  0.40931  1.0000
  H   H166      1.0  0.78456  0.43724  0.46463  1.0000
  C   C282      1.0  0.77285  0.37497  0.35223  1.0000
  C   C283      1.0  0.76255  0.33292  0.37089  1.0000
  C   C284      1.0  0.76924  0.34636  0.44590  1.0000
  C   C285      1.0  0.77453  0.36751  0.43758  1.0000
  C   C286      1.0  0.78018  0.38093  0.51227  1.0000
  C   C287      1.0  0.78340  0.40130  0.50315  1.0000
  H   H167      1.0  0.78128  0.37576  0.57436  1.0000
  H   H168      1.0  0.78673  0.41047  0.55885  1.0000
  H   H169      1.0  0.76919  0.34043  0.50790  1.0000
  C   C288      1.0  0.75328  0.31153  0.38234  1.0000
  H   H170      1.0  0.74241  0.30502  0.42984  1.0000
  C   C289      1.0  0.58742  0.36634  0.41942  1.0000
  C   C290      1.0  0.56786  0.34792  0.40944  1.0000
  H   H171      1.0  0.55867  0.34130  0.46471  1.0000
  C   C291      1.0  0.62095  0.39187  0.35232  1.0000
  C   C292      1.0  0.66300  0.42367  0.37097  1.0000
  C   C293      1.0  0.64956  0.41689  0.44596  1.0000
  C   C294      1.0  0.62841  0.40102  0.43765  1.0000
  C   C295      1.0  0.61498  0.39325  0.51235  1.0000
  C   C296      1.0  0.59463  0.37609  0.50325  1.0000
  H   H172      1.0  0.62015  0.39955  0.57442  1.0000
  H   H173      1.0  0.58544  0.37027  0.55892  1.0000
  H   H174      1.0  0.65547  0.42279  0.50794  1.0000
  C   C297      1.0  0.68438  0.43577  0.38242  1.0000
  H   H175      1.0  0.69089  0.43143  0.43002  1.0000
  C   C298      1.0  0.62955  0.21507  0.41931  1.0000
  C   C299      1.0  0.64799  0.21396  0.40934  1.0000
  H   H176      1.0  0.65460  0.21138  0.46462  1.0000
  C   C300      1.0  0.60400  0.22304  0.35219  1.0000
  C   C301      1.0  0.57221  0.23330  0.37080  1.0000
  C   C302      1.0  0.57900  0.22666  0.44584  1.0000
  C   C303      1.0  0.59486  0.22136  0.43754  1.0000
  C   C304      1.0  0.60265  0.21574  0.51225  1.0000
  C   C305      1.0  0.61980  0.21253  0.50315  1.0000
  H   H177      1.0  0.59637  0.21463  0.57434  1.0000
  H   H178      1.0  0.62565  0.20921  0.55886  1.0000
  H   H179      1.0  0.57310  0.22667  0.50782  1.0000
  C   C306      1.0  0.56010  0.24258  0.38225  1.0000
  H   H180      1.0  0.56444  0.25343  0.42985  1.0000
