data_image0
_chemical_formula_structural       C2H2C2H2C2H2C2H2C4N2O4C4N2O4C2H2C2H2C4N2O4C4N2O4C2H2C2H2C2H2C2H2C4N2O4C4N2O4C4N2O4C4N2O4C6H3C6H3C6H3C6H3C6H3C6H3C6H3C6H3C6H3C6H3C6H3C6H3C4N2O4C4N2O4C4N2O4C4N2O4C2H2C2H2C4N2O4C4N2O4C2H2C2H2C4N2O4C4N2O4C4N2O4C4N2O4C2H2C2H2C2H2C2H2C2H2C2H2C2H2C2H2C4N2O4C4N2O4C2H2C2H2C4N2O4C4N2O4C2H2C2H2C2H2C2H2C4N2O4C4N2O4C4N2O4C4N2O4C6H3C6H3C6H3C6H3C6H3C6H3C6H3C6H3C6H3C6H3C6H3C6H3C4N2O4C4N2O4C4N2O4C4N2O4C2H2C2H2C4N2O4C4N2O4C2H2C2H2C4N2O4C4N2O4C4N2O4C4N2O4C2H2C2H2C2H2C2H2
_chemical_formula_sum              "C360 H144 N72 O144"
_cell_length_a       42.8762
_cell_length_b       55.5874
_cell_length_c       14.8429
_cell_angle_alpha    90
_cell_angle_beta     90
_cell_angle_gamma    90

_space_group_name_H-M_alt    "P 1"
_space_group_IT_number       1

loop_
  _space_group_symop_operation_xyz
  'x, y, z'

loop_
  _atom_site_type_symbol
  _atom_site_label
  _atom_site_symmetry_multiplicity
  _atom_site_fract_x
  _atom_site_fract_y
  _atom_site_fract_z
  _atom_site_occupancy
  C   C1        1.0  0.27204  0.15585  0.32069  1.0000
  C   C2        1.0  0.23913  0.15581  0.32042  1.0000
  H   H1        1.0  0.22812  0.14602  0.27151  1.0000
  H   H2        1.0  0.28334  0.14607  0.27227  1.0000
  C   C3        1.0  0.23855  0.85471  0.32061  1.0000
  C   C4        1.0  0.27145  0.85477  0.32034  1.0000
  H   H3        1.0  0.28249  0.86454  0.27140  1.0000
  H   H4        1.0  0.22724  0.86449  0.27218  1.0000
  C   C5        1.0  0.02202  0.65594  0.32054  1.0000
  C   C6        1.0  0.48913  0.65587  0.32029  1.0000
  H   H5        1.0  0.47808  0.64599  0.27168  1.0000
  H   H6        1.0  0.03335  0.64604  0.27245  1.0000
  C   C7        1.0  0.48856  0.35463  0.32041  1.0000
  C   C8        1.0  0.02146  0.35468  0.32015  1.0000
  H   H7        1.0  0.03251  0.36453  0.27148  1.0000
  H   H8        1.0  0.47722  0.36448  0.27221  1.0000
  C   C9        1.0  0.06207  0.10949  0.30669  1.0000
  C   C10       1.0  0.11278  0.14379  0.30897  1.0000
  C   C11       1.0  0.08787  0.14596  0.24536  1.0000
  C   C12       1.0  0.06287  0.12910  0.24440  1.0000
  N   N1        1.0  0.08863  0.16250  0.17215  1.0000
  N   N2        1.0  0.04160  0.13095  0.17100  1.0000
  O   O1        1.0  0.07421  0.18187  0.18432  1.0000
  O   O2        1.0  0.03546  0.11173  0.13005  1.0000
  O   O3        1.0  0.11431  0.16538  0.13274  1.0000
  O   O4        1.0  0.01761  0.14324  0.18585  1.0000
  C   C13       1.0  0.44853  0.90106  0.30664  1.0000
  C   C14       1.0  0.39782  0.86676  0.30893  1.0000
  C   C15       1.0  0.42272  0.86460  0.24525  1.0000
  C   C16       1.0  0.44775  0.88143  0.24441  1.0000
  N   N3        1.0  0.42199  0.84800  0.17224  1.0000
  N   N4        1.0  0.46899  0.87958  0.17094  1.0000
  O   O5        1.0  0.43648  0.82866  0.18453  1.0000
  O   O6        1.0  0.47511  0.89880  0.12998  1.0000
  O   O7        1.0  0.39633  0.84507  0.13276  1.0000
  O   O8        1.0  0.49300  0.86731  0.18579  1.0000
  C   C17       1.0  0.42244  0.10568  0.31437  1.0000
  C   C18       1.0  0.39770  0.12243  0.31506  1.0000
  H   H9        1.0  0.37963  0.11973  0.27117  1.0000
  H   H10       1.0  0.42130  0.09171  0.26956  1.0000
  C   C19       1.0  0.08817  0.90490  0.31431  1.0000
  C   C20       1.0  0.11290  0.88815  0.31501  1.0000
  H   H11       1.0  0.13097  0.89083  0.27112  1.0000
  H   H12       1.0  0.08927  0.91885  0.26943  1.0000
  C   C21       1.0  0.31206  0.60949  0.30665  1.0000
  C   C22       1.0  0.36277  0.64379  0.30896  1.0000
  C   C23       1.0  0.33786  0.64596  0.24534  1.0000
  C   C24       1.0  0.31287  0.62910  0.24436  1.0000
  N   N5        1.0  0.33863  0.66250  0.17214  1.0000
  N   N6        1.0  0.29160  0.63095  0.17094  1.0000
  O   O9        1.0  0.32420  0.68187  0.18429  1.0000
  O   O10       1.0  0.28548  0.61173  0.12996  1.0000
  O   O11       1.0  0.36431  0.66539  0.13277  1.0000
  O   O12       1.0  0.26760  0.64322  0.18579  1.0000
  C   C25       1.0  0.19854  0.40104  0.30663  1.0000
  C   C26       1.0  0.14783  0.36676  0.30891  1.0000
  C   C27       1.0  0.17273  0.36458  0.24526  1.0000
  C   C28       1.0  0.19776  0.38141  0.24441  1.0000
  N   N7        1.0  0.17200  0.34797  0.17228  1.0000
  N   N8        1.0  0.21901  0.37954  0.17095  1.0000
  O   O13       1.0  0.18651  0.32864  0.18457  1.0000
  O   O14       1.0  0.22511  0.39876  0.12994  1.0000
  O   O15       1.0  0.14634  0.34503  0.13283  1.0000
  O   O16       1.0  0.24303  0.36729  0.18584  1.0000
  C   C29       1.0  0.17243  0.60568  0.31433  1.0000
  C   C30       1.0  0.14770  0.62243  0.31505  1.0000
  H   H13       1.0  0.12962  0.61974  0.27118  1.0000
  H   H14       1.0  0.17129  0.59172  0.26951  1.0000
  C   C31       1.0  0.33818  0.40490  0.31434  1.0000
  C   C32       1.0  0.36290  0.38814  0.31503  1.0000
  H   H15       1.0  0.38097  0.39083  0.27113  1.0000
  H   H16       1.0  0.33927  0.41885  0.26945  1.0000
  C   C33       1.0  0.12686  0.26763  0.26376  1.0000
  C   C34       1.0  0.13379  0.24294  0.26375  1.0000
  H   H17       1.0  0.13659  0.23433  0.20328  1.0000
  H   H18       1.0  0.12408  0.27624  0.20331  1.0000
  C   C35       1.0  0.38373  0.74293  0.26373  1.0000
  C   C36       1.0  0.37680  0.76762  0.26371  1.0000
  H   H19       1.0  0.37401  0.77622  0.20324  1.0000
  H   H20       1.0  0.38652  0.73432  0.20328  1.0000
  C   C37       1.0  0.38745  0.28031  0.33979  1.0000
  C   C38       1.0  0.37309  0.23025  0.33976  1.0000
  C   C39       1.0  0.37653  0.24281  0.25666  1.0000
  C   C40       1.0  0.38398  0.26776  0.25668  1.0000
  N   N9        1.0  0.37292  0.23151  0.17158  1.0000
  N   N10       1.0  0.38756  0.27908  0.17162  1.0000
  O   O17       1.0  0.39236  0.21491  0.15955  1.0000
  O   O18       1.0  0.41466  0.28705  0.15970  1.0000
  O   O19       1.0  0.34582  0.22354  0.15973  1.0000
  O   O20       1.0  0.36811  0.29568  0.15967  1.0000
  C   C41       1.0  0.12312  0.73026  0.33987  1.0000
  C   C42       1.0  0.13749  0.78032  0.33981  1.0000
  C   C43       1.0  0.13402  0.76776  0.25671  1.0000
  C   C44       1.0  0.12658  0.74281  0.25674  1.0000
  N   N11       1.0  0.13761  0.77906  0.17163  1.0000
  N   N12       1.0  0.12297  0.73149  0.17169  1.0000
  O   O21       1.0  0.11817  0.79566  0.15964  1.0000
  O   O22       1.0  0.09587  0.72353  0.15982  1.0000
  O   O23       1.0  0.16472  0.78703  0.15972  1.0000
  O   O24       1.0  0.14241  0.71489  0.15970  1.0000
  C   C45       1.0  0.00500  0.97939  0.32938  1.0000
  C   C46       1.0  0.00557  0.03117  0.32942  1.0000
  C   C47       1.0  0.00544  0.01812  0.24658  1.0000
  C   C48       1.0  0.00517  0.99245  0.24657  1.0000
  N   N13       1.0  0.00520  0.02966  0.16128  1.0000
  N   N14       1.0  0.00544  0.98091  0.16124  1.0000
  O   O25       1.0  0.02937  0.04186  0.14739  1.0000
  O   O26       1.0  0.02916  0.96800  0.14996  1.0000
  O   O27       1.0  0.98149  0.04259  0.14996  1.0000
  O   O28       1.0  0.98128  0.96871  0.14728  1.0000
  C   C49       1.0  0.25500  0.47939  0.32935  1.0000
  C   C50       1.0  0.25556  0.53117  0.32937  1.0000
  C   C51       1.0  0.25539  0.51812  0.24654  1.0000
  C   C52       1.0  0.25513  0.49245  0.24653  1.0000
  N   N15       1.0  0.25513  0.52966  0.16123  1.0000
  N   N16       1.0  0.25537  0.48091  0.16121  1.0000
  O   O29       1.0  0.27930  0.54186  0.14728  1.0000
  O   O30       1.0  0.27908  0.46799  0.14988  1.0000
  O   O31       1.0  0.23141  0.54258  0.14996  1.0000
  O   O32       1.0  0.23120  0.46871  0.14729  1.0000
  C   C53       1.0  0.14700  0.20572  0.34185  1.0000
  C   C54       1.0  0.17846  0.20002  0.35740  1.0000
  C   C55       1.0  0.18951  0.17599  0.35918  1.0000
  C   C56       1.0  0.16758  0.15749  0.33990  1.0000
  C   C57       1.0  0.13545  0.16230  0.32304  1.0000
  C   C58       1.0  0.12587  0.18677  0.32622  1.0000
  H   H21       1.0  0.17519  0.14006  0.33907  1.0000
  H   H22       1.0  0.10271  0.19097  0.32358  1.0000
  H   H23       1.0  0.19385  0.21399  0.36417  1.0000
  C   C59       1.0  0.36358  0.80483  0.34181  1.0000
  C   C60       1.0  0.33212  0.81054  0.35731  1.0000
  C   C61       1.0  0.32107  0.83457  0.35904  1.0000
  C   C62       1.0  0.34301  0.85307  0.33979  1.0000
  C   C63       1.0  0.37515  0.84825  0.32300  1.0000
  C   C64       1.0  0.38472  0.82378  0.32620  1.0000
  H   H24       1.0  0.33540  0.87050  0.33898  1.0000
  H   H25       1.0  0.40787  0.81958  0.32361  1.0000
  H   H26       1.0  0.31672  0.79658  0.36407  1.0000
  C   C65       1.0  0.36376  0.20570  0.34415  1.0000
  C   C66       1.0  0.33194  0.20003  0.35195  1.0000
  C   C67       1.0  0.32129  0.17604  0.36054  1.0000
  C   C68       1.0  0.34373  0.15728  0.35445  1.0000
  C   C69       1.0  0.37631  0.16232  0.35517  1.0000
  C   C70       1.0  0.38557  0.18678  0.34780  1.0000
  H   H27       1.0  0.33647  0.13992  0.36372  1.0000
  H   H28       1.0  0.40863  0.19094  0.34011  1.0000
  H   H29       1.0  0.31609  0.21376  0.34752  1.0000
  C   C71       1.0  0.14682  0.80487  0.34420  1.0000
  C   C72       1.0  0.17864  0.81054  0.35197  1.0000
  C   C73       1.0  0.18930  0.83452  0.36050  1.0000
  C   C74       1.0  0.16685  0.85328  0.35453  1.0000
  C   C75       1.0  0.13427  0.84825  0.35514  1.0000
  C   C76       1.0  0.12501  0.82379  0.34778  1.0000
  H   H30       1.0  0.17416  0.87064  0.36359  1.0000
  H   H31       1.0  0.10195  0.81962  0.34013  1.0000
  H   H32       1.0  0.19450  0.79680  0.34753  1.0000
  C   C77       1.0  0.39696  0.70573  0.34188  1.0000
  C   C78       1.0  0.42842  0.70003  0.35751  1.0000
  C   C79       1.0  0.43948  0.67601  0.35925  1.0000
  C   C80       1.0  0.41756  0.65750  0.33992  1.0000
  C   C81       1.0  0.38542  0.66231  0.32308  1.0000
  C   C82       1.0  0.37584  0.68677  0.32628  1.0000
  H   H33       1.0  0.42518  0.64007  0.33907  1.0000
  H   H34       1.0  0.35268  0.69097  0.32357  1.0000
  H   H35       1.0  0.44382  0.71400  0.36416  1.0000
  C   C83       1.0  0.11361  0.30483  0.34190  1.0000
  C   C84       1.0  0.08215  0.31053  0.35750  1.0000
  C   C85       1.0  0.07110  0.33456  0.35920  1.0000
  C   C86       1.0  0.09302  0.35305  0.33985  1.0000
  C   C87       1.0  0.12516  0.34824  0.32307  1.0000
  C   C88       1.0  0.13474  0.32377  0.32631  1.0000
  H   H36       1.0  0.08541  0.37048  0.33894  1.0000
  H   H37       1.0  0.15790  0.31957  0.32363  1.0000
  H   H38       1.0  0.06675  0.29656  0.36419  1.0000
  C   C89       1.0  0.11378  0.70571  0.34433  1.0000
  C   C90       1.0  0.08196  0.70004  0.35203  1.0000
  C   C91       1.0  0.07129  0.67606  0.36062  1.0000
  C   C92       1.0  0.09374  0.65731  0.35482  1.0000
  C   C93       1.0  0.12632  0.66233  0.35522  1.0000
  C   C94       1.0  0.13558  0.68678  0.34784  1.0000
  H   H39       1.0  0.08646  0.63993  0.36368  1.0000
  H   H40       1.0  0.15865  0.69095  0.34014  1.0000
  H   H41       1.0  0.06611  0.71378  0.34758  1.0000
  C   C95       1.0  0.39680  0.30486  0.34425  1.0000
  C   C96       1.0  0.42862  0.31052  0.35190  1.0000
  C   C97       1.0  0.43929  0.33450  0.36050  1.0000
  C   C98       1.0  0.41684  0.35326  0.35473  1.0000
  C   C99       1.0  0.38427  0.34825  0.35515  1.0000
  C   C100      1.0  0.37500  0.32379  0.34773  1.0000
  H   H42       1.0  0.42413  0.37063  0.36361  1.0000
  H   H43       1.0  0.35193  0.31962  0.34015  1.0000
  H   H44       1.0  0.44447  0.29678  0.34747  1.0000
  C   C101      1.0  0.03469  0.09541  0.32100  1.0000
  C   C102      1.0  0.50602  0.10742  0.33488  1.0000
  C   C103      1.0  0.47726  0.09553  0.34888  1.0000
  C   C104      1.0  0.47747  0.07007  0.34167  1.0000
  C   C105      1.0  0.00579  0.05697  0.33311  1.0000
  C   C106      1.0  0.03427  0.06994  0.32698  1.0000
  H   H45       1.0  0.45698  0.06083  0.34898  1.0000
  H   H46       1.0  0.05466  0.06064  0.31820  1.0000
  H   H47       1.0  0.50613  0.12576  0.33490  1.0000
  C   C107      1.0  0.47591  0.91514  0.32090  1.0000
  C   C108      1.0  0.00458  0.90314  0.33476  1.0000
  C   C109      1.0  0.03334  0.91504  0.34872  1.0000
  C   C110      1.0  0.03312  0.94050  0.34144  1.0000
  C   C111      1.0  0.50480  0.95359  0.33303  1.0000
  C   C112      1.0  0.47631  0.94061  0.32690  1.0000
  H   H48       1.0  0.05360  0.94975  0.34898  1.0000
  H   H49       1.0  0.45592  0.94991  0.31818  1.0000
  H   H50       1.0  0.00449  0.88480  0.33481  1.0000
  C   C113      1.0  0.28468  0.59540  0.32090  1.0000
  C   C114      1.0  0.25602  0.60742  0.33481  1.0000
  C   C115      1.0  0.22725  0.59552  0.34879  1.0000
  C   C116      1.0  0.22745  0.57007  0.34145  1.0000
  C   C117      1.0  0.25578  0.55697  0.33304  1.0000
  C   C118      1.0  0.28427  0.56994  0.32693  1.0000
  H   H51       1.0  0.20697  0.56082  0.34898  1.0000
  H   H52       1.0  0.30465  0.56064  0.31820  1.0000
  H   H53       1.0  0.25612  0.62576  0.33486  1.0000
  C   C119      1.0  0.22592  0.41514  0.32079  1.0000
  C   C120      1.0  0.25459  0.40314  0.33476  1.0000
  C   C121      1.0  0.28334  0.41504  0.34879  1.0000
  C   C122      1.0  0.28312  0.44050  0.34152  1.0000
  C   C123      1.0  0.25480  0.45358  0.33300  1.0000
  C   C124      1.0  0.22632  0.44061  0.32676  1.0000
  H   H54       1.0  0.30361  0.44974  0.34898  1.0000
  H   H55       1.0  0.20592  0.44989  0.31815  1.0000
  H   H56       1.0  0.25450  0.38480  0.33483  1.0000
  C   C125      1.0  0.28891  0.17212  0.37543  1.0000
  C   C126      1.0  0.22193  0.17195  0.37504  1.0000
  C   C127      1.0  0.23874  0.18528  0.44123  1.0000
  C   C128      1.0  0.27193  0.18549  0.44140  1.0000
  N   N17       1.0  0.22130  0.19687  0.51034  1.0000
  N   N18       1.0  0.28652  0.19678  0.51646  1.0000
  O   O33       1.0  0.22557  0.18742  0.58623  1.0000
  O   O34       1.0  0.30681  0.18435  0.55606  1.0000
  O   O35       1.0  0.22653  0.21910  0.51527  1.0000
  O   O36       1.0  0.29569  0.21795  0.50410  1.0000
  C   C129      1.0  0.22168  0.83844  0.37533  1.0000
  C   C130      1.0  0.28866  0.83863  0.37493  1.0000
  C   C131      1.0  0.27185  0.82529  0.44113  1.0000
  C   C132      1.0  0.23866  0.82507  0.44129  1.0000
  N   N19       1.0  0.28930  0.81372  0.51027  1.0000
  N   N20       1.0  0.22409  0.81381  0.51645  1.0000
  O   O37       1.0  0.28503  0.82319  0.58613  1.0000
  O   O38       1.0  0.20382  0.82627  0.55602  1.0000
  O   O39       1.0  0.28409  0.79150  0.51528  1.0000
  O   O40       1.0  0.21489  0.79265  0.50417  1.0000
  C   C133      1.0  0.03891  0.67215  0.37543  1.0000
  C   C134      1.0  0.47191  0.67198  0.37500  1.0000
  C   C135      1.0  0.48872  0.68532  0.44117  1.0000
  C   C136      1.0  0.02192  0.68555  0.44132  1.0000
  N   N21       1.0  0.47128  0.69689  0.51033  1.0000
  N   N22       1.0  0.03648  0.69680  0.51649  1.0000
  O   O41       1.0  0.47556  0.68742  0.58618  1.0000
  O   O42       1.0  0.05674  0.68434  0.55611  1.0000
  O   O43       1.0  0.47649  0.71911  0.51533  1.0000
  O   O44       1.0  0.04570  0.71796  0.50420  1.0000
  C   C137      1.0  0.47168  0.33842  0.37530  1.0000
  C   C138      1.0  0.03868  0.33859  0.37495  1.0000
  C   C139      1.0  0.02185  0.32527  0.44114  1.0000
  C   C140      1.0  0.48865  0.32506  0.44133  1.0000
  N   N23       1.0  0.03928  0.31370  0.51032  1.0000
  N   N24       1.0  0.47407  0.31377  0.51639  1.0000
  O   O45       1.0  0.03500  0.32316  0.58617  1.0000
  O   O46       1.0  0.45378  0.32621  0.55599  1.0000
  O   O47       1.0  0.03407  0.29147  0.51532  1.0000
  O   O48       1.0  0.46489  0.29260  0.50403  1.0000
  C   C141      1.0  0.08898  0.10560  0.35980  1.0000
  C   C142      1.0  0.11363  0.12240  0.36106  1.0000
  H   H57       1.0  0.13074  0.11996  0.40823  1.0000
  H   H58       1.0  0.08937  0.09195  0.40609  1.0000
  C   C143      1.0  0.42161  0.90496  0.35969  1.0000
  C   C144      1.0  0.39695  0.88816  0.36096  1.0000
  H   H59       1.0  0.37985  0.89058  0.40814  1.0000
  H   H60       1.0  0.42122  0.91861  0.40594  1.0000
  C   C145      1.0  0.45005  0.10976  0.36430  1.0000
  C   C146      1.0  0.39946  0.14406  0.36531  1.0000
  C   C147      1.0  0.42511  0.14650  0.42619  1.0000
  C   C148      1.0  0.45003  0.12959  0.42566  1.0000
  N   N25       1.0  0.42534  0.16342  0.49821  1.0000
  N   N26       1.0  0.47192  0.13160  0.49749  1.0000
  O   O49       1.0  0.43792  0.18327  0.48105  1.0000
  O   O50       1.0  0.47887  0.11252  0.53831  1.0000
  O   O51       1.0  0.40044  0.16562  0.54217  1.0000
  O   O52       1.0  0.49531  0.14451  0.48190  1.0000
  C   C149      1.0  0.06055  0.90083  0.36423  1.0000
  C   C150      1.0  0.11113  0.86652  0.36525  1.0000
  C   C151      1.0  0.08546  0.86406  0.42605  1.0000
  C   C152      1.0  0.06058  0.88101  0.42569  1.0000
  N   N27       1.0  0.08525  0.84720  0.49825  1.0000
  N   N28       1.0  0.03863  0.87899  0.49735  1.0000
  O   O53       1.0  0.07273  0.82731  0.48119  1.0000
  O   O54       1.0  0.03161  0.89805  0.53813  1.0000
  O   O55       1.0  0.11016  0.84504  0.54219  1.0000
  O   O56       1.0  0.01531  0.86601  0.48173  1.0000
  C   C153      1.0  0.33897  0.60560  0.35978  1.0000
  C   C154      1.0  0.36362  0.62240  0.36106  1.0000
  H   H61       1.0  0.38072  0.61996  0.40824  1.0000
  H   H62       1.0  0.33935  0.59195  0.40605  1.0000
  C   C155      1.0  0.17162  0.40496  0.35961  1.0000
  C   C156      1.0  0.14696  0.38816  0.36090  1.0000
  H   H63       1.0  0.12985  0.39060  0.40806  1.0000
  H   H64       1.0  0.17122  0.41862  0.40583  1.0000
  C   C157      1.0  0.20005  0.60975  0.36426  1.0000
  C   C158      1.0  0.14946  0.64406  0.36532  1.0000
  C   C159      1.0  0.17512  0.64649  0.42620  1.0000
  C   C160      1.0  0.20003  0.62958  0.42565  1.0000
  N   N29       1.0  0.17536  0.66341  0.49823  1.0000
  N   N30       1.0  0.22192  0.63157  0.49748  1.0000
  O   O57       1.0  0.18794  0.68326  0.48106  1.0000
  O   O58       1.0  0.22887  0.61249  0.53827  1.0000
  O   O59       1.0  0.15047  0.66561  0.54221  1.0000
  O   O60       1.0  0.24532  0.64448  0.48191  1.0000
  C   C161      1.0  0.31056  0.40082  0.36426  1.0000
  C   C162      1.0  0.36113  0.36652  0.36528  1.0000
  C   C163      1.0  0.33546  0.36407  0.42610  1.0000
  C   C164      1.0  0.31059  0.38101  0.42574  1.0000
  N   N31       1.0  0.33526  0.34720  0.49830  1.0000
  N   N32       1.0  0.28864  0.37899  0.49742  1.0000
  O   O61       1.0  0.32274  0.32732  0.48125  1.0000
  O   O62       1.0  0.28163  0.39806  0.53820  1.0000
  O   O63       1.0  0.36017  0.34505  0.54221  1.0000
  O   O64       1.0  0.26531  0.36603  0.48179  1.0000
  C   C165      1.0  0.12329  0.28030  0.34547  1.0000
  C   C166      1.0  0.13732  0.23025  0.34543  1.0000
  C   C167      1.0  0.13400  0.24270  0.42859  1.0000
  C   C168      1.0  0.12657  0.26783  0.42861  1.0000
  N   N33       1.0  0.13779  0.22880  0.50800  1.0000
  N   N34       1.0  0.12277  0.28172  0.50804  1.0000
  O   O65       1.0  0.11326  0.22685  0.55351  1.0000
  O   O66       1.0  0.10055  0.27497  0.55682  1.0000
  O   O67       1.0  0.15999  0.23555  0.55683  1.0000
  O   O68       1.0  0.14728  0.28367  0.55359  1.0000
  C   C169      1.0  0.38728  0.73026  0.34543  1.0000
  C   C170      1.0  0.37325  0.78031  0.34539  1.0000
  C   C171      1.0  0.37655  0.76785  0.42855  1.0000
  C   C172      1.0  0.38398  0.74272  0.42858  1.0000
  N   N35       1.0  0.37277  0.78175  0.50796  1.0000
  N   N36       1.0  0.38778  0.72883  0.50801  1.0000
  O   O69       1.0  0.39730  0.78370  0.55344  1.0000
  O   O70       1.0  0.40999  0.73558  0.55679  1.0000
  O   O71       1.0  0.35057  0.77500  0.55681  1.0000
  O   O72       1.0  0.36327  0.72688  0.55354  1.0000
  C   C173      1.0  0.38392  0.26759  0.42145  1.0000
  C   C174      1.0  0.37669  0.24295  0.42144  1.0000
  H   H65       1.0  0.37396  0.23436  0.48196  1.0000
  H   H66       1.0  0.38670  0.27617  0.48200  1.0000
  C   C175      1.0  0.12669  0.74298  0.42152  1.0000
  C   C176      1.0  0.13393  0.76761  0.42150  1.0000
  H   H67       1.0  0.13668  0.77620  0.48202  1.0000
  H   H68       1.0  0.12394  0.73439  0.48206  1.0000
  C   C177      1.0  0.00516  0.99260  0.41072  1.0000
  C   C178      1.0  0.00536  0.01795  0.41074  1.0000
  H   H69       1.0  0.00544  0.02676  0.47130  1.0000
  H   H70       1.0  0.00505  0.98378  0.47127  1.0000
  C   C179      1.0  0.25521  0.49260  0.41068  1.0000
  C   C180      1.0  0.25540  0.51795  0.41070  1.0000
  H   H71       1.0  0.25552  0.52677  0.47125  1.0000
  H   H72       1.0  0.25512  0.48378  0.47124  1.0000
  C   C181      1.0  0.77204  0.15585  0.32069  1.0000
  C   C182      1.0  0.73913  0.15581  0.32042  1.0000
  H   H73       1.0  0.72812  0.14602  0.27151  1.0000
  H   H74       1.0  0.78334  0.14607  0.27227  1.0000
  C   C183      1.0  0.73855  0.85471  0.32061  1.0000
  C   C184      1.0  0.77145  0.85477  0.32034  1.0000
  H   H75       1.0  0.78249  0.86454  0.27140  1.0000
  H   H76       1.0  0.72724  0.86449  0.27218  1.0000
  C   C185      1.0  0.52202  0.65594  0.32054  1.0000
  C   C186      1.0  0.98913  0.65587  0.32029  1.0000
  H   H77       1.0  0.97808  0.64599  0.27168  1.0000
  H   H78       1.0  0.53335  0.64604  0.27245  1.0000
  C   C187      1.0  0.98856  0.35463  0.32041  1.0000
  C   C188      1.0  0.52146  0.35468  0.32015  1.0000
  H   H79       1.0  0.53251  0.36453  0.27148  1.0000
  H   H80       1.0  0.97722  0.36448  0.27221  1.0000
  C   C189      1.0  0.56207  0.10949  0.30669  1.0000
  C   C190      1.0  0.61278  0.14379  0.30897  1.0000
  C   C191      1.0  0.58786  0.14596  0.24536  1.0000
  C   C192      1.0  0.56287  0.12910  0.24440  1.0000
  N   N37       1.0  0.58863  0.16250  0.17215  1.0000
  N   N38       1.0  0.54160  0.13095  0.17100  1.0000
  O   O73       1.0  0.57421  0.18187  0.18432  1.0000
  O   O74       1.0  0.53546  0.11173  0.13005  1.0000
  O   O75       1.0  0.61431  0.16538  0.13274  1.0000
  O   O76       1.0  0.51761  0.14324  0.18585  1.0000
  C   C193      1.0  0.94852  0.90106  0.30664  1.0000
  C   C194      1.0  0.89782  0.86676  0.30893  1.0000
  C   C195      1.0  0.92272  0.86460  0.24525  1.0000
  C   C196      1.0  0.94775  0.88143  0.24441  1.0000
  N   N39       1.0  0.92199  0.84800  0.17224  1.0000
  N   N40       1.0  0.96899  0.87958  0.17094  1.0000
  O   O77       1.0  0.93648  0.82866  0.18453  1.0000
  O   O78       1.0  0.97511  0.89880  0.12998  1.0000
  O   O79       1.0  0.89633  0.84507  0.13276  1.0000
  O   O80       1.0  0.99300  0.86731  0.18579  1.0000
  C   C197      1.0  0.92244  0.10568  0.31437  1.0000
  C   C198      1.0  0.89770  0.12243  0.31506  1.0000
  H   H81       1.0  0.87963  0.11973  0.27117  1.0000
  H   H82       1.0  0.92130  0.09171  0.26956  1.0000
  C   C199      1.0  0.58817  0.90490  0.31431  1.0000
  C   C200      1.0  0.61290  0.88815  0.31501  1.0000
  H   H83       1.0  0.63097  0.89083  0.27112  1.0000
  H   H84       1.0  0.58927  0.91885  0.26943  1.0000
  C   C201      1.0  0.81206  0.60949  0.30665  1.0000
  C   C202      1.0  0.86277  0.64379  0.30896  1.0000
  C   C203      1.0  0.83786  0.64596  0.24534  1.0000
  C   C204      1.0  0.81286  0.62910  0.24436  1.0000
  N   N41       1.0  0.83862  0.66250  0.17214  1.0000
  N   N42       1.0  0.79160  0.63095  0.17094  1.0000
  O   O81       1.0  0.82420  0.68187  0.18429  1.0000
  O   O82       1.0  0.78548  0.61173  0.12996  1.0000
  O   O83       1.0  0.86431  0.66539  0.13277  1.0000
  O   O84       1.0  0.76760  0.64322  0.18579  1.0000
  C   C205      1.0  0.69854  0.40104  0.30663  1.0000
  C   C206      1.0  0.64782  0.36676  0.30891  1.0000
  C   C207      1.0  0.67273  0.36458  0.24526  1.0000
  C   C208      1.0  0.69776  0.38141  0.24441  1.0000
  N   N43       1.0  0.67200  0.34797  0.17228  1.0000
  N   N44       1.0  0.71901  0.37954  0.17095  1.0000
  O   O85       1.0  0.68651  0.32864  0.18457  1.0000
  O   O86       1.0  0.72511  0.39876  0.12994  1.0000
  O   O87       1.0  0.64634  0.34503  0.13283  1.0000
  O   O88       1.0  0.74303  0.36729  0.18584  1.0000
  C   C209      1.0  0.67243  0.60568  0.31433  1.0000
  C   C210      1.0  0.64770  0.62243  0.31505  1.0000
  H   H85       1.0  0.62962  0.61974  0.27118  1.0000
  H   H86       1.0  0.67129  0.59172  0.26951  1.0000
  C   C211      1.0  0.83817  0.40490  0.31434  1.0000
  C   C212      1.0  0.86290  0.38814  0.31503  1.0000
  H   H87       1.0  0.88097  0.39083  0.27113  1.0000
  H   H88       1.0  0.83927  0.41885  0.26945  1.0000
  C   C213      1.0  0.62686  0.26763  0.26376  1.0000
  C   C214      1.0  0.63379  0.24294  0.26375  1.0000
  H   H89       1.0  0.63659  0.23433  0.20328  1.0000
  H   H90       1.0  0.62408  0.27624  0.20331  1.0000
  C   C215      1.0  0.88373  0.74293  0.26373  1.0000
  C   C216      1.0  0.87680  0.76762  0.26371  1.0000
  H   H91       1.0  0.87401  0.77622  0.20324  1.0000
  H   H92       1.0  0.88652  0.73432  0.20328  1.0000
  C   C217      1.0  0.88745  0.28031  0.33979  1.0000
  C   C218      1.0  0.87309  0.23025  0.33976  1.0000
  C   C219      1.0  0.87653  0.24281  0.25666  1.0000
  C   C220      1.0  0.88398  0.26776  0.25668  1.0000
  N   N45       1.0  0.87292  0.23151  0.17158  1.0000
  N   N46       1.0  0.88756  0.27908  0.17162  1.0000
  O   O89       1.0  0.89236  0.21491  0.15955  1.0000
  O   O90       1.0  0.91466  0.28705  0.15970  1.0000
  O   O91       1.0  0.84581  0.22354  0.15973  1.0000
  O   O92       1.0  0.86811  0.29568  0.15967  1.0000
  C   C221      1.0  0.62312  0.73026  0.33987  1.0000
  C   C222      1.0  0.63749  0.78032  0.33981  1.0000
  C   C223      1.0  0.63402  0.76776  0.25671  1.0000
  C   C224      1.0  0.62658  0.74281  0.25674  1.0000
  N   N47       1.0  0.63761  0.77906  0.17163  1.0000
  N   N48       1.0  0.62297  0.73149  0.17169  1.0000
  O   O93       1.0  0.61817  0.79566  0.15964  1.0000
  O   O94       1.0  0.59587  0.72353  0.15982  1.0000
  O   O95       1.0  0.66472  0.78703  0.15972  1.0000
  O   O96       1.0  0.64241  0.71489  0.15970  1.0000
  C   C225      1.0  0.50500  0.97939  0.32938  1.0000
  C   C226      1.0  0.50557  0.03117  0.32942  1.0000
  C   C227      1.0  0.50543  0.01812  0.24658  1.0000
  C   C228      1.0  0.50517  0.99245  0.24657  1.0000
  N   N49       1.0  0.50520  0.02966  0.16128  1.0000
  N   N50       1.0  0.50544  0.98091  0.16124  1.0000
  O   O97       1.0  0.52937  0.04186  0.14739  1.0000
  O   O98       1.0  0.52916  0.96800  0.14996  1.0000
  O   O99       1.0  0.48149  0.04259  0.14996  1.0000
  O   O100      1.0  0.48128  0.96871  0.14728  1.0000
  C   C229      1.0  0.75500  0.47939  0.32935  1.0000
  C   C230      1.0  0.75556  0.53117  0.32937  1.0000
  C   C231      1.0  0.75539  0.51812  0.24654  1.0000
  C   C232      1.0  0.75513  0.49245  0.24653  1.0000
  N   N51       1.0  0.75513  0.52966  0.16123  1.0000
  N   N52       1.0  0.75537  0.48091  0.16121  1.0000
  O   O101      1.0  0.77929  0.54186  0.14728  1.0000
  O   O102      1.0  0.77908  0.46799  0.14988  1.0000
  O   O103      1.0  0.73141  0.54258  0.14996  1.0000
  O   O104      1.0  0.73120  0.46871  0.14729  1.0000
  C   C233      1.0  0.64700  0.20572  0.34185  1.0000
  C   C234      1.0  0.67846  0.20002  0.35740  1.0000
  C   C235      1.0  0.68951  0.17599  0.35918  1.0000
  C   C236      1.0  0.66758  0.15749  0.33990  1.0000
  C   C237      1.0  0.63545  0.16230  0.32304  1.0000
  C   C238      1.0  0.62587  0.18677  0.32622  1.0000
  H   H93       1.0  0.67519  0.14006  0.33907  1.0000
  H   H94       1.0  0.60271  0.19097  0.32358  1.0000
  H   H95       1.0  0.69385  0.21399  0.36417  1.0000
  C   C239      1.0  0.86358  0.80483  0.34181  1.0000
  C   C240      1.0  0.83212  0.81054  0.35731  1.0000
  C   C241      1.0  0.82107  0.83457  0.35904  1.0000
  C   C242      1.0  0.84301  0.85307  0.33979  1.0000
  C   C243      1.0  0.87515  0.84825  0.32300  1.0000
  C   C244      1.0  0.88472  0.82378  0.32620  1.0000
  H   H96       1.0  0.83540  0.87050  0.33898  1.0000
  H   H97       1.0  0.90787  0.81958  0.32361  1.0000
  H   H98       1.0  0.81671  0.79658  0.36407  1.0000
  C   C245      1.0  0.86376  0.20570  0.34415  1.0000
  C   C246      1.0  0.83195  0.20003  0.35195  1.0000
  C   C247      1.0  0.82129  0.17604  0.36054  1.0000
  C   C248      1.0  0.84373  0.15728  0.35445  1.0000
  C   C249      1.0  0.87631  0.16232  0.35517  1.0000
  C   C250      1.0  0.88557  0.18678  0.34780  1.0000
  H   H99       1.0  0.83647  0.13992  0.36372  1.0000
  H   H100      1.0  0.90863  0.19094  0.34011  1.0000
  H   H101      1.0  0.81608  0.21376  0.34752  1.0000
  C   C251      1.0  0.64682  0.80487  0.34420  1.0000
  C   C252      1.0  0.67864  0.81054  0.35197  1.0000
  C   C253      1.0  0.68930  0.83452  0.36050  1.0000
  C   C254      1.0  0.66685  0.85328  0.35453  1.0000
  C   C255      1.0  0.63427  0.84825  0.35514  1.0000
  C   C256      1.0  0.62501  0.82379  0.34778  1.0000
  H   H102      1.0  0.67417  0.87064  0.36359  1.0000
  H   H103      1.0  0.60195  0.81962  0.34013  1.0000
  H   H104      1.0  0.69450  0.79680  0.34753  1.0000
  C   C257      1.0  0.89696  0.70573  0.34188  1.0000
  C   C258      1.0  0.92842  0.70003  0.35751  1.0000
  C   C259      1.0  0.93948  0.67601  0.35925  1.0000
  C   C260      1.0  0.91756  0.65750  0.33992  1.0000
  C   C261      1.0  0.88542  0.66231  0.32308  1.0000
  C   C262      1.0  0.87584  0.68677  0.32628  1.0000
  H   H105      1.0  0.92518  0.64007  0.33907  1.0000
  H   H106      1.0  0.85268  0.69097  0.32357  1.0000
  H   H107      1.0  0.94382  0.71400  0.36416  1.0000
  C   C263      1.0  0.61361  0.30483  0.34190  1.0000
  C   C264      1.0  0.58215  0.31053  0.35750  1.0000
  C   C265      1.0  0.57110  0.33456  0.35920  1.0000
  C   C266      1.0  0.59302  0.35305  0.33985  1.0000
  C   C267      1.0  0.62516  0.34824  0.32307  1.0000
  C   C268      1.0  0.63474  0.32377  0.32631  1.0000
  H   H108      1.0  0.58540  0.37048  0.33894  1.0000
  H   H109      1.0  0.65790  0.31957  0.32363  1.0000
  H   H110      1.0  0.56675  0.29656  0.36419  1.0000
  C   C269      1.0  0.61378  0.70571  0.34433  1.0000
  C   C270      1.0  0.58196  0.70004  0.35203  1.0000
  C   C271      1.0  0.57129  0.67606  0.36062  1.0000
  C   C272      1.0  0.59374  0.65731  0.35482  1.0000
  C   C273      1.0  0.62633  0.66233  0.35522  1.0000
  C   C274      1.0  0.63558  0.68678  0.34784  1.0000
  H   H111      1.0  0.58646  0.63993  0.36368  1.0000
  H   H112      1.0  0.65865  0.69095  0.34014  1.0000
  H   H113      1.0  0.56611  0.71378  0.34758  1.0000
  C   C275      1.0  0.89680  0.30486  0.34425  1.0000
  C   C276      1.0  0.92862  0.31052  0.35190  1.0000
  C   C277      1.0  0.93929  0.33450  0.36050  1.0000
  C   C278      1.0  0.91685  0.35326  0.35473  1.0000
  C   C279      1.0  0.88426  0.34825  0.35515  1.0000
  C   C280      1.0  0.87500  0.32379  0.34773  1.0000
  H   H114      1.0  0.92413  0.37063  0.36361  1.0000
  H   H115      1.0  0.85193  0.31962  0.34015  1.0000
  H   H116      1.0  0.94447  0.29678  0.34747  1.0000
  C   C281      1.0  0.53469  0.09541  0.32100  1.0000
  C   C282      1.0  0.00602  0.10742  0.33488  1.0000
  C   C283      1.0  0.97726  0.09553  0.34888  1.0000
  C   C284      1.0  0.97747  0.07007  0.34167  1.0000
  C   C285      1.0  0.50579  0.05697  0.33311  1.0000
  C   C286      1.0  0.53427  0.06994  0.32698  1.0000
  H   H117      1.0  0.95698  0.06083  0.34898  1.0000
  H   H118      1.0  0.55466  0.06064  0.31820  1.0000
  H   H119      1.0  0.00613  0.12576  0.33490  1.0000
  C   C287      1.0  0.97591  0.91514  0.32090  1.0000
  C   C288      1.0  0.50458  0.90314  0.33476  1.0000
  C   C289      1.0  0.53334  0.91504  0.34872  1.0000
  C   C290      1.0  0.53312  0.94050  0.34144  1.0000
  C   C291      1.0  0.00479  0.95359  0.33303  1.0000
  C   C292      1.0  0.97631  0.94061  0.32690  1.0000
  H   H120      1.0  0.55360  0.94975  0.34898  1.0000
  H   H121      1.0  0.95592  0.94991  0.31818  1.0000
  H   H122      1.0  0.50448  0.88480  0.33481  1.0000
  C   C293      1.0  0.78468  0.59540  0.32090  1.0000
  C   C294      1.0  0.75602  0.60742  0.33481  1.0000
  C   C295      1.0  0.72725  0.59552  0.34879  1.0000
  C   C296      1.0  0.72745  0.57007  0.34145  1.0000
  C   C297      1.0  0.75578  0.55697  0.33304  1.0000
  C   C298      1.0  0.78427  0.56994  0.32693  1.0000
  H   H123      1.0  0.70698  0.56082  0.34898  1.0000
  H   H124      1.0  0.80465  0.56064  0.31820  1.0000
  H   H125      1.0  0.75612  0.62576  0.33486  1.0000
  C   C299      1.0  0.72592  0.41514  0.32079  1.0000
  C   C300      1.0  0.75458  0.40314  0.33476  1.0000
  C   C301      1.0  0.78334  0.41504  0.34879  1.0000
  C   C302      1.0  0.78312  0.44050  0.34152  1.0000
  C   C303      1.0  0.75480  0.45358  0.33300  1.0000
  C   C304      1.0  0.72632  0.44061  0.32676  1.0000
  H   H126      1.0  0.80361  0.44974  0.34898  1.0000
  H   H127      1.0  0.70592  0.44989  0.31815  1.0000
  H   H128      1.0  0.75450  0.38480  0.33483  1.0000
  C   C305      1.0  0.78891  0.17212  0.37543  1.0000
  C   C306      1.0  0.72193  0.17195  0.37504  1.0000
  C   C307      1.0  0.73874  0.18528  0.44123  1.0000
  C   C308      1.0  0.77193  0.18549  0.44140  1.0000
  N   N53       1.0  0.72130  0.19687  0.51034  1.0000
  N   N54       1.0  0.78652  0.19678  0.51646  1.0000
  O   O105      1.0  0.72557  0.18742  0.58623  1.0000
  O   O106      1.0  0.80681  0.18435  0.55606  1.0000
  O   O107      1.0  0.72652  0.21910  0.51527  1.0000
  O   O108      1.0  0.79569  0.21795  0.50410  1.0000
  C   C309      1.0  0.72168  0.83844  0.37533  1.0000
  C   C310      1.0  0.78866  0.83863  0.37493  1.0000
  C   C311      1.0  0.77185  0.82529  0.44113  1.0000
  C   C312      1.0  0.73866  0.82507  0.44129  1.0000
  N   N55       1.0  0.78930  0.81372  0.51027  1.0000
  N   N56       1.0  0.72409  0.81381  0.51645  1.0000
  O   O109      1.0  0.78503  0.82319  0.58613  1.0000
  O   O110      1.0  0.70383  0.82627  0.55602  1.0000
  O   O111      1.0  0.78409  0.79150  0.51528  1.0000
  O   O112      1.0  0.71489  0.79265  0.50417  1.0000
  C   C313      1.0  0.53891  0.67215  0.37543  1.0000
  C   C314      1.0  0.97191  0.67198  0.37500  1.0000
  C   C315      1.0  0.98872  0.68532  0.44117  1.0000
  C   C316      1.0  0.52192  0.68555  0.44132  1.0000
  N   N57       1.0  0.97128  0.69689  0.51033  1.0000
  N   N58       1.0  0.53648  0.69680  0.51649  1.0000
  O   O113      1.0  0.97555  0.68742  0.58618  1.0000
  O   O114      1.0  0.55674  0.68434  0.55611  1.0000
  O   O115      1.0  0.97649  0.71911  0.51533  1.0000
  O   O116      1.0  0.54570  0.71796  0.50420  1.0000
  C   C317      1.0  0.97167  0.33842  0.37530  1.0000
  C   C318      1.0  0.53868  0.33859  0.37495  1.0000
  C   C319      1.0  0.52185  0.32527  0.44114  1.0000
  C   C320      1.0  0.98865  0.32506  0.44133  1.0000
  N   N59       1.0  0.53928  0.31370  0.51032  1.0000
  N   N60       1.0  0.97407  0.31377  0.51639  1.0000
  O   O117      1.0  0.53500  0.32316  0.58617  1.0000
  O   O118      1.0  0.95378  0.32621  0.55599  1.0000
  O   O119      1.0  0.53407  0.29147  0.51532  1.0000
  O   O120      1.0  0.96489  0.29260  0.50403  1.0000
  C   C321      1.0  0.58898  0.10560  0.35980  1.0000
  C   C322      1.0  0.61363  0.12240  0.36106  1.0000
  H   H129      1.0  0.63074  0.11996  0.40823  1.0000
  H   H130      1.0  0.58937  0.09195  0.40609  1.0000
  C   C323      1.0  0.92161  0.90496  0.35969  1.0000
  C   C324      1.0  0.89695  0.88816  0.36096  1.0000
  H   H131      1.0  0.87985  0.89058  0.40814  1.0000
  H   H132      1.0  0.92122  0.91861  0.40594  1.0000
  C   C325      1.0  0.95005  0.10976  0.36430  1.0000
  C   C326      1.0  0.89946  0.14406  0.36531  1.0000
  C   C327      1.0  0.92511  0.14650  0.42620  1.0000
  C   C328      1.0  0.95002  0.12959  0.42566  1.0000
  N   N61       1.0  0.92534  0.16342  0.49821  1.0000
  N   N62       1.0  0.97192  0.13160  0.49749  1.0000
  O   O121      1.0  0.93792  0.18327  0.48105  1.0000
  O   O122      1.0  0.97887  0.11252  0.53831  1.0000
  O   O123      1.0  0.90044  0.16562  0.54217  1.0000
  O   O124      1.0  0.99531  0.14451  0.48190  1.0000
  C   C329      1.0  0.56055  0.90083  0.36423  1.0000
  C   C330      1.0  0.61113  0.86652  0.36525  1.0000
  C   C331      1.0  0.58546  0.86406  0.42605  1.0000
  C   C332      1.0  0.56058  0.88101  0.42569  1.0000
  N   N63       1.0  0.58525  0.84720  0.49825  1.0000
  N   N64       1.0  0.53863  0.87899  0.49735  1.0000
  O   O125      1.0  0.57273  0.82731  0.48119  1.0000
  O   O126      1.0  0.53160  0.89805  0.53813  1.0000
  O   O127      1.0  0.61016  0.84504  0.54219  1.0000
  O   O128      1.0  0.51531  0.86601  0.48173  1.0000
  C   C333      1.0  0.83896  0.60560  0.35978  1.0000
  C   C334      1.0  0.86362  0.62240  0.36106  1.0000
  H   H133      1.0  0.88072  0.61996  0.40824  1.0000
  H   H134      1.0  0.83935  0.59195  0.40605  1.0000
  C   C335      1.0  0.67162  0.40496  0.35961  1.0000
  C   C336      1.0  0.64696  0.38816  0.36090  1.0000
  H   H135      1.0  0.62985  0.39060  0.40806  1.0000
  H   H136      1.0  0.67122  0.41862  0.40583  1.0000
  C   C337      1.0  0.70005  0.60975  0.36426  1.0000
  C   C338      1.0  0.64946  0.64406  0.36532  1.0000
  C   C339      1.0  0.67512  0.64649  0.42620  1.0000
  C   C340      1.0  0.70003  0.62958  0.42565  1.0000
  N   N65       1.0  0.67536  0.66341  0.49823  1.0000
  N   N66       1.0  0.72192  0.63157  0.49748  1.0000
  O   O129      1.0  0.68794  0.68326  0.48106  1.0000
  O   O130      1.0  0.72887  0.61249  0.53827  1.0000
  O   O131      1.0  0.65047  0.66561  0.54221  1.0000
  O   O132      1.0  0.74531  0.64448  0.48191  1.0000
  C   C341      1.0  0.81056  0.40082  0.36426  1.0000
  C   C342      1.0  0.86113  0.36652  0.36528  1.0000
  C   C343      1.0  0.83546  0.36407  0.42610  1.0000
  C   C344      1.0  0.81059  0.38101  0.42574  1.0000
  N   N67       1.0  0.83525  0.34720  0.49830  1.0000
  N   N68       1.0  0.78864  0.37899  0.49742  1.0000
  O   O133      1.0  0.82274  0.32732  0.48125  1.0000
  O   O134      1.0  0.78163  0.39806  0.53820  1.0000
  O   O135      1.0  0.86017  0.34505  0.54221  1.0000
  O   O136      1.0  0.76531  0.36603  0.48179  1.0000
  C   C345      1.0  0.62329  0.28030  0.34547  1.0000
  C   C346      1.0  0.63732  0.23025  0.34543  1.0000
  C   C347      1.0  0.63400  0.24270  0.42859  1.0000
  C   C348      1.0  0.62657  0.26783  0.42861  1.0000
  N   N69       1.0  0.63779  0.22880  0.50800  1.0000
  N   N70       1.0  0.62277  0.28172  0.50804  1.0000
  O   O137      1.0  0.61326  0.22685  0.55351  1.0000
  O   O138      1.0  0.60055  0.27497  0.55682  1.0000
  O   O139      1.0  0.65999  0.23555  0.55683  1.0000
  O   O140      1.0  0.64728  0.28367  0.55359  1.0000
  C   C349      1.0  0.88728  0.73026  0.34543  1.0000
  C   C350      1.0  0.87325  0.78031  0.34539  1.0000
  C   C351      1.0  0.87655  0.76785  0.42855  1.0000
  C   C352      1.0  0.88398  0.74272  0.42858  1.0000
  N   N71       1.0  0.87277  0.78175  0.50796  1.0000
  N   N72       1.0  0.88778  0.72883  0.50801  1.0000
  O   O141      1.0  0.89730  0.78370  0.55344  1.0000
  O   O142      1.0  0.90999  0.73558  0.55679  1.0000
  O   O143      1.0  0.85057  0.77500  0.55681  1.0000
  O   O144      1.0  0.86326  0.72688  0.55354  1.0000
  C   C353      1.0  0.88392  0.26759  0.42145  1.0000
  C   C354      1.0  0.87669  0.24295  0.42144  1.0000
  H   H137      1.0  0.87396  0.23436  0.48196  1.0000
  H   H138      1.0  0.88670  0.27617  0.48200  1.0000
  C   C355      1.0  0.62669  0.74298  0.42152  1.0000
  C   C356      1.0  0.63393  0.76761  0.42150  1.0000
  H   H139      1.0  0.63668  0.77620  0.48202  1.0000
  H   H140      1.0  0.62394  0.73439  0.48206  1.0000
  C   C357      1.0  0.50516  0.99260  0.41072  1.0000
  C   C358      1.0  0.50536  0.01795  0.41074  1.0000
  H   H141      1.0  0.50544  0.02676  0.47130  1.0000
  H   H142      1.0  0.50505  0.98378  0.47127  1.0000
  C   C359      1.0  0.75520  0.49260  0.41068  1.0000
  C   C360      1.0  0.75540  0.51795  0.41070  1.0000
  H   H143      1.0  0.75552  0.52677  0.47125  1.0000
  H   H144      1.0  0.75512  0.48378  0.47124  1.0000
