data_image0
_chemical_formula_structural       C2H2C2H2C2H2C2H2C5H3CH3C5H3CH3C2H2C2H2C5H3CH3C5H3CH3C2H2C2H2C2H2C2H2C5H3CH3C5H3CH3C5H3CH3C5H3CH3CNCNCNCNCNCNCNCNCNCNCNCNCNCNCNCNCNCNCNCNCNCNCNCNCNCNCNCNCNCNCNCNCNCNCNCNC5H3CH3C5H3CH3C5H3CH3C5H3CH3C2H2C2H2C5H3CH3C5H3CH3C2H2C2H2C5H3CH3C5H3CH3C5H3CH3C5H3CH3C2H2C2H2C2H2C2H2C2H2C2H2C2H2C2H2C5H3CH3C5H3CH3C2H2C2H2C5H3CH3C5H3CH3C2H2C2H2C2H2C2H2C5H3CH3C5H3CH3C5H3CH3C5H3CH3CNCNCNCNCNCNCNCNCNCNCNCNCNCNCNCNCNCNCNCNCNCNCNCNCNCNCNCNCNCNCNCNCNCNCNCNC5H3CH3C5H3CH3C5H3CH3C5H3CH3C2H2C2H2C5H3CH3C5H3CH3C2H2C2H2C5H3CH3C5H3CH3C5H3CH3C5H3CH3C2H2C2H2C2H2C2H2
_chemical_formula_sum              "C360 H288 N72"
_cell_length_a       42.7244
_cell_length_b       55.3904
_cell_length_c       14.9596
_cell_angle_alpha    90
_cell_angle_beta     90
_cell_angle_gamma    90

_space_group_name_H-M_alt    "P 1"
_space_group_IT_number       1

loop_
  _space_group_symop_operation_xyz
  'x, y, z'

loop_
  _atom_site_type_symbol
  _atom_site_label
  _atom_site_symmetry_multiplicity
  _atom_site_fract_x
  _atom_site_fract_y
  _atom_site_fract_z
  _atom_site_occupancy
  C   C1        1.0  0.26763  0.19131  0.32817  1.0000
  C   C2        1.0  0.23523  0.19120  0.32039  1.0000
  H   H1        1.0  0.22537  0.20693  0.29804  1.0000
  H   H2        1.0  0.27838  0.20711  0.31046  1.0000
  C   C3        1.0  0.23421  0.81140  0.32820  1.0000
  C   C4        1.0  0.26661  0.81152  0.32063  1.0000
  H   H3        1.0  0.27649  0.79579  0.29828  1.0000
  H   H4        1.0  0.22346  0.79561  0.31030  1.0000
  C   C5        1.0  0.01725  0.69141  0.32797  1.0000
  C   C6        1.0  0.48482  0.69137  0.32199  1.0000
  H   H5        1.0  0.47485  0.70724  0.30133  1.0000
  H   H6        1.0  0.02786  0.70734  0.31113  1.0000
  C   C7        1.0  0.48459  0.31129  0.32806  1.0000
  C   C8        1.0  0.01703  0.31133  0.32219  1.0000
  H   H7        1.0  0.02701  0.29548  0.30140  1.0000
  H   H8        1.0  0.47398  0.29538  0.31093  1.0000
  C   C9        1.0  0.05665  0.10514  0.33718  1.0000
  C   C10       1.0  0.10727  0.14035  0.32466  1.0000
  C   C11       1.0  0.11232  0.11539  0.30296  1.0000
  C   C12       1.0  0.08797  0.09767  0.31645  1.0000
  C   C13       1.0  0.14072  0.10822  0.25083  1.0000
  H   H9        1.0  0.15202  0.12327  0.21705  1.0000
  H   H10       1.0  0.13451  0.09577  0.19709  1.0000
  H   H11       1.0  0.15747  0.09942  0.29506  1.0000
  C   C14       1.0  0.09491  0.07123  0.30899  1.0000
  H   H12       1.0  0.08676  0.06191  0.36887  1.0000
  H   H13       1.0  0.11969  0.06689  0.30393  1.0000
  H   H14       1.0  0.08326  0.06378  0.25026  1.0000
  C   C15       1.0  0.44502  0.89768  0.33964  1.0000
  C   C16       1.0  0.39449  0.86244  0.32639  1.0000
  C   C17       1.0  0.38945  0.88738  0.30444  1.0000
  C   C18       1.0  0.41374  0.90513  0.31825  1.0000
  C   C19       1.0  0.36118  0.89450  0.25166  1.0000
  H   H15       1.0  0.34988  0.87941  0.21808  1.0000
  H   H16       1.0  0.36754  0.90683  0.19769  1.0000
  H   H17       1.0  0.34436  0.90342  0.29537  1.0000
  C   C20       1.0  0.40685  0.93156  0.31016  1.0000
  H   H18       1.0  0.41470  0.94092  0.37032  1.0000
  H   H19       1.0  0.38211  0.93592  0.30400  1.0000
  H   H20       1.0  0.41882  0.93900  0.25188  1.0000
  C   C21       1.0  0.45019  0.13060  0.35115  1.0000
  C   C22       1.0  0.42586  0.14730  0.35565  1.0000
  H   H21       1.0  0.43197  0.16493  0.34505  1.0000
  H   H22       1.0  0.47177  0.13772  0.33774  1.0000
  C   C23       1.0  0.05152  0.87211  0.35121  1.0000
  C   C24       1.0  0.07588  0.85543  0.35508  1.0000
  H   H23       1.0  0.06974  0.83777  0.34515  1.0000
  H   H24       1.0  0.02987  0.86497  0.33886  1.0000
  C   C25       1.0  0.30639  0.60525  0.33740  1.0000
  C   C26       1.0  0.35687  0.64059  0.32570  1.0000
  C   C27       1.0  0.36195  0.61571  0.30286  1.0000
  C   C28       1.0  0.33770  0.59790  0.31605  1.0000
  C   C29       1.0  0.39024  0.60876  0.24987  1.0000
  H   H25       1.0  0.40137  0.62395  0.21645  1.0000
  H   H26       1.0  0.38394  0.59646  0.19576  1.0000
  H   H27       1.0  0.40714  0.59987  0.29340  1.0000
  C   C30       1.0  0.34472  0.57150  0.30753  1.0000
  H   H28       1.0  0.33679  0.56201  0.36730  1.0000
  H   H29       1.0  0.36949  0.56722  0.30169  1.0000
  H   H30       1.0  0.33292  0.56416  0.24885  1.0000
  C   C31       1.0  0.19528  0.39757  0.33981  1.0000
  C   C32       1.0  0.14489  0.36218  0.32743  1.0000
  C   C33       1.0  0.13982  0.38704  0.30428  1.0000
  C   C34       1.0  0.16401  0.40489  0.31776  1.0000
  C   C35       1.0  0.11166  0.39393  0.25063  1.0000
  H   H31       1.0  0.10050  0.37871  0.21752  1.0000
  H   H32       1.0  0.11812  0.40609  0.19623  1.0000
  H   H33       1.0  0.09471  0.40297  0.29359  1.0000
  C   C36       1.0  0.15705  0.43129  0.30850  1.0000
  H   H34       1.0  0.16466  0.44082  0.36852  1.0000
  H   H35       1.0  0.13232  0.43557  0.30147  1.0000
  H   H36       1.0  0.16920  0.43859  0.25028  1.0000
  C   C37       1.0  0.20005  0.63055  0.34964  1.0000
  C   C38       1.0  0.17576  0.64727  0.35371  1.0000
  H   H37       1.0  0.18183  0.66483  0.34125  1.0000
  H   H38       1.0  0.22155  0.63757  0.33453  1.0000
  C   C39       1.0  0.30165  0.37215  0.34964  1.0000
  C   C40       1.0  0.32599  0.35545  0.35302  1.0000
  H   H39       1.0  0.31988  0.33786  0.34135  1.0000
  H   H40       1.0  0.28007  0.36510  0.33575  1.0000
  C   C41       1.0  0.14400  0.24198  0.27523  1.0000
  C   C42       1.0  0.13763  0.26675  0.27861  1.0000
  H   H41       1.0  0.14541  0.27743  0.22727  1.0000
  H   H42       1.0  0.15675  0.23559  0.22224  1.0000
  C   C43       1.0  0.35785  0.76080  0.27549  1.0000
  C   C44       1.0  0.36422  0.73603  0.27855  1.0000
  H   H43       1.0  0.35641  0.72540  0.22712  1.0000
  H   H44       1.0  0.34506  0.76724  0.22264  1.0000
  C   C45       1.0  0.36976  0.22617  0.35010  1.0000
  C   C46       1.0  0.38222  0.27672  0.34083  1.0000
  C   C47       1.0  0.39404  0.26099  0.27281  1.0000
  C   C48       1.0  0.38786  0.23550  0.27756  1.0000
  C   C49       1.0  0.41162  0.27106  0.19431  1.0000
  H   H45       1.0  0.41280  0.29068  0.19253  1.0000
  H   H46       1.0  0.40025  0.26579  0.13206  1.0000
  H   H47       1.0  0.43557  0.26422  0.19449  1.0000
  C   C50       1.0  0.39949  0.21920  0.20467  1.0000
  H   H48       1.0  0.39341  0.20028  0.21284  1.0000
  H   H49       1.0  0.42496  0.22018  0.20088  1.0000
  H   H50       1.0  0.38959  0.22470  0.14063  1.0000
  C   C51       1.0  0.13204  0.77655  0.34980  1.0000
  C   C52       1.0  0.11960  0.72598  0.34120  1.0000
  C   C53       1.0  0.10789  0.74164  0.27276  1.0000
  C   C54       1.0  0.11405  0.76714  0.27719  1.0000
  C   C55       1.0  0.09045  0.73148  0.19417  1.0000
  H   H51       1.0  0.08929  0.71185  0.19267  1.0000
  H   H52       1.0  0.10193  0.73668  0.13200  1.0000
  H   H53       1.0  0.06650  0.73831  0.19390  1.0000
  C   C56       1.0  0.10254  0.78335  0.20388  1.0000
  H   H54       1.0  0.10858  0.80228  0.21188  1.0000
  H   H55       1.0  0.07708  0.78235  0.19973  1.0000
  H   H56       1.0  0.11256  0.77779  0.14008  1.0000
  C   C57       1.0  0.00123  0.97545  0.32917  1.0000
  C   C58       1.0  0.00050  0.02721  0.32684  1.0000
  C   C59       1.0  0.01541  0.01419  0.25595  1.0000
  C   C60       1.0  0.01605  0.98820  0.25758  1.0000
  C   C61       1.0  0.02896  0.02735  0.17729  1.0000
  H   H57       1.0  0.02537  0.04678  0.17814  1.0000
  H   H58       1.0  0.01809  0.02105  0.11561  1.0000
  H   H59       1.0  0.05412  0.02413  0.17381  1.0000
  C   C62       1.0  0.03118  0.97466  0.18215  1.0000
  H   H60       1.0  0.02985  0.95511  0.18755  1.0000
  H   H61       1.0  0.05593  0.97941  0.17822  1.0000
  H   H62       1.0  0.51985  0.97924  0.11908  1.0000
  C   C63       1.0  0.25128  0.47545  0.32990  1.0000
  C   C64       1.0  0.25044  0.52720  0.32756  1.0000
  C   C65       1.0  0.26529  0.51420  0.25654  1.0000
  C   C66       1.0  0.26601  0.48821  0.25818  1.0000
  C   C67       1.0  0.27872  0.52738  0.17773  1.0000
  H   H63       1.0  0.27506  0.54680  0.17857  1.0000
  H   H64       1.0  0.26782  0.52104  0.11616  1.0000
  H   H65       1.0  0.30389  0.52421  0.17405  1.0000
  C   C68       1.0  0.28110  0.47469  0.18266  1.0000
  H   H66       1.0  0.27986  0.45514  0.18814  1.0000
  H   H67       1.0  0.30583  0.47949  0.17850  1.0000
  H   H68       1.0  0.26969  0.47923  0.11968  1.0000
  C   C69       1.0  0.18379  0.17314  0.33092  1.0000
  N   N1        1.0  0.16187  0.15516  0.32901  1.0000
  C   C70       1.0  0.13026  0.15912  0.32605  1.0000
  N   N2        1.0  0.12107  0.18276  0.32942  1.0000
  C   C71       1.0  0.14138  0.20148  0.33284  1.0000
  N   N3        1.0  0.17207  0.19597  0.33313  1.0000
  C   C72       1.0  0.31803  0.82958  0.33158  1.0000
  N   N4        1.0  0.33993  0.84757  0.33003  1.0000
  C   C73       1.0  0.37155  0.84363  0.32736  1.0000
  N   N5        1.0  0.38077  0.82000  0.33050  1.0000
  C   C74       1.0  0.36048  0.80126  0.33355  1.0000
  N   N6        1.0  0.32978  0.80675  0.33363  1.0000
  C   C75       1.0  0.31799  0.17359  0.36430  1.0000
  N   N7        1.0  0.33963  0.15539  0.37032  1.0000
  C   C76       1.0  0.37139  0.15919  0.37189  1.0000
  N   N8        1.0  0.38070  0.18278  0.36561  1.0000
  C   C77       1.0  0.36068  0.20162  0.35914  1.0000
  N   N9        1.0  0.33000  0.19625  0.35865  1.0000
  C   C78       1.0  0.18382  0.82912  0.36385  1.0000
  N   N10       1.0  0.16217  0.84734  0.36942  1.0000
  C   C79       1.0  0.13041  0.84355  0.37071  1.0000
  N   N11       1.0  0.12109  0.81996  0.36458  1.0000
  C   C80       1.0  0.14111  0.80111  0.35852  1.0000
  N   N12       1.0  0.17180  0.80646  0.35835  1.0000
  C   C81       1.0  0.43345  0.67323  0.33315  1.0000
  N   N13       1.0  0.41147  0.65531  0.33031  1.0000
  C   C82       1.0  0.37985  0.65936  0.32832  1.0000
  N   N14       1.0  0.37072  0.68300  0.33405  1.0000
  C   C83       1.0  0.39115  0.70160  0.33958  1.0000
  N   N15       1.0  0.42180  0.69604  0.33780  1.0000
  C   C84       1.0  0.06838  0.32946  0.33381  1.0000
  N   N16       1.0  0.09034  0.34740  0.33135  1.0000
  C   C85       1.0  0.12196  0.34337  0.32960  1.0000
  N   N17       1.0  0.13113  0.31974  0.33507  1.0000
  C   C86       1.0  0.11071  0.30112  0.34016  1.0000
  N   N18       1.0  0.08005  0.30665  0.33826  1.0000
  C   C87       1.0  0.06784  0.67349  0.36081  1.0000
  N   N19       1.0  0.08955  0.65537  0.36849  1.0000
  C   C88       1.0  0.12131  0.65923  0.36952  1.0000
  N   N20       1.0  0.13059  0.68276  0.36031  1.0000
  C   C89       1.0  0.11051  0.70146  0.35073  1.0000
  N   N21       1.0  0.07986  0.69607  0.35237  1.0000
  C   C90       1.0  0.43398  0.32921  0.36048  1.0000
  N   N22       1.0  0.41227  0.34735  0.36755  1.0000
  C   C91       1.0  0.38050  0.34351  0.36816  1.0000
  N   N23       1.0  0.37122  0.31998  0.35912  1.0000
  C   C92       1.0  0.39130  0.30126  0.35010  1.0000
  N   N24       1.0  0.42195  0.30662  0.35218  1.0000
  C   C93       1.0  0.02941  0.09006  0.34061  1.0000
  N   N25       1.0  0.02804  0.06556  0.33314  1.0000
  C   C94       1.0  0.00060  0.05290  0.33510  1.0000
  N   N26       1.0  0.47336  0.06556  0.34487  1.0000
  C   C95       1.0  0.47242  0.09013  0.35028  1.0000
  N   N27       1.0  0.00099  0.10075  0.34809  1.0000
  C   C96       1.0  0.47225  0.91276  0.34306  1.0000
  N   N28       1.0  0.47360  0.93728  0.33615  1.0000
  C   C97       1.0  0.50110  0.94984  0.33803  1.0000
  N   N29       1.0  0.02837  0.93715  0.34624  1.0000
  C   C98       1.0  0.02928  0.91257  0.35103  1.0000
  N   N30       1.0  0.50067  0.90200  0.34948  1.0000
  C   C99       1.0  0.27923  0.59009  0.34089  1.0000
  N   N31       1.0  0.27791  0.56558  0.33356  1.0000
  C   C100      1.0  0.25050  0.55289  0.33577  1.0000
  N   N32       1.0  0.22322  0.56551  0.34567  1.0000
  C   C101      1.0  0.22225  0.59009  0.35093  1.0000
  N   N33       1.0  0.25081  0.60073  0.34849  1.0000
  C   C102      1.0  0.22243  0.41273  0.34323  1.0000
  N   N34       1.0  0.22372  0.43726  0.33655  1.0000
  C   C103      1.0  0.25120  0.44984  0.33871  1.0000
  N   N35       1.0  0.27850  0.43719  0.34695  1.0000
  C   C104      1.0  0.27944  0.41261  0.35153  1.0000
  N   N36       1.0  0.25086  0.40201  0.34974  1.0000
  C   C105      1.0  0.28472  0.17104  0.35895  1.0000
  C   C106      1.0  0.21700  0.17034  0.33683  1.0000
  C   C107      1.0  0.23378  0.14884  0.36063  1.0000
  C   C108      1.0  0.26684  0.14988  0.37955  1.0000
  C   C109      1.0  0.21664  0.12536  0.36424  1.0000
  H   H69       1.0  0.20502  0.12252  0.30034  1.0000
  H   H70       1.0  0.19943  0.12558  0.41813  1.0000
  H   H71       1.0  0.23151  0.10961  0.37357  1.0000
  C   C110      1.0  0.28110  0.13066  0.43652  1.0000
  H   H72       1.0  0.30009  0.13753  0.47777  1.0000
  H   H73       1.0  0.28954  0.11605  0.39425  1.0000
  H   H74       1.0  0.26427  0.12340  0.48439  1.0000
  C   C111      1.0  0.21709  0.83166  0.35892  1.0000
  C   C112      1.0  0.28482  0.83237  0.33730  1.0000
  C   C113      1.0  0.26803  0.85386  0.36111  1.0000
  C   C114      1.0  0.23495  0.85282  0.37980  1.0000
  C   C115      1.0  0.28519  0.87733  0.36531  1.0000
  H   H75       1.0  0.29686  0.88026  0.30155  1.0000
  H   H76       1.0  0.30236  0.87702  0.41930  1.0000
  H   H77       1.0  0.27033  0.89308  0.37494  1.0000
  C   C116      1.0  0.22071  0.87199  0.43700  1.0000
  H   H78       1.0  0.20139  0.86523  0.47720  1.0000
  H   H79       1.0  0.21275  0.88684  0.39506  1.0000
  H   H80       1.0  0.23746  0.87891  0.48580  1.0000
  C   C117      1.0  0.03453  0.67099  0.35660  1.0000
  C   C118      1.0  0.46668  0.67042  0.33760  1.0000
  C   C119      1.0  0.48357  0.64881  0.35891  1.0000
  C   C120      1.0  0.01671  0.64976  0.37673  1.0000
  C   C121      1.0  0.46656  0.62526  0.35984  1.0000
  H   H81       1.0  0.45460  0.62308  0.29611  1.0000
  H   H82       1.0  0.44965  0.62484  0.41450  1.0000
  H   H83       1.0  0.48159  0.60947  0.36596  1.0000
  C   C122      1.0  0.03145  0.63022  0.43102  1.0000
  H   H84       1.0  0.04930  0.63736  0.47577  1.0000
  H   H85       1.0  0.04159  0.61678  0.38650  1.0000
  H   H86       1.0  0.01474  0.62139  0.47540  1.0000
  C   C123      1.0  0.46730  0.33168  0.35679  1.0000
  C   C124      1.0  0.03516  0.33227  0.33813  1.0000
  C   C125      1.0  0.01826  0.35386  0.35970  1.0000
  C   C126      1.0  0.48511  0.35289  0.37732  1.0000
  C   C127      1.0  0.03532  0.37739  0.36172  1.0000
  H   H87       1.0  0.04727  0.37978  0.29809  1.0000
  H   H88       1.0  0.05223  0.37760  0.41638  1.0000
  H   H89       1.0  0.02033  0.39317  0.36869  1.0000
  C   C128      1.0  0.47049  0.37235  0.43227  1.0000
  H   H90       1.0  0.45198  0.36538  0.47507  1.0000
  H   H91       1.0  0.46129  0.38632  0.38833  1.0000
  H   H92       1.0  0.48716  0.38049  0.47859  1.0000
  C   C129      1.0  0.05225  0.13013  0.35359  1.0000
  C   C130      1.0  0.07651  0.14687  0.34952  1.0000
  H   H93       1.0  0.07087  0.16423  0.36656  1.0000
  H   H94       1.0  0.03101  0.13694  0.37251  1.0000
  C   C131      1.0  0.44940  0.87271  0.35655  1.0000
  C   C132      1.0  0.42517  0.85596  0.35210  1.0000
  H   H95       1.0  0.43077  0.83861  0.36953  1.0000
  H   H96       1.0  0.47059  0.86595  0.37616  1.0000
  C   C133      1.0  0.44537  0.10533  0.35793  1.0000
  C   C134      1.0  0.39458  0.14047  0.37329  1.0000
  C   C135      1.0  0.38934  0.11518  0.38815  1.0000
  C   C136      1.0  0.41371  0.09764  0.37225  1.0000
  C   C137      1.0  0.36018  0.10746  0.43500  1.0000
  H   H97       1.0  0.35167  0.12143  0.48009  1.0000
  H   H98       1.0  0.36400  0.09185  0.47811  1.0000
  H   H99       1.0  0.34232  0.10303  0.38571  1.0000
  C   C138      1.0  0.40624  0.07125  0.36791  1.0000
  H   H100      1.0  0.41508  0.06370  0.30548  1.0000
  H   H101      1.0  0.38131  0.06717  0.36796  1.0000
  H   H102      1.0  0.41692  0.06188  0.42438  1.0000
  C   C139      1.0  0.05635  0.89739  0.35750  1.0000
  C   C140      1.0  0.10723  0.86229  0.37177  1.0000
  C   C141      1.0  0.11251  0.88761  0.38577  1.0000
  C   C142      1.0  0.08808  0.90510  0.37019  1.0000
  C   C143      1.0  0.14192  0.89541  0.43112  1.0000
  H   H103      1.0  0.15002  0.88177  0.47824  1.0000
  H   H104      1.0  0.13871  0.91155  0.47182  1.0000
  H   H105      1.0  0.15984  0.89893  0.38100  1.0000
  C   C144      1.0  0.09562  0.93145  0.36366  1.0000
  H   H106      1.0  0.08618  0.93877  0.30155  1.0000
  H   H107      1.0  0.12056  0.93543  0.36129  1.0000
  H   H108      1.0  0.08557  0.94110  0.42045  1.0000
  C   C145      1.0  0.30190  0.63020  0.35444  1.0000
  C   C146      1.0  0.32610  0.64699  0.35080  1.0000
  H   H109      1.0  0.32040  0.66431  0.36841  1.0000
  H   H110      1.0  0.28065  0.63692  0.37376  1.0000
  C   C147      1.0  0.19975  0.37264  0.35739  1.0000
  C   C148      1.0  0.17559  0.35582  0.35339  1.0000
  H   H111      1.0  0.18124  0.33853  0.37144  1.0000
  H   H112      1.0  0.22094  0.36597  0.37743  1.0000
  C   C149      1.0  0.19526  0.60532  0.35859  1.0000
  C   C150      1.0  0.14455  0.64056  0.37289  1.0000
  C   C151      1.0  0.13942  0.61539  0.39058  1.0000
  C   C152      1.0  0.16370  0.59774  0.37523  1.0000
  C   C153      1.0  0.11074  0.60794  0.44037  1.0000
  H   H113      1.0  0.10135  0.62256  0.48092  1.0000
  H   H114      1.0  0.11572  0.59358  0.48826  1.0000
  H   H115      1.0  0.09312  0.60164  0.39323  1.0000
  C   C154      1.0  0.15635  0.57129  0.37538  1.0000
  H   H116      1.0  0.16437  0.56316  0.31303  1.0000
  H   H117      1.0  0.13150  0.56711  0.37908  1.0000
  H   H118      1.0  0.16791  0.56253  0.43178  1.0000
  C   C155      1.0  0.30647  0.39739  0.35797  1.0000
  C   C156      1.0  0.35727  0.36220  0.37112  1.0000
  C   C157      1.0  0.36246  0.38741  0.38779  1.0000
  C   C158      1.0  0.33812  0.40502  0.37274  1.0000
  C   C159      1.0  0.39143  0.39496  0.43598  1.0000
  H   H119      1.0  0.40022  0.38066  0.47915  1.0000
  H   H120      1.0  0.38717  0.41006  0.48119  1.0000
  H   H121      1.0  0.40921  0.40016  0.38754  1.0000
  C   C160      1.0  0.34559  0.43143  0.37029  1.0000
  H   H122      1.0  0.33689  0.43928  0.30818  1.0000
  H   H123      1.0  0.37051  0.43551  0.37119  1.0000
  H   H124      1.0  0.33477  0.44052  0.42715  1.0000
  C   C161      1.0  0.13239  0.22606  0.34104  1.0000
  C   C162      1.0  0.11964  0.27656  0.34862  1.0000
  C   C163      1.0  0.10878  0.26109  0.41872  1.0000
  C   C164      1.0  0.11518  0.23563  0.41495  1.0000
  C   C165      1.0  0.09195  0.27141  0.49814  1.0000
  H   H125      1.0  0.09029  0.29101  0.49850  1.0000
  H   H126      1.0  0.10421  0.26665  0.55960  1.0000
  H   H127      1.0  0.06818  0.26425  0.50093  1.0000
  C   C166      1.0  0.10481  0.21964  0.49032  1.0000
  H   H128      1.0  0.11114  0.20074  0.48311  1.0000
  H   H129      1.0  0.07939  0.22037  0.49670  1.0000
  H   H130      1.0  0.11541  0.22563  0.55280  1.0000
  C   C167      1.0  0.36949  0.77667  0.34143  1.0000
  C   C168      1.0  0.38226  0.72617  0.34834  1.0000
  C   C169      1.0  0.39316  0.74157  0.41856  1.0000
  C   C170      1.0  0.38676  0.76704  0.41511  1.0000
  C   C171      1.0  0.41003  0.73120  0.49779  1.0000
  H   H131      1.0  0.41168  0.71159  0.49798  1.0000
  H   H132      1.0  0.39783  0.73591  0.55936  1.0000
  H   H133      1.0  0.43382  0.73833  0.50051  1.0000
  C   C172      1.0  0.39719  0.78296  0.49061  1.0000
  H   H134      1.0  0.39084  0.80187  0.48368  1.0000
  H   H135      1.0  0.42261  0.78223  0.49683  1.0000
  H   H136      1.0  0.38663  0.77692  0.55309  1.0000
  C   C173      1.0  0.35713  0.24236  0.41348  1.0000
  C   C174      1.0  0.36335  0.26713  0.40932  1.0000
  H   H137      1.0  0.35489  0.27795  0.45937  1.0000
  H   H138      1.0  0.34375  0.23617  0.46553  1.0000
  C   C175      1.0  0.14455  0.76044  0.41366  1.0000
  C   C176      1.0  0.13833  0.73567  0.40982  1.0000
  H   H139      1.0  0.14670  0.72490  0.46016  1.0000
  H   H140      1.0  0.15784  0.76670  0.46580  1.0000
  C   C177      1.0  0.48529  0.98875  0.39548  1.0000
  C   C178      1.0  0.48507  0.01405  0.39457  1.0000
  H   H141      1.0  0.47413  0.02284  0.44613  1.0000
  H   H142      1.0  0.47440  0.98008  0.44742  1.0000
  C   C179      1.0  0.23540  0.48872  0.39637  1.0000
  C   C180      1.0  0.23513  0.51403  0.39546  1.0000
  H   H143      1.0  0.22422  0.52280  0.44711  1.0000
  H   H144      1.0  0.22458  0.48004  0.44840  1.0000
  C   C181      1.0  0.76763  0.19131  0.32817  1.0000
  C   C182      1.0  0.73523  0.19120  0.32039  1.0000
  H   H145      1.0  0.72537  0.20693  0.29804  1.0000
  H   H146      1.0  0.77838  0.20711  0.31046  1.0000
  C   C183      1.0  0.73421  0.81140  0.32820  1.0000
  C   C184      1.0  0.76661  0.81152  0.32063  1.0000
  H   H147      1.0  0.77649  0.79579  0.29828  1.0000
  H   H148      1.0  0.72346  0.79561  0.31030  1.0000
  C   C185      1.0  0.51725  0.69141  0.32797  1.0000
  C   C186      1.0  0.98482  0.69137  0.32199  1.0000
  H   H149      1.0  0.97485  0.70724  0.30133  1.0000
  H   H150      1.0  0.52786  0.70734  0.31113  1.0000
  C   C187      1.0  0.98459  0.31129  0.32806  1.0000
  C   C188      1.0  0.51703  0.31133  0.32219  1.0000
  H   H151      1.0  0.52701  0.29548  0.30140  1.0000
  H   H152      1.0  0.97398  0.29538  0.31093  1.0000
  C   C189      1.0  0.55665  0.10514  0.33718  1.0000
  C   C190      1.0  0.60727  0.14035  0.32466  1.0000
  C   C191      1.0  0.61232  0.11539  0.30296  1.0000
  C   C192      1.0  0.58797  0.09767  0.31645  1.0000
  C   C193      1.0  0.64071  0.10822  0.25083  1.0000
  H   H153      1.0  0.65202  0.12327  0.21705  1.0000
  H   H154      1.0  0.63451  0.09577  0.19709  1.0000
  H   H155      1.0  0.65747  0.09942  0.29506  1.0000
  C   C194      1.0  0.59491  0.07123  0.30899  1.0000
  H   H156      1.0  0.58676  0.06191  0.36887  1.0000
  H   H157      1.0  0.61969  0.06689  0.30393  1.0000
  H   H158      1.0  0.58326  0.06378  0.25026  1.0000
  C   C195      1.0  0.94502  0.89768  0.33964  1.0000
  C   C196      1.0  0.89449  0.86244  0.32639  1.0000
  C   C197      1.0  0.88945  0.88738  0.30444  1.0000
  C   C198      1.0  0.91374  0.90513  0.31825  1.0000
  C   C199      1.0  0.86118  0.89450  0.25166  1.0000
  H   H159      1.0  0.84988  0.87941  0.21808  1.0000
  H   H160      1.0  0.86754  0.90683  0.19769  1.0000
  H   H161      1.0  0.84436  0.90342  0.29537  1.0000
  C   C200      1.0  0.90685  0.93156  0.31016  1.0000
  H   H162      1.0  0.91470  0.94092  0.37032  1.0000
  H   H163      1.0  0.88211  0.93592  0.30400  1.0000
  H   H164      1.0  0.91882  0.93900  0.25188  1.0000
  C   C201      1.0  0.95019  0.13060  0.35115  1.0000
  C   C202      1.0  0.92586  0.14730  0.35565  1.0000
  H   H165      1.0  0.93197  0.16493  0.34505  1.0000
  H   H166      1.0  0.97177  0.13772  0.33774  1.0000
  C   C203      1.0  0.55152  0.87211  0.35121  1.0000
  C   C204      1.0  0.57588  0.85543  0.35508  1.0000
  H   H167      1.0  0.56974  0.83777  0.34515  1.0000
  H   H168      1.0  0.52987  0.86497  0.33886  1.0000
  C   C205      1.0  0.80639  0.60525  0.33740  1.0000
  C   C206      1.0  0.85687  0.64059  0.32570  1.0000
  C   C207      1.0  0.86195  0.61571  0.30286  1.0000
  C   C208      1.0  0.83770  0.59790  0.31605  1.0000
  C   C209      1.0  0.89023  0.60876  0.24987  1.0000
  H   H169      1.0  0.90137  0.62395  0.21645  1.0000
  H   H170      1.0  0.88394  0.59646  0.19576  1.0000
  H   H171      1.0  0.90714  0.59987  0.29340  1.0000
  C   C210      1.0  0.84472  0.57150  0.30753  1.0000
  H   H172      1.0  0.83679  0.56201  0.36730  1.0000
  H   H173      1.0  0.86950  0.56722  0.30169  1.0000
  H   H174      1.0  0.83291  0.56416  0.24885  1.0000
  C   C211      1.0  0.69527  0.39757  0.33981  1.0000
  C   C212      1.0  0.64489  0.36218  0.32743  1.0000
  C   C213      1.0  0.63982  0.38704  0.30428  1.0000
  C   C214      1.0  0.66401  0.40489  0.31776  1.0000
  C   C215      1.0  0.61166  0.39393  0.25063  1.0000
  H   H175      1.0  0.60050  0.37871  0.21752  1.0000
  H   H176      1.0  0.61812  0.40609  0.19623  1.0000
  H   H177      1.0  0.59471  0.40297  0.29359  1.0000
  C   C216      1.0  0.65705  0.43129  0.30850  1.0000
  H   H178      1.0  0.66466  0.44082  0.36852  1.0000
  H   H179      1.0  0.63232  0.43557  0.30147  1.0000
  H   H180      1.0  0.66920  0.43859  0.25028  1.0000
  C   C217      1.0  0.70005  0.63055  0.34964  1.0000
  C   C218      1.0  0.67576  0.64727  0.35371  1.0000
  H   H181      1.0  0.68183  0.66483  0.34125  1.0000
  H   H182      1.0  0.72155  0.63757  0.33453  1.0000
  C   C219      1.0  0.80165  0.37215  0.34964  1.0000
  C   C220      1.0  0.82599  0.35545  0.35302  1.0000
  H   H183      1.0  0.81988  0.33786  0.34135  1.0000
  H   H184      1.0  0.78007  0.36510  0.33575  1.0000
  C   C221      1.0  0.64400  0.24198  0.27523  1.0000
  C   C222      1.0  0.63763  0.26675  0.27861  1.0000
  H   H185      1.0  0.64541  0.27743  0.22727  1.0000
  H   H186      1.0  0.65675  0.23559  0.22224  1.0000
  C   C223      1.0  0.85785  0.76080  0.27549  1.0000
  C   C224      1.0  0.86422  0.73603  0.27855  1.0000
  H   H187      1.0  0.85640  0.72540  0.22712  1.0000
  H   H188      1.0  0.84505  0.76724  0.22264  1.0000
  C   C225      1.0  0.86976  0.22617  0.35010  1.0000
  C   C226      1.0  0.88221  0.27672  0.34083  1.0000
  C   C227      1.0  0.89404  0.26099  0.27281  1.0000
  C   C228      1.0  0.88786  0.23550  0.27756  1.0000
  C   C229      1.0  0.91162  0.27106  0.19431  1.0000
  H   H189      1.0  0.91280  0.29068  0.19253  1.0000
  H   H190      1.0  0.90025  0.26579  0.13206  1.0000
  H   H191      1.0  0.93557  0.26422  0.19449  1.0000
  C   C230      1.0  0.89949  0.21920  0.20467  1.0000
  H   H192      1.0  0.89341  0.20028  0.21284  1.0000
  H   H193      1.0  0.92496  0.22018  0.20088  1.0000
  H   H194      1.0  0.88959  0.22470  0.14063  1.0000
  C   C231      1.0  0.63204  0.77655  0.34980  1.0000
  C   C232      1.0  0.61960  0.72598  0.34120  1.0000
  C   C233      1.0  0.60789  0.74164  0.27276  1.0000
  C   C234      1.0  0.61405  0.76714  0.27719  1.0000
  C   C235      1.0  0.59045  0.73148  0.19417  1.0000
  H   H195      1.0  0.58928  0.71185  0.19267  1.0000
  H   H196      1.0  0.60193  0.73668  0.13200  1.0000
  H   H197      1.0  0.56650  0.73831  0.19390  1.0000
  C   C236      1.0  0.60254  0.78335  0.20388  1.0000
  H   H198      1.0  0.60859  0.80228  0.21188  1.0000
  H   H199      1.0  0.57708  0.78235  0.19973  1.0000
  H   H200      1.0  0.61256  0.77779  0.14008  1.0000
  C   C237      1.0  0.50123  0.97545  0.32917  1.0000
  C   C238      1.0  0.50050  0.02721  0.32684  1.0000
  C   C239      1.0  0.51540  0.01419  0.25595  1.0000
  C   C240      1.0  0.51606  0.98820  0.25758  1.0000
  C   C241      1.0  0.52896  0.02735  0.17729  1.0000
  H   H201      1.0  0.52537  0.04678  0.17814  1.0000
  H   H202      1.0  0.51809  0.02105  0.11561  1.0000
  H   H203      1.0  0.55412  0.02413  0.17381  1.0000
  C   C242      1.0  0.53118  0.97466  0.18215  1.0000
  H   H204      1.0  0.52985  0.95511  0.18755  1.0000
  H   H205      1.0  0.55592  0.97941  0.17822  1.0000
  H   H206      1.0  0.01986  0.97924  0.11908  1.0000
  C   C243      1.0  0.75129  0.47545  0.32990  1.0000
  C   C244      1.0  0.75044  0.52720  0.32756  1.0000
  C   C245      1.0  0.76529  0.51420  0.25654  1.0000
  C   C246      1.0  0.76601  0.48821  0.25818  1.0000
  C   C247      1.0  0.77872  0.52738  0.17773  1.0000
  H   H207      1.0  0.77506  0.54680  0.17857  1.0000
  H   H208      1.0  0.76782  0.52104  0.11616  1.0000
  H   H209      1.0  0.80389  0.52421  0.17405  1.0000
  C   C248      1.0  0.78110  0.47469  0.18266  1.0000
  H   H210      1.0  0.77986  0.45514  0.18814  1.0000
  H   H211      1.0  0.80583  0.47949  0.17850  1.0000
  H   H212      1.0  0.76969  0.47923  0.11968  1.0000
  C   C249      1.0  0.68379  0.17314  0.33092  1.0000
  N   N37       1.0  0.66187  0.15516  0.32901  1.0000
  C   C250      1.0  0.63026  0.15912  0.32605  1.0000
  N   N38       1.0  0.62107  0.18276  0.32942  1.0000
  C   C251      1.0  0.64138  0.20148  0.33284  1.0000
  N   N39       1.0  0.67207  0.19597  0.33313  1.0000
  C   C252      1.0  0.81803  0.82958  0.33158  1.0000
  N   N40       1.0  0.83993  0.84757  0.33003  1.0000
  C   C253      1.0  0.87155  0.84363  0.32736  1.0000
  N   N41       1.0  0.88077  0.82000  0.33050  1.0000
  C   C254      1.0  0.86047  0.80126  0.33355  1.0000
  N   N42       1.0  0.82978  0.80675  0.33363  1.0000
  C   C255      1.0  0.81798  0.17359  0.36430  1.0000
  N   N43       1.0  0.83963  0.15539  0.37032  1.0000
  C   C256      1.0  0.87139  0.15919  0.37189  1.0000
  N   N44       1.0  0.88070  0.18278  0.36561  1.0000
  C   C257      1.0  0.86069  0.20162  0.35914  1.0000
  N   N45       1.0  0.83000  0.19625  0.35865  1.0000
  C   C258      1.0  0.68382  0.82912  0.36385  1.0000
  N   N46       1.0  0.66217  0.84734  0.36942  1.0000
  C   C259      1.0  0.63041  0.84355  0.37071  1.0000
  N   N47       1.0  0.62109  0.81996  0.36458  1.0000
  C   C260      1.0  0.64111  0.80111  0.35852  1.0000
  N   N48       1.0  0.67180  0.80646  0.35835  1.0000
  C   C261      1.0  0.93345  0.67323  0.33315  1.0000
  N   N49       1.0  0.91147  0.65531  0.33031  1.0000
  C   C262      1.0  0.87985  0.65936  0.32832  1.0000
  N   N50       1.0  0.87072  0.68300  0.33405  1.0000
  C   C263      1.0  0.89115  0.70160  0.33958  1.0000
  N   N51       1.0  0.92180  0.69604  0.33780  1.0000
  C   C264      1.0  0.56838  0.32946  0.33381  1.0000
  N   N52       1.0  0.59034  0.34740  0.33135  1.0000
  C   C265      1.0  0.62196  0.34337  0.32960  1.0000
  N   N53       1.0  0.63113  0.31974  0.33507  1.0000
  C   C266      1.0  0.61072  0.30112  0.34016  1.0000
  N   N54       1.0  0.58005  0.30665  0.33826  1.0000
  C   C267      1.0  0.56784  0.67349  0.36081  1.0000
  N   N55       1.0  0.58955  0.65537  0.36849  1.0000
  C   C268      1.0  0.62131  0.65923  0.36952  1.0000
  N   N56       1.0  0.63059  0.68276  0.36031  1.0000
  C   C269      1.0  0.61051  0.70146  0.35073  1.0000
  N   N57       1.0  0.57986  0.69607  0.35237  1.0000
  C   C270      1.0  0.93398  0.32921  0.36048  1.0000
  N   N58       1.0  0.91227  0.34735  0.36755  1.0000
  C   C271      1.0  0.88050  0.34351  0.36816  1.0000
  N   N59       1.0  0.87122  0.31998  0.35912  1.0000
  C   C272      1.0  0.89130  0.30126  0.35010  1.0000
  N   N60       1.0  0.92195  0.30662  0.35218  1.0000
  C   C273      1.0  0.52941  0.09006  0.34061  1.0000
  N   N61       1.0  0.52804  0.06556  0.33314  1.0000
  C   C274      1.0  0.50061  0.05290  0.33510  1.0000
  N   N62       1.0  0.97336  0.06556  0.34487  1.0000
  C   C275      1.0  0.97241  0.09013  0.35028  1.0000
  N   N63       1.0  0.50099  0.10075  0.34809  1.0000
  C   C276      1.0  0.97225  0.91276  0.34306  1.0000
  N   N64       1.0  0.97360  0.93728  0.33615  1.0000
  C   C277      1.0  0.00110  0.94984  0.33803  1.0000
  N   N65       1.0  0.52837  0.93715  0.34624  1.0000
  C   C278      1.0  0.52928  0.91257  0.35103  1.0000
  N   N66       1.0  0.00067  0.90200  0.34948  1.0000
  C   C279      1.0  0.77923  0.59009  0.34089  1.0000
  N   N67       1.0  0.77791  0.56558  0.33356  1.0000
  C   C280      1.0  0.75050  0.55289  0.33577  1.0000
  N   N68       1.0  0.72322  0.56551  0.34567  1.0000
  C   C281      1.0  0.72225  0.59009  0.35093  1.0000
  N   N69       1.0  0.75081  0.60073  0.34849  1.0000
  C   C282      1.0  0.72243  0.41273  0.34323  1.0000
  N   N70       1.0  0.72372  0.43726  0.33655  1.0000
  C   C283      1.0  0.75120  0.44984  0.33871  1.0000
  N   N71       1.0  0.77850  0.43719  0.34695  1.0000
  C   C284      1.0  0.77944  0.41261  0.35153  1.0000
  N   N72       1.0  0.75086  0.40201  0.34974  1.0000
  C   C285      1.0  0.78472  0.17104  0.35895  1.0000
  C   C286      1.0  0.71700  0.17034  0.33683  1.0000
  C   C287      1.0  0.73378  0.14884  0.36063  1.0000
  C   C288      1.0  0.76684  0.14988  0.37955  1.0000
  C   C289      1.0  0.71664  0.12536  0.36424  1.0000
  H   H213      1.0  0.70501  0.12252  0.30034  1.0000
  H   H214      1.0  0.69943  0.12558  0.41813  1.0000
  H   H215      1.0  0.73151  0.10961  0.37357  1.0000
  C   C290      1.0  0.78109  0.13066  0.43652  1.0000
  H   H216      1.0  0.80009  0.13753  0.47777  1.0000
  H   H217      1.0  0.78955  0.11605  0.39425  1.0000
  H   H218      1.0  0.76427  0.12340  0.48439  1.0000
  C   C291      1.0  0.71709  0.83166  0.35892  1.0000
  C   C292      1.0  0.78482  0.83237  0.33730  1.0000
  C   C293      1.0  0.76803  0.85386  0.36111  1.0000
  C   C294      1.0  0.73495  0.85282  0.37980  1.0000
  C   C295      1.0  0.78519  0.87733  0.36531  1.0000
  H   H219      1.0  0.79686  0.88026  0.30155  1.0000
  H   H220      1.0  0.80236  0.87702  0.41930  1.0000
  H   H221      1.0  0.77033  0.89308  0.37494  1.0000
  C   C296      1.0  0.72071  0.87199  0.43700  1.0000
  H   H222      1.0  0.70139  0.86523  0.47720  1.0000
  H   H223      1.0  0.71275  0.88684  0.39506  1.0000
  H   H224      1.0  0.73746  0.87891  0.48580  1.0000
  C   C297      1.0  0.53453  0.67099  0.35660  1.0000
  C   C298      1.0  0.96668  0.67042  0.33760  1.0000
  C   C299      1.0  0.98357  0.64881  0.35891  1.0000
  C   C300      1.0  0.51671  0.64976  0.37673  1.0000
  C   C301      1.0  0.96656  0.62526  0.35984  1.0000
  H   H225      1.0  0.95460  0.62308  0.29611  1.0000
  H   H226      1.0  0.94965  0.62484  0.41450  1.0000
  H   H227      1.0  0.98159  0.60947  0.36596  1.0000
  C   C302      1.0  0.53145  0.63022  0.43102  1.0000
  H   H228      1.0  0.54929  0.63736  0.47577  1.0000
  H   H229      1.0  0.54159  0.61678  0.38651  1.0000
  H   H230      1.0  0.51474  0.62139  0.47540  1.0000
  C   C303      1.0  0.96730  0.33168  0.35679  1.0000
  C   C304      1.0  0.53516  0.33227  0.33813  1.0000
  C   C305      1.0  0.51826  0.35386  0.35970  1.0000
  C   C306      1.0  0.98511  0.35289  0.37732  1.0000
  C   C307      1.0  0.53531  0.37739  0.36172  1.0000
  H   H231      1.0  0.54727  0.37978  0.29809  1.0000
  H   H232      1.0  0.55223  0.37760  0.41638  1.0000
  H   H233      1.0  0.52033  0.39317  0.36869  1.0000
  C   C308      1.0  0.97049  0.37235  0.43227  1.0000
  H   H234      1.0  0.95197  0.36538  0.47507  1.0000
  H   H235      1.0  0.96129  0.38632  0.38833  1.0000
  H   H236      1.0  0.98716  0.38049  0.47859  1.0000
  C   C309      1.0  0.55225  0.13013  0.35359  1.0000
  C   C310      1.0  0.57651  0.14687  0.34952  1.0000
  H   H237      1.0  0.57088  0.16423  0.36656  1.0000
  H   H238      1.0  0.53101  0.13694  0.37251  1.0000
  C   C311      1.0  0.94940  0.87271  0.35655  1.0000
  C   C312      1.0  0.92517  0.85596  0.35210  1.0000
  H   H239      1.0  0.93077  0.83861  0.36953  1.0000
  H   H240      1.0  0.97059  0.86595  0.37617  1.0000
  C   C313      1.0  0.94537  0.10533  0.35793  1.0000
  C   C314      1.0  0.89458  0.14047  0.37329  1.0000
  C   C315      1.0  0.88934  0.11518  0.38815  1.0000
  C   C316      1.0  0.91372  0.09764  0.37225  1.0000
  C   C317      1.0  0.86017  0.10746  0.43500  1.0000
  H   H241      1.0  0.85167  0.12143  0.48009  1.0000
  H   H242      1.0  0.86400  0.09185  0.47811  1.0000
  H   H243      1.0  0.84232  0.10303  0.38571  1.0000
  C   C318      1.0  0.90624  0.07125  0.36791  1.0000
  H   H244      1.0  0.91508  0.06370  0.30548  1.0000
  H   H245      1.0  0.88131  0.06717  0.36796  1.0000
  H   H246      1.0  0.91692  0.06188  0.42438  1.0000
  C   C319      1.0  0.55635  0.89739  0.35750  1.0000
  C   C320      1.0  0.60723  0.86229  0.37177  1.0000
  C   C321      1.0  0.61251  0.88761  0.38577  1.0000
  C   C322      1.0  0.58808  0.90510  0.37019  1.0000
  C   C323      1.0  0.64192  0.89541  0.43112  1.0000
  H   H247      1.0  0.65002  0.88177  0.47824  1.0000
  H   H248      1.0  0.63871  0.91155  0.47182  1.0000
  H   H249      1.0  0.65983  0.89893  0.38100  1.0000
  C   C324      1.0  0.59562  0.93145  0.36366  1.0000
  H   H250      1.0  0.58618  0.93877  0.30155  1.0000
  H   H251      1.0  0.62056  0.93543  0.36129  1.0000
  H   H252      1.0  0.58557  0.94110  0.42045  1.0000
  C   C325      1.0  0.80190  0.63020  0.35444  1.0000
  C   C326      1.0  0.82610  0.64699  0.35080  1.0000
  H   H253      1.0  0.82040  0.66431  0.36841  1.0000
  H   H254      1.0  0.78065  0.63692  0.37376  1.0000
  C   C327      1.0  0.69975  0.37264  0.35739  1.0000
  C   C328      1.0  0.67559  0.35582  0.35339  1.0000
  H   H255      1.0  0.68124  0.33853  0.37144  1.0000
  H   H256      1.0  0.72094  0.36597  0.37743  1.0000
  C   C329      1.0  0.69525  0.60532  0.35859  1.0000
  C   C330      1.0  0.64455  0.64056  0.37289  1.0000
  C   C331      1.0  0.63942  0.61539  0.39058  1.0000
  C   C332      1.0  0.66370  0.59774  0.37523  1.0000
  C   C333      1.0  0.61074  0.60794  0.44037  1.0000
  H   H257      1.0  0.60135  0.62256  0.48092  1.0000
  H   H258      1.0  0.61571  0.59358  0.48826  1.0000
  H   H259      1.0  0.59312  0.60164  0.39323  1.0000
  C   C334      1.0  0.65635  0.57129  0.37538  1.0000
  H   H260      1.0  0.66437  0.56316  0.31303  1.0000
  H   H261      1.0  0.63150  0.56711  0.37908  1.0000
  H   H262      1.0  0.66791  0.56253  0.43178  1.0000
  C   C335      1.0  0.80647  0.39739  0.35797  1.0000
  C   C336      1.0  0.85727  0.36220  0.37112  1.0000
  C   C337      1.0  0.86247  0.38741  0.38779  1.0000
  C   C338      1.0  0.83812  0.40502  0.37274  1.0000
  C   C339      1.0  0.89143  0.39496  0.43598  1.0000
  H   H263      1.0  0.90022  0.38066  0.47915  1.0000
  H   H264      1.0  0.88717  0.41006  0.48119  1.0000
  H   H265      1.0  0.90921  0.40016  0.38754  1.0000
  C   C340      1.0  0.84559  0.43143  0.37029  1.0000
  H   H266      1.0  0.83689  0.43928  0.30818  1.0000
  H   H267      1.0  0.87051  0.43551  0.37119  1.0000
  H   H268      1.0  0.83477  0.44052  0.42715  1.0000
  C   C341      1.0  0.63239  0.22606  0.34104  1.0000
  C   C342      1.0  0.61964  0.27656  0.34862  1.0000
  C   C343      1.0  0.60878  0.26109  0.41872  1.0000
  C   C344      1.0  0.61518  0.23563  0.41495  1.0000
  C   C345      1.0  0.59196  0.27141  0.49814  1.0000
  H   H269      1.0  0.59028  0.29101  0.49850  1.0000
  H   H270      1.0  0.60421  0.26665  0.55960  1.0000
  H   H271      1.0  0.56818  0.26425  0.50093  1.0000
  C   C346      1.0  0.60481  0.21964  0.49032  1.0000
  H   H272      1.0  0.61115  0.20074  0.48311  1.0000
  H   H273      1.0  0.57939  0.22037  0.49670  1.0000
  H   H274      1.0  0.61541  0.22563  0.55280  1.0000
  C   C347      1.0  0.86949  0.77667  0.34143  1.0000
  C   C348      1.0  0.88225  0.72617  0.34834  1.0000
  C   C349      1.0  0.89316  0.74157  0.41856  1.0000
  C   C350      1.0  0.88675  0.76704  0.41511  1.0000
  C   C351      1.0  0.91003  0.73120  0.49779  1.0000
  H   H275      1.0  0.91168  0.71159  0.49798  1.0000
  H   H276      1.0  0.89782  0.73591  0.55936  1.0000
  H   H277      1.0  0.93381  0.73833  0.50051  1.0000
  C   C352      1.0  0.89719  0.78296  0.49061  1.0000
  H   H278      1.0  0.89084  0.80187  0.48368  1.0000
  H   H279      1.0  0.92261  0.78223  0.49683  1.0000
  H   H280      1.0  0.88663  0.77692  0.55309  1.0000
  C   C353      1.0  0.85713  0.24236  0.41348  1.0000
  C   C354      1.0  0.86335  0.26713  0.40932  1.0000
  H   H281      1.0  0.85489  0.27795  0.45937  1.0000
  H   H282      1.0  0.84375  0.23617  0.46553  1.0000
  C   C355      1.0  0.64455  0.76044  0.41366  1.0000
  C   C356      1.0  0.63833  0.73567  0.40982  1.0000
  H   H283      1.0  0.64670  0.72490  0.46016  1.0000
  H   H284      1.0  0.65784  0.76670  0.46580  1.0000
  C   C357      1.0  0.98529  0.98875  0.39548  1.0000
  C   C358      1.0  0.98507  0.01405  0.39457  1.0000
  H   H285      1.0  0.97413  0.02284  0.44613  1.0000
  H   H286      1.0  0.97440  0.98008  0.44742  1.0000
  C   C359      1.0  0.73540  0.48872  0.39637  1.0000
  C   C360      1.0  0.73512  0.51403  0.39546  1.0000
  H   H287      1.0  0.72422  0.52280  0.44711  1.0000
  H   H288      1.0  0.72458  0.48004  0.44840  1.0000
