data_image0
_chemical_formula_structural       C8H3NO2C8H3NO2C8H3NO2C2HC2HC2H4C2HC2HC2H4C2HC2HC2H4C8H3NO2C8H3NO2C8H3NO2C8H3NO2C8H3NO2C8H3NO2C2HC2HC2H4C2HC2HC2H4C2HC2HC2H4C2HC2HC2H4C2HC2HC2H4C2HC2HC2H4C8H3NO2C8H3NO2C8H3NO2C8H3NO2C8H3NO2C8H3NO2C6H3C6H3C6H3C6H3C6H3C6H3C6H3C6H3C6H3C6H3C6H3C6H3C6H3C6H3C6H3C6H3C2HC2HC2H4C2HC2HC2H4C2HC2HC2H4C8H3NO2C8H3NO2C8H3NO2C2HC2HC2H4C2HC2HC2H4C2HC2HC2H4C2HC2HC2H4C2HC2HC2H4C2HC2HC2H4C8H3NO2C8H3NO2C8H3NO2C8H3NO2C8H3NO2C8H3NO2C2HC2HC2H4C2HC2HC2H4C2HC2HC2H4C2HC2HC2H4C2HC2HC2H4C2HC2HC2H4
_chemical_formula_sum              "C432 H264 N24 O48"
_cell_length_a       63.5716
_cell_length_b       63.5716
_cell_length_c       14.9104
_cell_angle_alpha    90
_cell_angle_beta     90
_cell_angle_gamma    120

_space_group_name_H-M_alt    "P 1"
_space_group_IT_number       1

loop_
  _space_group_symop_operation_xyz
  'x, y, z'

loop_
  _atom_site_type_symbol
  _atom_site_label
  _atom_site_symmetry_multiplicity
  _atom_site_fract_x
  _atom_site_fract_y
  _atom_site_fract_z
  _atom_site_occupancy
  C   C1        1.0  0.00401  0.16281  0.33461  1.0000
  C   C2        1.0  0.99439  0.14733  0.25967  1.0000
  C   C3        1.0  0.99406  0.12485  0.25362  1.0000
  C   C4        1.0  0.00243  0.11639  0.32673  1.0000
  C   C5        1.0  0.00251  0.09339  0.32772  1.0000
  C   C6        1.0  0.98543  0.07223  0.28089  1.0000
  C   C7        1.0  0.98595  0.05032  0.28406  1.0000
  C   C8        1.0  0.00320  0.04785  0.33628  1.0000
  H   H1        1.0  0.97162  0.07206  0.24563  1.0000
  H   H2        1.0  0.97349  0.03604  0.24650  1.0000
  H   H3        1.0  0.98827  0.15293  0.20632  1.0000
  N   N1        1.0  0.98701  0.11195  0.17149  1.0000
  O   O1        1.0  0.96563  0.10606  0.14995  1.0000
  O   O2        1.0  0.00104  0.12390  0.10838  1.0000
  C   C9        1.0  0.84472  0.84269  0.33461  1.0000
  C   C10       1.0  0.86020  0.84854  0.25972  1.0000
  C   C11       1.0  0.88268  0.87071  0.25364  1.0000
  C   C12       1.0  0.89113  0.88754  0.32673  1.0000
  C   C13       1.0  0.91412  0.91061  0.32770  1.0000
  C   C14       1.0  0.93527  0.91470  0.28084  1.0000
  C   C15       1.0  0.95720  0.93714  0.28407  1.0000
  C   C16       1.0  0.95966  0.95685  0.33628  1.0000
  H   H4        1.0  0.93546  0.90106  0.24568  1.0000
  H   H5        1.0  0.97147  0.93895  0.24653  1.0000
  H   H6        1.0  0.85459  0.83683  0.20634  1.0000
  N   N2        1.0  0.89557  0.87655  0.17151  1.0000
  O   O3        1.0  0.90148  0.86107  0.14998  1.0000
  O   O4        1.0  0.88361  0.87861  0.10838  1.0000
  C   C17       1.0  0.16482  0.00353  0.33464  1.0000
  C   C18       1.0  0.15897  0.01316  0.25973  1.0000
  C   C19       1.0  0.13679  0.01346  0.25365  1.0000
  C   C20       1.0  0.11995  0.00506  0.32670  1.0000
  C   C21       1.0  0.09689  0.00500  0.32771  1.0000
  C   C22       1.0  0.09280  0.02206  0.28083  1.0000
  C   C23       1.0  0.07037  0.02156  0.28407  1.0000
  C   C24       1.0  0.05066  0.00431  0.33630  1.0000
  H   H7        1.0  0.10644  0.03589  0.24564  1.0000
  H   H8        1.0  0.06856  0.03402  0.24650  1.0000
  H   H9        1.0  0.17068  0.01927  0.20636  1.0000
  N   N3        1.0  0.13095  0.02050  0.17149  1.0000
  O   O5        1.0  0.14643  0.04189  0.14995  1.0000
  O   O6        1.0  0.12890  0.00648  0.10839  1.0000
  C   C25       1.0  0.11488  0.34216  0.26790  1.0000
  C   C26       1.0  0.13263  0.36714  0.26748  1.0000
  H   H10       1.0  0.13662  0.37684  0.20899  1.0000
  C   C27       1.0  0.05194  0.27132  0.27258  1.0000
  C   C28       1.0  0.07190  0.29530  0.27500  1.0000
  H   H11       1.0  0.03905  0.26673  0.22369  1.0000
  C   C29       1.0  0.07434  0.31295  0.20438  1.0000
  C   C30       1.0  0.10148  0.33060  0.18356  1.0000
  H   H12       1.0  0.06581  0.32318  0.22817  1.0000
  H   H13       1.0  0.06528  0.30371  0.14225  1.0000
  H   H14       1.0  0.10277  0.34403  0.13471  1.0000
  H   H15       1.0  0.10947  0.32054  0.15326  1.0000
  C   C31       1.0  0.66537  0.77423  0.26791  1.0000
  C   C32       1.0  0.64039  0.76700  0.26748  1.0000
  H   H16       1.0  0.63069  0.76129  0.20898  1.0000
  C   C33       1.0  0.73620  0.78212  0.27258  1.0000
  C   C34       1.0  0.71222  0.77809  0.27502  1.0000
  H   H17       1.0  0.74079  0.77381  0.22371  1.0000
  C   C35       1.0  0.69457  0.76289  0.20440  1.0000
  C   C36       1.0  0.67692  0.77238  0.18358  1.0000
  H   H18       1.0  0.68433  0.74412  0.22820  1.0000
  H   H19       1.0  0.70381  0.76307  0.14228  1.0000
  H   H20       1.0  0.66349  0.76025  0.13471  1.0000
  H   H21       1.0  0.68699  0.79044  0.15328  1.0000
  C   C37       1.0  0.23325  0.89263  0.26788  1.0000
  C   C38       1.0  0.24048  0.87487  0.26746  1.0000
  H   H22       1.0  0.24620  0.87089  0.20896  1.0000
  C   C39       1.0  0.22537  0.95557  0.27257  1.0000
  C   C40       1.0  0.22939  0.93561  0.27499  1.0000
  H   H23       1.0  0.23368  0.96847  0.22370  1.0000
  C   C41       1.0  0.24459  0.93316  0.20435  1.0000
  C   C42       1.0  0.23509  0.90602  0.18354  1.0000
  H   H24       1.0  0.26336  0.94169  0.22812  1.0000
  H   H25       1.0  0.24440  0.94222  0.14222  1.0000
  H   H26       1.0  0.24721  0.90472  0.13465  1.0000
  H   H27       1.0  0.21703  0.89803  0.15329  1.0000
  C   C43       1.0  0.38071  0.14344  0.33117  1.0000
  C   C44       1.0  0.36715  0.13725  0.25116  1.0000
  C   C45       1.0  0.34222  0.11909  0.24881  1.0000
  C   C46       1.0  0.32986  0.10723  0.32959  1.0000
  C   C47       1.0  0.30462  0.08777  0.33343  1.0000
  C   C48       1.0  0.28612  0.08586  0.27486  1.0000
  C   C49       1.0  0.26215  0.06606  0.27862  1.0000
  C   C50       1.0  0.25546  0.04732  0.34223  1.0000
  H   H28       1.0  0.28967  0.09909  0.22885  1.0000
  H   H29       1.0  0.24983  0.06496  0.23198  1.0000
  H   H30       1.0  0.37576  0.14542  0.19252  1.0000
  N   N4        1.0  0.33052  0.11169  0.16444  1.0000
  O   O7        1.0  0.33047  0.12893  0.12326  1.0000
  O   O8        1.0  0.34013  0.10275  0.11522  1.0000
  C   C51       1.0  0.76872  0.62679  0.33117  1.0000
  C   C52       1.0  0.77609  0.64035  0.25116  1.0000
  C   C53       1.0  0.78288  0.66529  0.24881  1.0000
  C   C54       1.0  0.78339  0.67765  0.32959  1.0000
  C   C55       1.0  0.78916  0.70288  0.33343  1.0000
  C   C56       1.0  0.80576  0.72139  0.27490  1.0000
  C   C57       1.0  0.80992  0.74536  0.27861  1.0000
  C   C58       1.0  0.79787  0.75205  0.34223  1.0000
  H   H31       1.0  0.81544  0.71784  0.22889  1.0000
  H   H32       1.0  0.82115  0.75767  0.23201  1.0000
  H   H33       1.0  0.77568  0.63175  0.19254  1.0000
  N   N5        1.0  0.78721  0.67699  0.16446  1.0000
  O   O9        1.0  0.80450  0.67704  0.12332  1.0000
  O   O10       1.0  0.76867  0.66740  0.11520  1.0000
  C   C59       1.0  0.86409  0.23878  0.33121  1.0000
  C   C60       1.0  0.87029  0.23142  0.25118  1.0000
  C   C61       1.0  0.88843  0.22463  0.24883  1.0000
  C   C62       1.0  0.90026  0.22409  0.32962  1.0000
  C   C63       1.0  0.91974  0.21834  0.33343  1.0000
  C   C64       1.0  0.92165  0.20174  0.27490  1.0000
  C   C65       1.0  0.94147  0.19761  0.27857  1.0000
  C   C66       1.0  0.96021  0.20965  0.34221  1.0000
  H   H34       1.0  0.90841  0.19206  0.22892  1.0000
  H   H35       1.0  0.94254  0.18635  0.23203  1.0000
  H   H36       1.0  0.86210  0.23184  0.19256  1.0000
  N   N6        1.0  0.89581  0.22030  0.16448  1.0000
  O   O11       1.0  0.87855  0.20301  0.12333  1.0000
  O   O12       1.0  0.90476  0.23884  0.11524  1.0000
  C   C67       1.0  0.23043  0.44531  0.34367  1.0000
  C   C68       1.0  0.24132  0.44609  0.26066  1.0000
  C   C69       1.0  0.26692  0.45806  0.25074  1.0000
  C   C70       1.0  0.28230  0.46886  0.32682  1.0000
  C   C71       1.0  0.30863  0.48185  0.32301  1.0000
  C   C72       1.0  0.32183  0.47525  0.26405  1.0000
  C   C73       1.0  0.34734  0.48742  0.26460  1.0000
  C   C74       1.0  0.36096  0.50638  0.32601  1.0000
  H   H37       1.0  0.31314  0.46055  0.22284  1.0000
  H   H38       1.0  0.35590  0.48184  0.22047  1.0000
  H   H39       1.0  0.23057  0.43916  0.20497  1.0000
  N   N7        1.0  0.27679  0.46105  0.16334  1.0000
  O   O13       1.0  0.27019  0.44100  0.12564  1.0000
  O   O14       1.0  0.27119  0.47355  0.11406  1.0000
  C   C75       1.0  0.56223  0.78664  0.34374  1.0000
  C   C76       1.0  0.56146  0.79677  0.26075  1.0000
  C   C77       1.0  0.54946  0.81038  0.25081  1.0000
  C   C78       1.0  0.53863  0.81492  0.32685  1.0000
  C   C79       1.0  0.52565  0.82827  0.32308  1.0000
  C   C80       1.0  0.53226  0.84808  0.26414  1.0000
  C   C81       1.0  0.52010  0.86143  0.26470  1.0000
  C   C82       1.0  0.50114  0.85610  0.32612  1.0000
  H   H40       1.0  0.54695  0.85408  0.22293  1.0000
  H   H41       1.0  0.52568  0.87557  0.22057  1.0000
  H   H42       1.0  0.56837  0.79294  0.20505  1.0000
  N   N8        1.0  0.54646  0.81724  0.16340  1.0000
  O   O15       1.0  0.56651  0.83071  0.12569  1.0000
  O   O16       1.0  0.53398  0.79914  0.11412  1.0000
  C   C83       1.0  0.22091  0.77711  0.34354  1.0000
  C   C84       1.0  0.21077  0.76619  0.26058  1.0000
  C   C85       1.0  0.19715  0.74059  0.25071  1.0000
  C   C86       1.0  0.19260  0.72522  0.32678  1.0000
  C   C87       1.0  0.17924  0.69889  0.32307  1.0000
  C   C88       1.0  0.15940  0.68569  0.26422  1.0000
  C   C89       1.0  0.14606  0.66018  0.26473  1.0000
  C   C90       1.0  0.15140  0.64656  0.32616  1.0000
  H   H43       1.0  0.15343  0.69439  0.22289  1.0000
  H   H44       1.0  0.13194  0.65162  0.22057  1.0000
  H   H45       1.0  0.21458  0.77695  0.20490  1.0000
  N   N9        1.0  0.19025  0.73072  0.16332  1.0000
  O   O17       1.0  0.17679  0.73731  0.12566  1.0000
  O   O18       1.0  0.20834  0.73631  0.11398  1.0000
  C   C91       1.0  0.47015  0.26961  0.26400  1.0000
  C   C92       1.0  0.45871  0.24406  0.25737  1.0000
  H   H46       1.0  0.45952  0.23627  0.19830  1.0000
  C   C93       1.0  0.51370  0.34660  0.28561  1.0000
  C   C94       1.0  0.50155  0.32088  0.28612  1.0000
  H   H47       1.0  0.52679  0.35594  0.23833  1.0000
  C   C95       1.0  0.50736  0.30770  0.21681  1.0000
  C   C96       1.0  0.48376  0.28486  0.18532  1.0000
  H   H48       1.0  0.51968  0.30224  0.24604  1.0000
  H   H49       1.0  0.51636  0.31914  0.15850  1.0000
  H   H50       1.0  0.48859  0.27488  0.13766  1.0000
  H   H51       1.0  0.47219  0.29041  0.15036  1.0000
  C   C97       1.0  0.80552  0.53740  0.26392  1.0000
  C   C98       1.0  0.79141  0.54885  0.25726  1.0000
  H   H52       1.0  0.78280  0.54803  0.19819  1.0000
  C   C99       1.0  0.83891  0.49382  0.28560  1.0000
  C   C100      1.0  0.82534  0.50597  0.28610  1.0000
  H   H53       1.0  0.83516  0.48073  0.23829  1.0000
  C   C101      1.0  0.80637  0.50018  0.21672  1.0000
  C   C102      1.0  0.80716  0.52380  0.18524  1.0000
  H   H54       1.0  0.78858  0.48787  0.24590  1.0000
  H   H55       1.0  0.80882  0.49118  0.15842  1.0000
  H   H56       1.0  0.79237  0.51898  0.13753  1.0000
  H   H57       1.0  0.82429  0.53536  0.15035  1.0000
  C   C103      1.0  0.73790  0.20203  0.26390  1.0000
  C   C104      1.0  0.76345  0.21614  0.25726  1.0000
  H   H58       1.0  0.77125  0.22476  0.19821  1.0000
  C   C105      1.0  0.66092  0.16861  0.28560  1.0000
  C   C106      1.0  0.68664  0.18219  0.28614  1.0000
  H   H59       1.0  0.65158  0.17238  0.23838  1.0000
  C   C107      1.0  0.69982  0.20119  0.21683  1.0000
  C   C108      1.0  0.72265  0.20041  0.18527  1.0000
  H   H60       1.0  0.70530  0.21897  0.24609  1.0000
  H   H61       1.0  0.68838  0.19876  0.15855  1.0000
  H   H62       1.0  0.73262  0.21522  0.13763  1.0000
  H   H63       1.0  0.71709  0.18329  0.15028  1.0000
  C   C109      1.0  0.14449  0.53057  0.28058  1.0000
  C   C110      1.0  0.13938  0.54973  0.27341  1.0000
  H   H64       1.0  0.13399  0.55315  0.21303  1.0000
  C   C111      1.0  0.14967  0.46645  0.30053  1.0000
  C   C112      1.0  0.14484  0.48592  0.30129  1.0000
  H   H65       1.0  0.14246  0.45370  0.25067  1.0000
  C   C113      1.0  0.13015  0.48825  0.22827  1.0000
  C   C114      1.0  0.14141  0.51525  0.20039  1.0000
  H   H66       1.0  0.11166  0.48150  0.25283  1.0000
  H   H67       1.0  0.12914  0.47758  0.16921  1.0000
  H   H68       1.0  0.12975  0.51665  0.14966  1.0000
  H   H69       1.0  0.15925  0.52151  0.17010  1.0000
  C   C115      1.0  0.47694  0.61544  0.28060  1.0000
  C   C116      1.0  0.45779  0.59117  0.27344  1.0000
  H   H70       1.0  0.45436  0.58237  0.21303  1.0000
  C   C117      1.0  0.54108  0.68474  0.30058  1.0000
  C   C118      1.0  0.52160  0.66044  0.30128  1.0000
  H   H71       1.0  0.55381  0.69029  0.25060  1.0000
  C   C119      1.0  0.51925  0.64343  0.22820  1.0000
  C   C120      1.0  0.49225  0.62770  0.20039  1.0000
  H   H72       1.0  0.52601  0.63168  0.25269  1.0000
  H   H73       1.0  0.52991  0.65309  0.16914  1.0000
  H   H74       1.0  0.49084  0.61464  0.14962  1.0000
  H   H75       1.0  0.48597  0.63927  0.17018  1.0000
  C   C121      1.0  0.39207  0.86301  0.28055  1.0000
  C   C122      1.0  0.41633  0.86812  0.27333  1.0000
  H   H76       1.0  0.42514  0.87352  0.21295  1.0000
  C   C123      1.0  0.32280  0.85790  0.30066  1.0000
  C   C124      1.0  0.34709  0.86271  0.30135  1.0000
  H   H77       1.0  0.31724  0.86507  0.25067  1.0000
  C   C125      1.0  0.36410  0.87736  0.22825  1.0000
  C   C126      1.0  0.37981  0.86607  0.20038  1.0000
  H   H78       1.0  0.37586  0.89586  0.25274  1.0000
  H   H79       1.0  0.35443  0.87837  0.16921  1.0000
  H   H80       1.0  0.39286  0.87771  0.14958  1.0000
  H   H81       1.0  0.36822  0.84823  0.17017  1.0000
  C   C127      1.0  0.56533  0.13925  0.33160  1.0000
  C   C128      1.0  0.55963  0.14540  0.24799  1.0000
  C   C129      1.0  0.54035  0.15036  0.23833  1.0000
  C   C130      1.0  0.52669  0.14997  0.31504  1.0000
  C   C131      1.0  0.50632  0.15421  0.31140  1.0000
  C   C132      1.0  0.50539  0.17093  0.25102  1.0000
  C   C133      1.0  0.48606  0.17567  0.25185  1.0000
  C   C134      1.0  0.46695  0.16438  0.31474  1.0000
  H   H82       1.0  0.51949  0.18108  0.20867  1.0000
  H   H83       1.0  0.48642  0.18807  0.20714  1.0000
  H   H84       1.0  0.56859  0.14474  0.19187  1.0000
  N   N10       1.0  0.53345  0.15325  0.15082  1.0000
  O   O19       1.0  0.55049  0.17088  0.11025  1.0000
  O   O20       1.0  0.52627  0.13442  0.10403  1.0000
  C   C135      1.0  0.57992  0.44219  0.33137  1.0000
  C   C136      1.0  0.59178  0.44789  0.24779  1.0000
  C   C137      1.0  0.61604  0.46716  0.23821  1.0000
  C   C138      1.0  0.62930  0.48080  0.31497  1.0000
  C   C139      1.0  0.65392  0.50117  0.31142  1.0000
  C   C140      1.0  0.67158  0.50208  0.25114  1.0000
  C   C141      1.0  0.69565  0.52143  0.25194  1.0000
  C   C142      1.0  0.70345  0.54053  0.31482  1.0000
  H   H85       1.0  0.66762  0.48801  0.20867  1.0000
  H   H86       1.0  0.70768  0.52108  0.20719  1.0000
  H   H87       1.0  0.58218  0.43892  0.19169  1.0000
  N   N11       1.0  0.62585  0.47406  0.15074  1.0000
  O   O21       1.0  0.62644  0.45701  0.11021  1.0000
  O   O22       1.0  0.61424  0.48126  0.10389  1.0000
  C   C143      1.0  0.86827  0.42759  0.33139  1.0000
  C   C144      1.0  0.86217  0.41574  0.24779  1.0000
  C   C145      1.0  0.85717  0.39148  0.23818  1.0000
  C   C146      1.0  0.85751  0.37820  0.31496  1.0000
  C   C147      1.0  0.85326  0.35358  0.31138  1.0000
  C   C148      1.0  0.83654  0.33593  0.25106  1.0000
  C   C149      1.0  0.83181  0.31186  0.25189  1.0000
  C   C150      1.0  0.84312  0.30406  0.31477  1.0000
  H   H88       1.0  0.82643  0.33989  0.20853  1.0000
  H   H89       1.0  0.81945  0.29983  0.20708  1.0000
  H   H90       1.0  0.86279  0.42534  0.19167  1.0000
  N   N12       1.0  0.85427  0.38167  0.15072  1.0000
  O   O23       1.0  0.83665  0.38110  0.11011  1.0000
  O   O24       1.0  0.87310  0.39328  0.10392  1.0000
  C   C151      1.0  0.06996  0.57432  0.33661  1.0000
  C   C152      1.0  0.05772  0.57391  0.25747  1.0000
  C   C153      1.0  0.03203  0.56176  0.25374  1.0000
  C   C154      1.0  0.01814  0.55071  0.33275  1.0000
  C   C155      1.0  0.99190  0.53704  0.33447  1.0000
  C   C156      1.0  0.97723  0.54306  0.28109  1.0000
  C   C157      1.0  0.95177  0.52904  0.28309  1.0000
  C   C158      1.0  0.93991  0.50873  0.34043  1.0000
  H   H91       1.0  0.98477  0.55814  0.24133  1.0000
  H   H92       1.0  0.94198  0.53361  0.24097  1.0000
  H   H93       1.0  0.06753  0.58141  0.20013  1.0000
  N   N13       1.0  0.02066  0.55901  0.16937  1.0000
  O   O25       1.0  0.02637  0.57916  0.13423  1.0000
  O   O26       1.0  0.02560  0.54691  0.11532  1.0000
  C   C159      1.0  0.43318  0.49713  0.33668  1.0000
  C   C160      1.0  0.43354  0.48526  0.25759  1.0000
  C   C161      1.0  0.44572  0.47176  0.25384  1.0000
  C   C162      1.0  0.45682  0.46896  0.33280  1.0000
  C   C163      1.0  0.47047  0.45637  0.33453  1.0000
  C   C164      1.0  0.46444  0.43567  0.28117  1.0000
  C   C165      1.0  0.47846  0.42423  0.28317  1.0000
  C   C166      1.0  0.49878  0.43269  0.34049  1.0000
  H   H94       1.0  0.44937  0.42814  0.24143  1.0000
  H   H95       1.0  0.47388  0.40986  0.24105  1.0000
  H   H96       1.0  0.42606  0.48759  0.20023  1.0000
  N   N14       1.0  0.44847  0.46314  0.16945  1.0000
  O   O27       1.0  0.42832  0.44868  0.13435  1.0000
  O   O28       1.0  0.46055  0.48018  0.11538  1.0000
  C   C167      1.0  0.51037  0.93756  0.33659  1.0000
  C   C168      1.0  0.52222  0.94980  0.25747  1.0000
  C   C169      1.0  0.53574  0.97548  0.25375  1.0000
  C   C170      1.0  0.53857  0.98937  0.33276  1.0000
  C   C171      1.0  0.55115  0.01561  0.33453  1.0000
  C   C172      1.0  0.57185  0.03028  0.28116  1.0000
  C   C173      1.0  0.58328  0.05575  0.28312  1.0000
  C   C174      1.0  0.57483  0.06760  0.34049  1.0000
  H   H97       1.0  0.57936  0.02274  0.24132  1.0000
  H   H98       1.0  0.59764  0.06553  0.24097  1.0000
  H   H99       1.0  0.51989  0.93999  0.20012  1.0000
  N   N15       1.0  0.54436  0.98686  0.16939  1.0000
  O   O29       1.0  0.55880  0.98115  0.13424  1.0000
  O   O30       1.0  0.52732  0.98191  0.11533  1.0000
  C   C175      1.0  0.00381  0.02534  0.33864  1.0000
  C   C176      1.0  0.02615  0.02533  0.33877  1.0000
  C   C177      1.0  0.02754  0.00370  0.33864  1.0000
  C   C178      1.0  0.00519  0.98136  0.33877  1.0000
  C   C179      1.0  0.98217  0.97997  0.33864  1.0000
  C   C180      1.0  0.98218  0.00232  0.33877  1.0000
  H   H100      1.0  0.00570  0.96554  0.33830  1.0000
  H   H101      1.0  0.96584  0.00181  0.33828  1.0000
  H   H102      1.0  0.04197  0.04167  0.33829  1.0000
  C   C181      1.0  0.02712  0.23055  0.33944  1.0000
  C   C182      1.0  0.00468  0.23014  0.34036  1.0000
  C   C183      1.0  0.98207  0.20831  0.33999  1.0000
  C   C184      1.0  0.98230  0.18614  0.33592  1.0000
  C   C185      1.0  0.00434  0.18555  0.33801  1.0000
  C   C186      1.0  0.02658  0.20798  0.34121  1.0000
  H   H103      1.0  0.96610  0.17012  0.33525  1.0000
  H   H104      1.0  0.04265  0.20790  0.33993  1.0000
  H   H105      1.0  0.00482  0.24634  0.34084  1.0000
  C   C187      1.0  0.77697  0.79806  0.33944  1.0000
  C   C188      1.0  0.77738  0.77603  0.34038  1.0000
  C   C189      1.0  0.79921  0.77526  0.33999  1.0000
  C   C190      1.0  0.82138  0.79765  0.33592  1.0000
  C   C191      1.0  0.82197  0.82028  0.33801  1.0000
  C   C192      1.0  0.79954  0.82010  0.34122  1.0000
  H   H106      1.0  0.83740  0.79747  0.33525  1.0000
  H   H107      1.0  0.79962  0.83624  0.33994  1.0000
  H   H108      1.0  0.76118  0.75997  0.34085  1.0000
  C   C193      1.0  0.20944  0.98040  0.33946  1.0000
  C   C194      1.0  0.23147  0.00284  0.34039  1.0000
  C   C195      1.0  0.23225  0.02545  0.34000  1.0000
  C   C196      1.0  0.20986  0.02523  0.33599  1.0000
  C   C197      1.0  0.18723  0.00319  0.33803  1.0000
  C   C198      1.0  0.18741  0.98095  0.34117  1.0000
  H   H109      1.0  0.21004  0.04143  0.33526  1.0000
  H   H110      1.0  0.17126  0.96488  0.33997  1.0000
  H   H111      1.0  0.24754  0.00270  0.34086  1.0000
  C   C199      1.0  0.17243  0.44699  0.35723  1.0000
  C   C200      1.0  0.19735  0.45410  0.35498  1.0000
  C   C201      1.0  0.20515  0.43692  0.34826  1.0000
  C   C202      1.0  0.18756  0.41198  0.34392  1.0000
  C   C203      1.0  0.16247  0.40422  0.34644  1.0000
  C   C204      1.0  0.15514  0.42188  0.35192  1.0000
  H   H112      1.0  0.19309  0.39939  0.33970  1.0000
  H   H113      1.0  0.13700  0.41634  0.35482  1.0000
  H   H114      1.0  0.21014  0.47223  0.35590  1.0000
  C   C205      1.0  0.56054  0.72696  0.35722  1.0000
  C   C206      1.0  0.55342  0.74476  0.35497  1.0000
  C   C207      1.0  0.57060  0.76974  0.34830  1.0000
  C   C208      1.0  0.59555  0.77709  0.34395  1.0000
  C   C209      1.0  0.60330  0.75976  0.34643  1.0000
  C   C210      1.0  0.58565  0.73477  0.35192  1.0000
  H   H115      1.0  0.60815  0.79522  0.33973  1.0000
  H   H116      1.0  0.59118  0.72217  0.35481  1.0000
  H   H117      1.0  0.53530  0.73943  0.35594  1.0000
  C   C211      1.0  0.28057  0.83512  0.35725  1.0000
  C   C212      1.0  0.26278  0.81019  0.35492  1.0000
  C   C213      1.0  0.23780  0.80238  0.34819  1.0000
  C   C214      1.0  0.23043  0.81996  0.34387  1.0000
  C   C215      1.0  0.24776  0.84505  0.34642  1.0000
  C   C216      1.0  0.27275  0.85240  0.35196  1.0000
  H   H118      1.0  0.21231  0.81443  0.33960  1.0000
  H   H119      1.0  0.28534  0.87054  0.35490  1.0000
  H   H120      1.0  0.26812  0.79741  0.35587  1.0000
  C   C217      1.0  0.44872  0.17120  0.32076  1.0000
  C   C218      1.0  0.45569  0.19610  0.32211  1.0000
  C   C219      1.0  0.43840  0.20378  0.32776  1.0000
  C   C220      1.0  0.41349  0.18610  0.33227  1.0000
  C   C221      1.0  0.40588  0.16104  0.33091  1.0000
  C   C222      1.0  0.42363  0.15383  0.32619  1.0000
  H   H121      1.0  0.40082  0.19154  0.33586  1.0000
  H   H122      1.0  0.41818  0.13570  0.32396  1.0000
  H   H123      1.0  0.47378  0.20896  0.32120  1.0000
  C   C223      1.0  0.72850  0.55878  0.32086  1.0000
  C   C224      1.0  0.74644  0.55182  0.32218  1.0000
  C   C225      1.0  0.77141  0.56912  0.32777  1.0000
  C   C226      1.0  0.77863  0.59403  0.33224  1.0000
  C   C227      1.0  0.76117  0.60163  0.33095  1.0000
  C   C228      1.0  0.73620  0.58386  0.32634  1.0000
  H   H124      1.0  0.79674  0.60671  0.33576  1.0000
  H   H125      1.0  0.72353  0.58930  0.32403  1.0000
  H   H126      1.0  0.74122  0.53373  0.32122  1.0000
  C   C229      1.0  0.83630  0.27901  0.32081  1.0000
  C   C230      1.0  0.81141  0.26108  0.32213  1.0000
  C   C231      1.0  0.80373  0.23611  0.32775  1.0000
  C   C232      1.0  0.82142  0.22888  0.33229  1.0000
  C   C233      1.0  0.84647  0.24633  0.33098  1.0000
  C   C234      1.0  0.85368  0.27130  0.32634  1.0000
  H   H127      1.0  0.81598  0.21077  0.33579  1.0000
  H   H128      1.0  0.87180  0.28398  0.32402  1.0000
  H   H129      1.0  0.79854  0.26630  0.32113  1.0000
  C   C235      1.0  0.09546  0.58467  0.33678  1.0000
  C   C236      1.0  0.10579  0.56963  0.34325  1.0000
  C   C237      1.0  0.13122  0.57966  0.34373  1.0000
  C   C238      1.0  0.14638  0.60518  0.33919  1.0000
  C   C239      1.0  0.13642  0.62072  0.33139  1.0000
  C   C240      1.0  0.11081  0.61001  0.33019  1.0000
  H   H130      1.0  0.16484  0.61242  0.33895  1.0000
  H   H131      1.0  0.10310  0.62082  0.32744  1.0000
  H   H132      1.0  0.09465  0.55115  0.34700  1.0000
  C   C241      1.0  0.42284  0.51229  0.33683  1.0000
  C   C242      1.0  0.43788  0.53767  0.34333  1.0000
  C   C243      1.0  0.42786  0.55307  0.34376  1.0000
  C   C244      1.0  0.40235  0.54273  0.33910  1.0000
  C   C245      1.0  0.38680  0.51723  0.33131  1.0000
  C   C246      1.0  0.39749  0.50231  0.33019  1.0000
  H   H133      1.0  0.39511  0.55395  0.33887  1.0000
  H   H134      1.0  0.38669  0.48380  0.32738  1.0000
  H   H135      1.0  0.45636  0.54500  0.34712  1.0000
  C   C247      1.0  0.49522  0.91206  0.33677  1.0000
  C   C248      1.0  0.46984  0.90173  0.34323  1.0000
  C   C249      1.0  0.45445  0.87630  0.34371  1.0000
  C   C250      1.0  0.46479  0.86113  0.33912  1.0000
  C   C251      1.0  0.49029  0.87109  0.33137  1.0000
  C   C252      1.0  0.50521  0.89670  0.33021  1.0000
  H   H136      1.0  0.45358  0.84267  0.33890  1.0000
  H   H137      1.0  0.52372  0.90441  0.32743  1.0000
  H   H138      1.0  0.46251  0.91287  0.34695  1.0000
  C   C253      1.0  0.58564  0.09336  0.34025  1.0000
  C   C254      1.0  0.57092  0.10417  0.33767  1.0000
  C   C255      1.0  0.58117  0.12962  0.33590  1.0000
  C   C256      1.0  0.60673  0.14456  0.33667  1.0000
  C   C257      1.0  0.62207  0.13435  0.34138  1.0000
  C   C258      1.0  0.61111  0.10871  0.34193  1.0000
  H   H139      1.0  0.61415  0.16305  0.33657  1.0000
  H   H140      1.0  0.62189  0.10098  0.34397  1.0000
  H   H141      1.0  0.55240  0.09333  0.33461  1.0000
  C   C259      1.0  0.51373  0.42188  0.34023  1.0000
  C   C260      1.0  0.53926  0.43660  0.33758  1.0000
  C   C261      1.0  0.55446  0.42635  0.33578  1.0000
  C   C262      1.0  0.54385  0.40079  0.33659  1.0000
  C   C263      1.0  0.51829  0.38545  0.34137  1.0000
  C   C264      1.0  0.50360  0.39641  0.34196  1.0000
  H   H142      1.0  0.55490  0.39337  0.33647  1.0000
  H   H143      1.0  0.48509  0.38563  0.34404  1.0000
  H   H144      1.0  0.54694  0.45512  0.33447  1.0000
  C   C265      1.0  0.91416  0.49378  0.34019  1.0000
  C   C266      1.0  0.90334  0.46825  0.33756  1.0000
  C   C267      1.0  0.87789  0.45305  0.33577  1.0000
  C   C268      1.0  0.86295  0.46366  0.33661  1.0000
  C   C269      1.0  0.87317  0.48922  0.34137  1.0000
  C   C270      1.0  0.89881  0.50390  0.34194  1.0000
  H   H145      1.0  0.84447  0.45260  0.33650  1.0000
  H   H146      1.0  0.90654  0.52241  0.34401  1.0000
  H   H147      1.0  0.91418  0.46057  0.33445  1.0000
  C   C271      1.0  0.01307  0.13258  0.40098  1.0000
  C   C272      1.0  0.01377  0.15524  0.40414  1.0000
  H   H148      1.0  0.02110  0.16624  0.45896  1.0000
  C   C273      1.0  0.01952  0.06852  0.38697  1.0000
  C   C274      1.0  0.01910  0.09067  0.38428  1.0000
  H   H149      1.0  0.03168  0.06732  0.42850  1.0000
  C   C275      1.0  0.03602  0.11142  0.44192  1.0000
  C   C276      1.0  0.02360  0.12552  0.47666  1.0000
  H   H150      1.0  0.05200  0.12360  0.40220  1.0000
  H   H151      1.0  0.04215  0.10531  0.49966  1.0000
  H   H152      1.0  0.03700  0.14139  0.51413  1.0000
  H   H153      1.0  0.00894  0.11400  0.52281  1.0000
  C   C277      1.0  0.87494  0.88199  0.40096  1.0000
  C   C278      1.0  0.85227  0.86004  0.40410  1.0000
  H   H154      1.0  0.84127  0.85635  0.45894  1.0000
  C   C279      1.0  0.93898  0.95250  0.38693  1.0000
  C   C280      1.0  0.91684  0.92994  0.38424  1.0000
  H   H155      1.0  0.94018  0.96587  0.42845  1.0000
  C   C281      1.0  0.89608  0.92610  0.44188  1.0000
  C   C282      1.0  0.88198  0.89958  0.47664  1.0000
  H   H156      1.0  0.88390  0.92990  0.40215  1.0000
  H   H157      1.0  0.90220  0.93835  0.49961  1.0000
  H   H158      1.0  0.86612  0.89710  0.51411  1.0000
  H   H159      1.0  0.89352  0.89645  0.52278  1.0000
  C   C283      1.0  0.12552  0.99444  0.40098  1.0000
  C   C284      1.0  0.14748  0.99374  0.40414  1.0000
  H   H160      1.0  0.15116  0.98642  0.45897  1.0000
  C   C285      1.0  0.05501  0.98800  0.38699  1.0000
  C   C286      1.0  0.07756  0.98840  0.38428  1.0000
  H   H161      1.0  0.04164  0.97582  0.42850  1.0000
  C   C287      1.0  0.08141  0.97149  0.44192  1.0000
  C   C288      1.0  0.10793  0.98390  0.47665  1.0000
  H   H162      1.0  0.07759  0.95550  0.40220  1.0000
  H   H163      1.0  0.06916  0.96535  0.49966  1.0000
  H   H164      1.0  0.11040  0.97050  0.51410  1.0000
  H   H165      1.0  0.11106  0.99856  0.52282  1.0000
  C   C289      1.0  0.14497  0.37902  0.34644  1.0000
  C   C290      1.0  0.13870  0.36556  0.42670  1.0000
  C   C291      1.0  0.12066  0.34058  0.42923  1.0000
  C   C292      1.0  0.10897  0.32809  0.34845  1.0000
  C   C293      1.0  0.08956  0.30281  0.34479  1.0000
  C   C294      1.0  0.08759  0.28439  0.40392  1.0000
  C   C295      1.0  0.06778  0.26041  0.40045  1.0000
  C   C296      1.0  0.04911  0.25363  0.33651  1.0000
  H   H166      1.0  0.10076  0.28803  0.45031  1.0000
  H   H167      1.0  0.06662  0.24815  0.44752  1.0000
  H   H168      1.0  0.14678  0.37425  0.48533  1.0000
  N   N16       1.0  0.11322  0.32896  0.51370  1.0000
  O   O31       1.0  0.13047  0.32906  0.55539  1.0000
  O   O32       1.0  0.10413  0.33852  0.56236  1.0000
  C   C297      1.0  0.62851  0.76746  0.34643  1.0000
  C   C298      1.0  0.64196  0.77464  0.42670  1.0000
  C   C299      1.0  0.66694  0.78158  0.42923  1.0000
  C   C300      1.0  0.67944  0.78239  0.34844  1.0000
  C   C301      1.0  0.70471  0.78824  0.34481  1.0000
  C   C302      1.0  0.72314  0.80471  0.40393  1.0000
  C   C303      1.0  0.74711  0.80886  0.40051  1.0000
  C   C304      1.0  0.75389  0.79697  0.33653  1.0000
  H   H169      1.0  0.71950  0.81424  0.45031  1.0000
  H   H170      1.0  0.75937  0.81997  0.44751  1.0000
  H   H171      1.0  0.63327  0.77402  0.48533  1.0000
  N   N17       1.0  0.67856  0.78576  0.51370  1.0000
  O   O33       1.0  0.67845  0.80289  0.55541  1.0000
  O   O34       1.0  0.66901  0.76710  0.56235  1.0000
  C   C305      1.0  0.24005  0.86255  0.34642  1.0000
  C   C306      1.0  0.23286  0.86882  0.42669  1.0000
  C   C307      1.0  0.22594  0.88687  0.42923  1.0000
  C   C308      1.0  0.22510  0.89854  0.34844  1.0000
  C   C309      1.0  0.21926  0.91797  0.34481  1.0000
  C   C310      1.0  0.20280  0.91994  0.40397  1.0000
  C   C311      1.0  0.19863  0.93974  0.40047  1.0000
  C   C312      1.0  0.21053  0.95841  0.33653  1.0000
  H   H172      1.0  0.19328  0.90677  0.45037  1.0000
  H   H173      1.0  0.18755  0.94092  0.44759  1.0000
  H   H174      1.0  0.23352  0.86078  0.48533  1.0000
  N   N18       1.0  0.22178  0.89433  0.51370  1.0000
  O   O35       1.0  0.20465  0.87709  0.55548  1.0000
  O   O36       1.0  0.24044  0.90343  0.56229  1.0000
  C   C313      1.0  0.34402  0.11310  0.40988  1.0000
  C   C314      1.0  0.36897  0.13094  0.41007  1.0000
  H   H175      1.0  0.37875  0.13489  0.46838  1.0000
  C   C315      1.0  0.27324  0.05009  0.40561  1.0000
  C   C316      1.0  0.29723  0.07005  0.40290  1.0000
  H   H176      1.0  0.26871  0.03719  0.45442  1.0000
  C   C317      1.0  0.31498  0.07245  0.47302  1.0000
  C   C318      1.0  0.33260  0.09958  0.49415  1.0000
  H   H177      1.0  0.32522  0.06399  0.44857  1.0000
  H   H178      1.0  0.30583  0.06330  0.53515  1.0000
  H   H179      1.0  0.34612  0.10085  0.54256  1.0000
  H   H180      1.0  0.32254  0.10748  0.52510  1.0000
  C   C319      1.0  0.77508  0.66348  0.40987  1.0000
  C   C320      1.0  0.76796  0.63853  0.41007  1.0000
  H   H181      1.0  0.76213  0.62875  0.46837  1.0000
  C   C321      1.0  0.78286  0.73427  0.40558  1.0000
  C   C322      1.0  0.77882  0.71028  0.40288  1.0000
  H   H182      1.0  0.77448  0.73879  0.45440  1.0000
  C   C323      1.0  0.76347  0.69253  0.47300  1.0000
  C   C324      1.0  0.77298  0.67490  0.49414  1.0000
  H   H183      1.0  0.74477  0.68229  0.44855  1.0000
  H   H184      1.0  0.76347  0.70168  0.53512  1.0000
  H   H185      1.0  0.76073  0.66139  0.54256  1.0000
  H   H186      1.0  0.79095  0.68497  0.52508  1.0000
  C   C325      1.0  0.89441  0.23242  0.40990  1.0000
  C   C326      1.0  0.87658  0.23953  0.41011  1.0000
  H   H187      1.0  0.87263  0.24536  0.46841  1.0000
  C   C327      1.0  0.95743  0.22465  0.40559  1.0000
  C   C328      1.0  0.93747  0.22868  0.40289  1.0000
  H   H188      1.0  0.97033  0.23303  0.45440  1.0000
  C   C329      1.0  0.93507  0.24403  0.47301  1.0000
  C   C330      1.0  0.90794  0.23451  0.49416  1.0000
  H   H189      1.0  0.94352  0.26273  0.44857  1.0000
  H   H190      1.0  0.94422  0.24403  0.53513  1.0000
  H   H191      1.0  0.90667  0.24675  0.54260  1.0000
  H   H192      1.0  0.90004  0.21654  0.52508  1.0000
  C   C331      1.0  0.27111  0.46873  0.41010  1.0000
  C   C332      1.0  0.24557  0.45714  0.41758  1.0000
  H   H193      1.0  0.23787  0.45771  0.47722  1.0000
  C   C333      1.0  0.34800  0.51261  0.38728  1.0000
  C   C334      1.0  0.32229  0.50044  0.38708  1.0000
  H   H194      1.0  0.35735  0.52546  0.43534  1.0000
  C   C335      1.0  0.30915  0.50590  0.45770  1.0000
  C   C336      1.0  0.28648  0.48211  0.48884  1.0000
  H   H195      1.0  0.30351  0.51822  0.42978  1.0000
  H   H196      1.0  0.32067  0.51477  0.51596  1.0000
  H   H197      1.0  0.27654  0.48667  0.53763  1.0000
  H   H198      1.0  0.29221  0.47050  0.52239  1.0000
  C   C337      1.0  0.53877  0.80387  0.41013  1.0000
  C   C338      1.0  0.55036  0.78992  0.41759  1.0000
  H   H199      1.0  0.54979  0.78165  0.47723  1.0000
  C   C339      1.0  0.49490  0.83690  0.38738  1.0000
  C   C340      1.0  0.50705  0.82333  0.38711  1.0000
  H   H200      1.0  0.48204  0.83339  0.43538  1.0000
  C   C341      1.0  0.50158  0.80473  0.45770  1.0000
  C   C342      1.0  0.52536  0.80584  0.48886  1.0000
  H   H201      1.0  0.48927  0.78677  0.42972  1.0000
  H   H202      1.0  0.49270  0.80737  0.51594  1.0000
  H   H203      1.0  0.52079  0.79131  0.53758  1.0000
  H   H204      1.0  0.53697  0.82316  0.52250  1.0000
  C   C343      1.0  0.20368  0.73642  0.41001  1.0000
  C   C344      1.0  0.21763  0.76197  0.41744  1.0000
  H   H205      1.0  0.22591  0.76967  0.47707  1.0000
  C   C345      1.0  0.17060  0.65952  0.38741  1.0000
  C   C346      1.0  0.18417  0.68523  0.38712  1.0000
  H   H206      1.0  0.17413  0.65017  0.43537  1.0000
  C   C347      1.0  0.20280  0.69838  0.45763  1.0000
  C   C348      1.0  0.20171  0.72106  0.48877  1.0000
  H   H207      1.0  0.22074  0.70400  0.42959  1.0000
  H   H208      1.0  0.20017  0.68686  0.51590  1.0000
  H   H209      1.0  0.21625  0.73101  0.53745  1.0000
  H   H210      1.0  0.18439  0.71536  0.52244  1.0000
  C   C349      1.0  0.44664  0.22903  0.33130  1.0000
  C   C350      1.0  0.44710  0.24008  0.41360  1.0000
  C   C351      1.0  0.45892  0.26569  0.42273  1.0000
  C   C352      1.0  0.46990  0.28093  0.34646  1.0000
  C   C353      1.0  0.48275  0.30726  0.34950  1.0000
  C   C354      1.0  0.47582  0.32047  0.40705  1.0000
  C   C355      1.0  0.48798  0.34597  0.40629  1.0000
  C   C356      1.0  0.50720  0.35957  0.34577  1.0000
  H   H211      1.0  0.46102  0.31179  0.44776  1.0000
  H   H212      1.0  0.48228  0.35454  0.44989  1.0000
  H   H213      1.0  0.44000  0.22944  0.46944  1.0000
  N   N19       1.0  0.46157  0.27572  0.50969  1.0000
  O   O37       1.0  0.44138  0.26909  0.54629  1.0000
  O   O38       1.0  0.47398  0.27032  0.56030  1.0000
  C   C357      1.0  0.78843  0.56089  0.33121  1.0000
  C   C358      1.0  0.79900  0.56042  0.41355  1.0000
  C   C359      1.0  0.81279  0.54860  0.42269  1.0000
  C   C360      1.0  0.81706  0.53763  0.34642  1.0000
  C   C361      1.0  0.83053  0.52477  0.34950  1.0000
  C   C362      1.0  0.85064  0.53166  0.40716  1.0000
  C   C363      1.0  0.86399  0.51951  0.40636  1.0000
  C   C364      1.0  0.85838  0.50031  0.34579  1.0000
  H   H214      1.0  0.85679  0.54649  0.44776  1.0000
  H   H215      1.0  0.87826  0.52522  0.44991  1.0000
  H   H216      1.0  0.79544  0.56751  0.46940  1.0000
  N   N20       1.0  0.82015  0.54594  0.50967  1.0000
  O   O39       1.0  0.83371  0.56612  0.54631  1.0000
  O   O40       1.0  0.80233  0.53352  0.56023  1.0000
  C   C365      1.0  0.77848  0.21909  0.33117  1.0000
  C   C366      1.0  0.76744  0.20845  0.41345  1.0000
  C   C367      1.0  0.74183  0.19468  0.42261  1.0000
  C   C368      1.0  0.72659  0.19048  0.34640  1.0000
  C   C369      1.0  0.70026  0.17700  0.34946  1.0000
  C   C370      1.0  0.68705  0.15687  0.40707  1.0000
  C   C371      1.0  0.66155  0.14352  0.40627  1.0000
  C   C372      1.0  0.64795  0.14914  0.34576  1.0000
  H   H217      1.0  0.69573  0.15072  0.44762  1.0000
  H   H218      1.0  0.65299  0.12924  0.44980  1.0000
  H   H219      1.0  0.77809  0.21203  0.46931  1.0000
  N   N21       1.0  0.73182  0.18733  0.50960  1.0000
  O   O41       1.0  0.73842  0.17374  0.54617  1.0000
  O   O42       1.0  0.73725  0.20515  0.56022  1.0000
  C   C373      1.0  0.14061  0.56364  0.34879  1.0000
  C   C374      1.0  0.14606  0.55743  0.43273  1.0000
  C   C375      1.0  0.15094  0.53808  0.44210  1.0000
  C   C376      1.0  0.15108  0.52483  0.36489  1.0000
  C   C377      1.0  0.15528  0.50443  0.36812  1.0000
  C   C378      1.0  0.17170  0.50325  0.42931  1.0000
  C   C379      1.0  0.17648  0.48393  0.42797  1.0000
  C   C380      1.0  0.16550  0.46512  0.36385  1.0000
  H   H220      1.0  0.18157  0.51713  0.47282  1.0000
  H   H221      1.0  0.18868  0.48411  0.47318  1.0000
  H   H222      1.0  0.14507  0.56614  0.48902  1.0000
  N   N22       1.0  0.15327  0.53072  0.52950  1.0000
  O   O43       1.0  0.17064  0.54753  0.57190  1.0000
  O   O44       1.0  0.13415  0.52331  0.57471  1.0000
  C   C381      1.0  0.44389  0.57848  0.34883  1.0000
  C   C382      1.0  0.45013  0.59013  0.43279  1.0000
  C   C383      1.0  0.46946  0.61437  0.44214  1.0000
  C   C384      1.0  0.48269  0.62777  0.36492  1.0000
  C   C385      1.0  0.50309  0.65237  0.36815  1.0000
  C   C386      1.0  0.50428  0.66997  0.42935  1.0000
  C   C387      1.0  0.52359  0.69407  0.42798  1.0000
  C   C388      1.0  0.54240  0.70189  0.36386  1.0000
  H   H223      1.0  0.49041  0.66596  0.47292  1.0000
  H   H224      1.0  0.52343  0.70610  0.47323  1.0000
  H   H225      1.0  0.44141  0.58044  0.48908  1.0000
  N   N23       1.0  0.47683  0.62406  0.52954  1.0000
  O   O45       1.0  0.46001  0.62461  0.57197  1.0000
  O   O46       1.0  0.48426  0.61237  0.57472  1.0000
  C   C389      1.0  0.42903  0.86691  0.34870  1.0000
  C   C390      1.0  0.41738  0.86147  0.43267  1.0000
  C   C391      1.0  0.39315  0.85660  0.44208  1.0000
  C   C392      1.0  0.37975  0.85644  0.36488  1.0000
  C   C393      1.0  0.35516  0.85227  0.36819  1.0000
  C   C394      1.0  0.33757  0.83588  0.42947  1.0000
  C   C395      1.0  0.31347  0.83108  0.42807  1.0000
  C   C396      1.0  0.30564  0.84206  0.36392  1.0000
  H   H226      1.0  0.34157  0.82597  0.47288  1.0000
  H   H227      1.0  0.30143  0.81886  0.47322  1.0000
  H   H228      1.0  0.42709  0.86249  0.48897  1.0000
  N   N24       1.0  0.38348  0.85430  0.52950  1.0000
  O   O47       1.0  0.38292  0.83693  0.57195  1.0000
  O   O48       1.0  0.39520  0.87343  0.57464  1.0000
  C   C397      1.0  0.53198  0.14281  0.39901  1.0000
  C   C398      1.0  0.55100  0.13751  0.40632  1.0000
  H   H229      1.0  0.55406  0.13165  0.46634  1.0000
  C   C399      1.0  0.46801  0.14823  0.37724  1.0000
  C   C400      1.0  0.48748  0.14340  0.37692  1.0000
  H   H230      1.0  0.45504  0.14076  0.42627  1.0000
  C   C401      1.0  0.48943  0.12827  0.44908  1.0000
  C   C402      1.0  0.51629  0.13929  0.47850  1.0000
  H   H231      1.0  0.48275  0.10991  0.42317  1.0000
  H   H232      1.0  0.47851  0.12696  0.50773  1.0000
  H   H233      1.0  0.51742  0.12731  0.52851  1.0000
  H   H234      1.0  0.52246  0.15695  0.51014  1.0000
  C   C403      1.0  0.61682  0.47553  0.39889  1.0000
  C   C404      1.0  0.59250  0.45650  0.40616  1.0000
  H   H235      1.0  0.58357  0.45344  0.46616  1.0000
  C   C405      1.0  0.68624  0.53946  0.37733  1.0000
  C   C406      1.0  0.66194  0.51999  0.37696  1.0000
  H   H236      1.0  0.69173  0.55245  0.42632  1.0000
  C   C407      1.0  0.64484  0.51806  0.44904  1.0000
  C   C408      1.0  0.62899  0.49120  0.47843  1.0000
  H   H237      1.0  0.63319  0.52476  0.42306  1.0000
  H   H238      1.0  0.65444  0.52898  0.50771  1.0000
  H   H239      1.0  0.61586  0.49008  0.52838  1.0000
  H   H240      1.0  0.64046  0.48502  0.51011  1.0000
  C   C409      1.0  0.86469  0.39067  0.39890  1.0000
  C   C410      1.0  0.87000  0.41500  0.40617  1.0000
  H   H241      1.0  0.87583  0.42391  0.46621  1.0000
  C   C411      1.0  0.85926  0.32127  0.37727  1.0000
  C   C412      1.0  0.86406  0.34557  0.37697  1.0000
  H   H242      1.0  0.86671  0.31577  0.42638  1.0000
  C   C413      1.0  0.87919  0.36265  0.44914  1.0000
  C   C414      1.0  0.86817  0.37850  0.47846  1.0000
  H   H243      1.0  0.89755  0.37431  0.42326  1.0000
  H   H244      1.0  0.88048  0.35304  0.50782  1.0000
  H   H245      1.0  0.88015  0.39161  0.52848  1.0000
  H   H246      1.0  0.85050  0.36701  0.51004  1.0000
  C   C415      1.0  0.03076  0.55073  0.41209  1.0000
  C   C416      1.0  0.05633  0.56238  0.41326  1.0000
  H   H247      1.0  0.06513  0.56205  0.47036  1.0000
  C   C417      1.0  0.95431  0.50366  0.39882  1.0000
  C   C418      1.0  0.97990  0.51770  0.39728  1.0000
  H   H248      1.0  0.94607  0.48970  0.44391  1.0000
  C   C419      1.0  0.99443  0.51280  0.46362  1.0000
  C   C420      1.0  0.01684  0.53701  0.49285  1.0000
  H   H249      1.0  0.00035  0.50104  0.43259  1.0000
  H   H250      1.0  0.98378  0.50358  0.52329  1.0000
  H   H251      1.0  0.02784  0.53300  0.53859  1.0000
  H   H252      1.0  0.01088  0.54804  0.52928  1.0000
  C   C421      1.0  0.45680  0.48155  0.41214  1.0000
  C   C422      1.0  0.44514  0.49547  0.41331  1.0000
  H   H253      1.0  0.44548  0.50461  0.47038  1.0000
  C   C423      1.0  0.50386  0.45216  0.39886  1.0000
  C   C424      1.0  0.48982  0.46372  0.39730  1.0000
  H   H254      1.0  0.51782  0.45788  0.44392  1.0000
  C   C425      1.0  0.49474  0.48316  0.46360  1.0000
  C   C426      1.0  0.47054  0.48138  0.49288  1.0000
  H   H255      1.0  0.50650  0.50084  0.43251  1.0000
  H   H256      1.0  0.50397  0.48175  0.52325  1.0000
  H   H257      1.0  0.47455  0.49639  0.53855  1.0000
  H   H258      1.0  0.45951  0.46439  0.52938  1.0000
  C   C427      1.0  0.52597  0.97675  0.41210  1.0000
  C   C428      1.0  0.51206  0.95118  0.41325  1.0000
  H   H259      1.0  0.50293  0.94238  0.47033  1.0000
  C   C429      1.0  0.55537  0.05320  0.39890  1.0000
  C   C430      1.0  0.54382  0.02761  0.39735  1.0000
  H   H260      1.0  0.54966  0.06145  0.44399  1.0000
  C   C431      1.0  0.52438  0.01308  0.46367  1.0000
  C   C432      1.0  0.52617  0.99066  0.49288  1.0000
  H   H261      1.0  0.50670  0.00717  0.43263  1.0000
  H   H262      1.0  0.52581  0.02373  0.52334  1.0000
  H   H263      1.0  0.51116  0.97967  0.53859  1.0000
  H   H264      1.0  0.54316  0.99662  0.52931  1.0000
