data_image0
_chemical_formula_structural       C4NC2NCHCHC4NC2NCHCHC4NC2NCHCHC4NC2NCHCHC4NC2NCHCHC4NC2NCHCHC2H2CH2CH3C2H2CH2CH3C2H2CH2CH3C2H2CH2CH3C2H2CH2CH3C2H2CH2CH3C2H6C2H6C2H6C2H6C2H6C2H6C4NC2NCHCH2C4NC2NCHCH2C4NC2NCHCH2C4NC2NCHCH2C4NC2NCHCH2C4NC2NCHCH2C2H6C2H6C2H6C2H6C2H6C2H6C2H6C2H6C2H6C2H6C2H6C2H6CNCNCNCNCNCNCNCNCNCNCNCNCNCNCNCNCNCNCNCNCNCNCNCNCNCNCNCNCNCNCNCNCNCNCNCNCNCNCNCNCNCNCNCNCNCNCNCNCNCNCNCNCNCNCNCNCNCNCNCNCNCNCNCNCNCNCNCNCNCNCNCNC2H6C2H6C2H6C2H6C2H6C2H6C4NC2NHC4NC2NHC4NC2NHC4NC2NHC4NC2NHC4NC2NHC4NC2NCHCHC4NC2NCHCHC4NC2NCHCHC4NC2NCHCHC4NC2NCHCHC4NC2NCHCHC2H5C2H5C2H5C2H5C2H5C2H5C4NC2NCHCHC4NC2NCHCHC4NC2NCHCHC4NC2NCHCHC4NC2NCHCHC4NC2NCHCHC4NC2NCHCHC4NC2NCHCHC4NC2NCHCHC4NC2NCHCHC4NC2NCHCHC4NC2NCHCH
_chemical_formula_sum              "C432 N144 H288"
_cell_length_a       53.8915
_cell_length_b       53.8914
_cell_length_c       14.8783
_cell_angle_alpha    90
_cell_angle_beta     90
_cell_angle_gamma    120

_space_group_name_H-M_alt    "P 1"
_space_group_IT_number       1

loop_
  _space_group_symop_operation_xyz
  'x, y, z'

loop_
  _atom_site_type_symbol
  _atom_site_label
  _atom_site_symmetry_multiplicity
  _atom_site_fract_x
  _atom_site_fract_y
  _atom_site_fract_z
  _atom_site_occupancy
  C   C1        1.0  0.14266  0.45819  0.32773  1.0000
  C   C2        1.0  0.13966  0.44307  0.24686  1.0000
  C   C3        1.0  0.12539  0.41265  0.24576  1.0000
  C   C4        1.0  0.11415  0.39670  0.32578  1.0000
  N   N1        1.0  0.12311  0.39957  0.16568  1.0000
  C   C5        1.0  0.13370  0.41364  0.08674  1.0000
  C   C6        1.0  0.14858  0.44404  0.08806  1.0000
  N   N2        1.0  0.15074  0.45709  0.16812  1.0000
  C   C7        1.0  0.12808  0.39631  0.00462  1.0000
  H   H1        1.0  0.11564  0.37347  0.01969  1.0000
  C   C8        1.0  0.16185  0.46300  0.00960  1.0000
  H   H2        1.0  0.18463  0.47718  0.02250  1.0000
  C   C9        1.0  0.55204  0.68656  0.32811  1.0000
  C   C10       1.0  0.56714  0.69865  0.24719  1.0000
  C   C11       1.0  0.59757  0.71478  0.24611  1.0000
  C   C12       1.0  0.61351  0.71949  0.32615  1.0000
  N   N3        1.0  0.61065  0.72555  0.16602  1.0000
  C   C13       1.0  0.59658  0.72206  0.08706  1.0000
  C   C14       1.0  0.56619  0.70657  0.08836  1.0000
  N   N4        1.0  0.55312  0.69570  0.16843  1.0000
  C   C15       1.0  0.61393  0.73376  0.00495  1.0000
  H   H3        1.0  0.63676  0.74414  0.02004  1.0000
  C   C16       1.0  0.54724  0.70088  0.00988  1.0000
  H   H4        1.0  0.53307  0.70951  0.02273  1.0000
  C   C17       1.0  0.32370  0.86752  0.32759  1.0000
  C   C18       1.0  0.31158  0.87054  0.24675  1.0000
  C   C19       1.0  0.29545  0.88484  0.24573  1.0000
  C   C20       1.0  0.29078  0.89608  0.32579  1.0000
  N   N5        1.0  0.28464  0.88713  0.16569  1.0000
  C   C21       1.0  0.28810  0.87653  0.08672  1.0000
  C   C22       1.0  0.30360  0.86164  0.08797  1.0000
  N   N6        1.0  0.31450  0.85945  0.16799  1.0000
  C   C23       1.0  0.27637  0.88216  0.00465  1.0000
  H   H5        1.0  0.26599  0.89461  0.01978  1.0000
  C   C24       1.0  0.30925  0.84835  0.00946  1.0000
  H   H6        1.0  0.30064  0.82557  0.02234  1.0000
  C   C25       1.0  0.86960  0.54998  0.32811  1.0000
  C   C26       1.0  0.87259  0.56509  0.24720  1.0000
  C   C27       1.0  0.88687  0.59552  0.24610  1.0000
  C   C28       1.0  0.89811  0.61146  0.32612  1.0000
  N   N7        1.0  0.88916  0.60860  0.16601  1.0000
  C   C29       1.0  0.87857  0.59452  0.08707  1.0000
  C   C30       1.0  0.86368  0.56413  0.08838  1.0000
  N   N8        1.0  0.86151  0.55107  0.16845  1.0000
  C   C31       1.0  0.88419  0.61186  0.00495  1.0000
  H   H7        1.0  0.89665  0.63470  0.02001  1.0000
  C   C32       1.0  0.85040  0.54517  0.00993  1.0000
  H   H8        1.0  0.82762  0.53100  0.02281  1.0000
  C   C33       1.0  0.46024  0.32167  0.32776  1.0000
  C   C34       1.0  0.44512  0.30955  0.24689  1.0000
  C   C35       1.0  0.41469  0.29340  0.24579  1.0000
  C   C36       1.0  0.39875  0.28869  0.32580  1.0000
  N   N9        1.0  0.40162  0.28260  0.16571  1.0000
  C   C37       1.0  0.41569  0.28609  0.08677  1.0000
  C   C38       1.0  0.44609  0.30161  0.08810  1.0000
  N   N10       1.0  0.45914  0.31250  0.16815  1.0000
  C   C39       1.0  0.39836  0.27437  0.00465  1.0000
  H   H9        1.0  0.37552  0.26397  0.01971  1.0000
  C   C40       1.0  0.46504  0.30729  0.00963  1.0000
  H   H10       1.0  0.47923  0.29869  0.02253  1.0000
  C   C41       1.0  0.68858  0.14062  0.32803  1.0000
  C   C42       1.0  0.70067  0.13761  0.24711  1.0000
  C   C43       1.0  0.71681  0.12332  0.24605  1.0000
  C   C44       1.0  0.72151  0.11209  0.32609  1.0000
  N   N11       1.0  0.72759  0.12102  0.16597  1.0000
  C   C45       1.0  0.72410  0.13159  0.08701  1.0000
  C   C46       1.0  0.70860  0.14649  0.08830  1.0000
  N   N12       1.0  0.69773  0.14868  0.16835  1.0000
  C   C47       1.0  0.73581  0.12596  0.00490  1.0000
  H   H11       1.0  0.74620  0.11351  0.02000  1.0000
  C   C48       1.0  0.70292  0.15976  0.00981  1.0000
  H   H12       1.0  0.71154  0.18254  0.02265  1.0000
  C   C49       1.0  0.41565  0.11696  0.27876  1.0000
  C   C50       1.0  0.44585  0.13091  0.28003  1.0000
  H   H13       1.0  0.45660  0.13506  0.22033  1.0000
  H   H14       1.0  0.40534  0.11129  0.21827  1.0000
  C   C51       1.0  0.39676  0.11946  0.01558  1.0000
  H   H15       1.0  0.40091  0.13866  0.05243  1.0000
  H   H16       1.0  0.40163  0.10600  0.05821  1.0000
  C   C52       1.0  0.46350  0.15502  0.01491  1.0000
  H   H17       1.0  0.45119  0.15266  0.07545  1.0000
  H   H18       1.0  0.47807  0.17786  0.00417  1.0000
  H   H19       1.0  0.47612  0.14455  0.02576  1.0000
  C   C53       1.0  0.70949  0.59465  0.27866  1.0000
  C   C54       1.0  0.69323  0.56445  0.27979  1.0000
  H   H20       1.0  0.68657  0.55372  0.22007  1.0000
  H   H21       1.0  0.71407  0.60500  0.21824  1.0000
  C   C55       1.0  0.73083  0.61335  0.01556  1.0000
  H   H22       1.0  0.74588  0.60919  0.05238  1.0000
  H   H23       1.0  0.71249  0.60845  0.05816  1.0000
  C   C56       1.0  0.69966  0.54661  0.01459  1.0000
  H   H24       1.0  0.70957  0.55889  0.07520  1.0000
  H   H25       1.0  0.70794  0.53205  0.00381  1.0000
  H   H26       1.0  0.67656  0.53399  0.02534  1.0000
  C   C57       1.0  0.89327  0.30071  0.27880  1.0000
  C   C58       1.0  0.87934  0.31698  0.28008  1.0000
  H   H27       1.0  0.87518  0.32356  0.22037  1.0000
  H   H28       1.0  0.89893  0.29606  0.21831  1.0000
  C   C59       1.0  0.89086  0.27942  0.01566  1.0000
  H   H29       1.0  0.87165  0.26438  0.05255  1.0000
  H   H30       1.0  0.90432  0.29776  0.05823  1.0000
  C   C60       1.0  0.85530  0.31060  0.01494  1.0000
  H   H31       1.0  0.85765  0.30065  0.07549  1.0000
  H   H32       1.0  0.83246  0.30235  0.00421  1.0000
  H   H33       1.0  0.86579  0.33370  0.02579  1.0000
  C   C61       1.0  0.59667  0.89129  0.27877  1.0000
  C   C62       1.0  0.56647  0.87734  0.27997  1.0000
  H   H34       1.0  0.55572  0.87326  0.22029  1.0000
  H   H35       1.0  0.60700  0.89704  0.21832  1.0000
  C   C63       1.0  0.61549  0.88872  0.01563  1.0000
  H   H36       1.0  0.61133  0.86951  0.05248  1.0000
  H   H37       1.0  0.61061  0.90217  0.05823  1.0000
  C   C64       1.0  0.54875  0.85316  0.01485  1.0000
  H   H38       1.0  0.56105  0.85554  0.07543  1.0000
  H   H39       1.0  0.53419  0.83031  0.00413  1.0000
  H   H40       1.0  0.53612  0.86363  0.02564  1.0000
  C   C65       1.0  0.30278  0.41362  0.27877  1.0000
  C   C66       1.0  0.31904  0.44382  0.28005  1.0000
  H   H41       1.0  0.32563  0.45457  0.22035  1.0000
  H   H42       1.0  0.29814  0.40331  0.21828  1.0000
  C   C67       1.0  0.28141  0.39471  0.01559  1.0000
  H   H43       1.0  0.26635  0.39886  0.05245  1.0000
  H   H44       1.0  0.29973  0.39958  0.05821  1.0000
  C   C68       1.0  0.31257  0.46145  0.01494  1.0000
  H   H45       1.0  0.30263  0.44914  0.07547  1.0000
  H   H46       1.0  0.30430  0.47602  0.00420  1.0000
  H   H47       1.0  0.33567  0.47407  0.02578  1.0000
  C   C69       1.0  0.11894  0.70745  0.27863  1.0000
  C   C70       1.0  0.13288  0.69120  0.27978  1.0000
  H   H48       1.0  0.13694  0.68453  0.22006  1.0000
  H   H49       1.0  0.11317  0.71203  0.21821  1.0000
  C   C71       1.0  0.12162  0.72885  0.01551  1.0000
  H   H50       1.0  0.14084  0.74391  0.05230  1.0000
  H   H51       1.0  0.10819  0.71052  0.05814  1.0000
  C   C72       1.0  0.15716  0.69765  0.01457  1.0000
  H   H52       1.0  0.15480  0.70757  0.07518  1.0000
  H   H53       1.0  0.18001  0.70594  0.00380  1.0000
  H   H54       1.0  0.14669  0.67456  0.02533  1.0000
  C   C73       1.0  0.25280  0.52152  0.25836  1.0000
  C   C74       1.0  0.27910  0.52192  0.26252  1.0000
  H   H55       1.0  0.28622  0.51643  0.20628  1.0000
  H   H56       1.0  0.24156  0.51575  0.19936  1.0000
  H   H57       1.0  0.25458  0.56184  0.02336  1.0000
  H   H58       1.0  0.23731  0.52397  0.03671  1.0000
  H   H59       1.0  0.29061  0.54655  0.05807  1.0000
  H   H60       1.0  0.30466  0.52658  0.00726  1.0000
  C   C75       1.0  0.48870  0.73338  0.25821  1.0000
  C   C76       1.0  0.48830  0.75927  0.26240  1.0000
  H   H61       1.0  0.49375  0.77187  0.20613  1.0000
  H   H62       1.0  0.49441  0.72787  0.19916  1.0000
  H   H63       1.0  0.44843  0.69482  0.02324  1.0000
  H   H64       1.0  0.48630  0.71542  0.03657  1.0000
  H   H65       1.0  0.46370  0.74613  0.05798  1.0000
  H   H66       1.0  0.48369  0.78015  0.00723  1.0000
  C   C77       1.0  0.27686  0.75738  0.25822  1.0000
  C   C78       1.0  0.25097  0.73108  0.26237  1.0000
  H   H67       1.0  0.23834  0.72396  0.20614  1.0000
  H   H68       1.0  0.28234  0.76862  0.19922  1.0000
  H   H69       1.0  0.31544  0.75559  0.02318  1.0000
  H   H70       1.0  0.29486  0.77287  0.03656  1.0000
  H   H71       1.0  0.26413  0.71957  0.05793  1.0000
  H   H72       1.0  0.23010  0.70554  0.00718  1.0000
  C   C79       1.0  0.75946  0.48669  0.25822  1.0000
  C   C80       1.0  0.73317  0.48629  0.26232  1.0000
  H   H73       1.0  0.72602  0.49175  0.20605  1.0000
  H   H74       1.0  0.77070  0.49243  0.19921  1.0000
  H   H75       1.0  0.75758  0.44628  0.02321  1.0000
  H   H76       1.0  0.77485  0.48415  0.03662  1.0000
  H   H77       1.0  0.72154  0.46154  0.05787  1.0000
  H   H78       1.0  0.70751  0.48154  0.00708  1.0000
  C   C81       1.0  0.52355  0.27484  0.25838  1.0000
  C   C82       1.0  0.52396  0.24895  0.26252  1.0000
  H   H79       1.0  0.51846  0.23634  0.20628  1.0000
  H   H80       1.0  0.51778  0.28032  0.19937  1.0000
  H   H81       1.0  0.56389  0.31339  0.02335  1.0000
  H   H82       1.0  0.52602  0.29279  0.03673  1.0000
  H   H83       1.0  0.54860  0.26207  0.05806  1.0000
  H   H84       1.0  0.52863  0.22805  0.00725  1.0000
  C   C83       1.0  0.73541  0.25078  0.25811  1.0000
  C   C84       1.0  0.76131  0.27707  0.26230  1.0000
  H   H85       1.0  0.77391  0.28423  0.20603  1.0000
  H   H86       1.0  0.72991  0.23957  0.19906  1.0000
  H   H87       1.0  0.69686  0.25249  0.02316  1.0000
  H   H88       1.0  0.71746  0.23522  0.03647  1.0000
  H   H89       1.0  0.74818  0.28852  0.05789  1.0000
  H   H90       1.0  0.78220  0.30257  0.00711  1.0000
  C   C85       1.0  0.17399  0.61433  0.34841  1.0000
  C   C86       1.0  0.17739  0.60318  0.26613  1.0000
  C   C87       1.0  0.17716  0.57669  0.26330  1.0000
  C   C88       1.0  0.17359  0.56077  0.34271  1.0000
  N   N13       1.0  0.18049  0.56727  0.18201  1.0000
  C   C89       1.0  0.18405  0.58147  0.10335  1.0000
  C   C90       1.0  0.18454  0.60803  0.10619  1.0000
  N   N14       1.0  0.18118  0.61744  0.18745  1.0000
  C   C91       1.0  0.18560  0.56751  0.02000  1.0000
  H   H91       1.0  0.18375  0.54676  0.03398  1.0000
  C   C92       1.0  0.18793  0.62637  0.02808  1.0000
  H   H92       1.0  0.20516  0.64810  0.04148  1.0000
  H   H93       1.0  0.16813  0.62683  0.01742  1.0000
  C   C93       1.0  0.39588  0.56177  0.34853  1.0000
  C   C94       1.0  0.40702  0.57631  0.26623  1.0000
  C   C95       1.0  0.43351  0.60256  0.26342  1.0000
  C   C96       1.0  0.44944  0.61491  0.34281  1.0000
  N   N15       1.0  0.44293  0.61532  0.18212  1.0000
  C   C97       1.0  0.42874  0.60468  0.10345  1.0000
  C   C98       1.0  0.40218  0.57861  0.10629  1.0000
  N   N16       1.0  0.39276  0.56583  0.18755  1.0000
  C   C99       1.0  0.44269  0.62020  0.02011  1.0000
  H   H94       1.0  0.46344  0.63909  0.03410  1.0000
  C   C100      1.0  0.38383  0.56366  0.02817  1.0000
  H   H95       1.0  0.36212  0.55918  0.04154  1.0000
  H   H96       1.0  0.38337  0.54339  0.01755  1.0000
  C   C101      1.0  0.44852  0.83624  0.34849  1.0000
  C   C102      1.0  0.43399  0.83282  0.26615  1.0000
  C   C103      1.0  0.40772  0.83302  0.26322  1.0000
  C   C104      1.0  0.39534  0.83657  0.34257  1.0000
  N   N17       1.0  0.39498  0.82966  0.18188  1.0000
  C   C105      1.0  0.40565  0.82612  0.10327  1.0000
  C   C106      1.0  0.43174  0.82567  0.10622  1.0000
  N   N18       1.0  0.44450  0.82905  0.18753  1.0000
  C   C107      1.0  0.39015  0.82453  0.01986  1.0000
  H   H97       1.0  0.37125  0.82637  0.03376  1.0000
  C   C108      1.0  0.44674  0.82231  0.02818  1.0000
  H   H98       1.0  0.45127  0.80511  0.04164  1.0000
  H   H99       1.0  0.46698  0.84213  0.01754  1.0000
  C   C109      1.0  0.83822  0.39384  0.34866  1.0000
  C   C110      1.0  0.83479  0.40496  0.26636  1.0000
  C   C111      1.0  0.83501  0.43144  0.26352  1.0000
  C   C112      1.0  0.83860  0.44738  0.34290  1.0000
  N   N19       1.0  0.83166  0.44084  0.18221  1.0000
  C   C113      1.0  0.82810  0.42664  0.10356  1.0000
  C   C114      1.0  0.82763  0.40010  0.10643  1.0000
  N   N20       1.0  0.83100  0.39069  0.18770  1.0000
  C   C115      1.0  0.82650  0.44057  0.02020  1.0000
  H   H100      1.0  0.82835  0.46132  0.03418  1.0000
  C   C116      1.0  0.82424  0.38174  0.02833  1.0000
  H   H101      1.0  0.80700  0.36002  0.04173  1.0000
  H   H102      1.0  0.84404  0.38128  0.01772  1.0000
  C   C117      1.0  0.61638  0.44646  0.34841  1.0000
  C   C118      1.0  0.60523  0.43193  0.26610  1.0000
  C   C119      1.0  0.57875  0.40567  0.26326  1.0000
  C   C120      1.0  0.56283  0.39331  0.34265  1.0000
  N   N21       1.0  0.56933  0.39292  0.18196  1.0000
  C   C121      1.0  0.58353  0.40357  0.10330  1.0000
  C   C122      1.0  0.61008  0.42964  0.10616  1.0000
  N   N22       1.0  0.61949  0.44242  0.18743  1.0000
  C   C123      1.0  0.56958  0.38806  0.01994  1.0000
  H   H103      1.0  0.54882  0.36917  0.03392  1.0000
  C   C124      1.0  0.62842  0.44461  0.02806  1.0000
  H   H104      1.0  0.65015  0.44913  0.04147  1.0000
  H   H105      1.0  0.62885  0.46486  0.01739  1.0000
  C   C125      1.0  0.56381  0.17201  0.34848  1.0000
  C   C126      1.0  0.57834  0.17541  0.26618  1.0000
  C   C127      1.0  0.60460  0.17518  0.26336  1.0000
  C   C128      1.0  0.61694  0.17159  0.34275  1.0000
  N   N23       1.0  0.61735  0.17851  0.18206  1.0000
  C   C129      1.0  0.60671  0.18207  0.10340  1.0000
  C   C130      1.0  0.58065  0.18256  0.10624  1.0000
  N   N24       1.0  0.56787  0.17920  0.18750  1.0000
  C   C131      1.0  0.62224  0.18365  0.02005  1.0000
  H   H106      1.0  0.64113  0.18179  0.03404  1.0000
  C   C132      1.0  0.56569  0.18595  0.02813  1.0000
  H   H107      1.0  0.56121  0.20319  0.04150  1.0000
  H   H108      1.0  0.54543  0.16615  0.01750  1.0000
  C   C133      1.0  0.02041  0.28451  0.26784  1.0000
  C   C134      1.0  0.99006  0.26957  0.26962  1.0000
  H   H109      1.0  0.97919  0.26078  0.21111  1.0000
  H   H110      1.0  0.03050  0.28603  0.20812  1.0000
  H   H111      1.0  0.03663  0.30947  0.04562  1.0000
  H   H112      1.0  0.03695  0.34156  0.01505  1.0000
  H   H113      1.0  0.98682  0.30243  0.05407  1.0000
  H   H114      1.0  0.96036  0.26932  0.00931  1.0000
  C   C135      1.0  0.72572  0.73796  0.26779  1.0000
  C   C136      1.0  0.74066  0.72255  0.26953  1.0000
  H   H115      1.0  0.74951  0.72052  0.21108  1.0000
  H   H116      1.0  0.72425  0.74658  0.20811  1.0000
  H   H117      1.0  0.70072  0.72913  0.04556  1.0000
  H   H118      1.0  0.66863  0.69736  0.01493  1.0000
  H   H119      1.0  0.70777  0.68636  0.05392  1.0000
  H   H120      1.0  0.74089  0.69305  0.00919  1.0000
  C   C137      1.0  0.27232  0.98982  0.26787  1.0000
  C   C138      1.0  0.28772  0.02017  0.26964  1.0000
  H   H121      1.0  0.28980  0.03104  0.21114  1.0000
  H   H122      1.0  0.26375  0.97973  0.20816  1.0000
  H   H123      1.0  0.28101  0.97362  0.04570  1.0000
  H   H124      1.0  0.31279  0.97331  0.01520  1.0000
  H   H125      1.0  0.32378  0.02343  0.05417  1.0000
  H   H126      1.0  0.31712  0.04988  0.00936  1.0000
  C   C139      1.0  0.99187  0.72367  0.26777  1.0000
  C   C140      1.0  0.02222  0.73861  0.26952  1.0000
  H   H127      1.0  0.03310  0.74745  0.21107  1.0000
  H   H128      1.0  0.98178  0.72218  0.20808  1.0000
  H   H129      1.0  0.97568  0.69869  0.04556  1.0000
  H   H130      1.0  0.97538  0.66661  0.01496  1.0000
  H   H131      1.0  0.02550  0.70576  0.05397  1.0000
  H   H132      1.0  0.05194  0.73889  0.00922  1.0000
  C   C141      1.0  0.28655  0.27025  0.26781  1.0000
  C   C142      1.0  0.27162  0.28567  0.26960  1.0000
  H   H133      1.0  0.26283  0.28776  0.21111  1.0000
  H   H134      1.0  0.28806  0.26167  0.20808  1.0000
  H   H135      1.0  0.31152  0.27897  0.04558  1.0000
  H   H136      1.0  0.34363  0.31073  0.01500  1.0000
  H   H137      1.0  0.30452  0.32176  0.05405  1.0000
  H   H138      1.0  0.27141  0.31511  0.00932  1.0000
  C   C143      1.0  0.73997  0.01836  0.26781  1.0000
  C   C144      1.0  0.72456  0.98801  0.26957  1.0000
  H   H139      1.0  0.72250  0.97713  0.21109  1.0000
  H   H140      1.0  0.74856  0.02845  0.20810  1.0000
  H   H141      1.0  0.73124  0.03456  0.04560  1.0000
  H   H142      1.0  0.69947  0.03488  0.01502  1.0000
  H   H143      1.0  0.68847  0.98475  0.05403  1.0000
  H   H144      1.0  0.69515  0.95831  0.00928  1.0000
  C   C145      1.0  0.15232  0.32102  0.25658  1.0000
  C   C146      1.0  0.17866  0.32116  0.26051  1.0000
  H   H145      1.0  0.18831  0.32089  0.20172  1.0000
  H   H146      1.0  0.14389  0.32089  0.19501  1.0000
  H   H147      1.0  0.14980  0.35162  0.02781  1.0000
  H   H148      1.0  0.13291  0.31360  0.03494  1.0000
  H   H149      1.0  0.18778  0.34026  0.05677  1.0000
  H   H150      1.0  0.20113  0.31932  0.00796  1.0000
  C   C147      1.0  0.68930  0.83337  0.25658  1.0000
  C   C148      1.0  0.68915  0.85956  0.26049  1.0000
  H   H151      1.0  0.68955  0.86956  0.20173  1.0000
  H   H152      1.0  0.68953  0.82510  0.19505  1.0000
  H   H153      1.0  0.65849  0.80020  0.02784  1.0000
  H   H154      1.0  0.69651  0.82130  0.03499  1.0000
  H   H155      1.0  0.66992  0.84956  0.05681  1.0000
  H   H156      1.0  0.69083  0.88384  0.00788  1.0000
  C   C149      1.0  0.17694  0.85796  0.25693  1.0000
  C   C150      1.0  0.15073  0.83163  0.26082  1.0000
  H   H157      1.0  0.14080  0.82199  0.20202  1.0000
  H   H158      1.0  0.18527  0.86640  0.19539  1.0000
  H   H159      1.0  0.20994  0.86043  0.02826  1.0000
  H   H160      1.0  0.18881  0.87732  0.03534  1.0000
  H   H161      1.0  0.16060  0.82245  0.05710  1.0000
  H   H162      1.0  0.12632  0.80916  0.00827  1.0000
  C   C151      1.0  0.86004  0.68725  0.25670  1.0000
  C   C152      1.0  0.83370  0.68711  0.26057  1.0000
  H   H163      1.0  0.82410  0.68748  0.20178  1.0000
  H   H164      1.0  0.86853  0.68746  0.19518  1.0000
  H   H165      1.0  0.86235  0.65647  0.02795  1.0000
  H   H166      1.0  0.87926  0.69449  0.03512  1.0000
  H   H167      1.0  0.82440  0.66788  0.05684  1.0000
  H   H168      1.0  0.81105  0.68881  0.00790  1.0000
  C   C153      1.0  0.32307  0.17484  0.25659  1.0000
  C   C154      1.0  0.32321  0.14864  0.26051  1.0000
  H   H169      1.0  0.32293  0.13871  0.20173  1.0000
  H   H170      1.0  0.32294  0.18315  0.19502  1.0000
  H   H171      1.0  0.35366  0.20795  0.02782  1.0000
  H   H172      1.0  0.31564  0.18683  0.03495  1.0000
  H   H173      1.0  0.34230  0.15862  0.05679  1.0000
  H   H174      1.0  0.32135  0.12433  0.00797  1.0000
  C   C155      1.0  0.83539  0.15021  0.25650  1.0000
  C   C156      1.0  0.86158  0.17655  0.26040  1.0000
  H   H175      1.0  0.87156  0.18615  0.20161  1.0000
  H   H176      1.0  0.82710  0.14172  0.19497  1.0000
  H   H177      1.0  0.80227  0.14790  0.02775  1.0000
  H   H178      1.0  0.82338  0.13098  0.03493  1.0000
  H   H179      1.0  0.85164  0.18584  0.05665  1.0000
  H   H180      1.0  0.88592  0.19917  0.00773  1.0000
  C   C157      1.0  0.16326  0.48773  0.33394  1.0000
  N   N25       1.0  0.15710  0.50938  0.33950  1.0000
  C   C158      1.0  0.17865  0.53732  0.34294  1.0000
  N   N26       1.0  0.20636  0.54325  0.34007  1.0000
  C   C159      1.0  0.21278  0.52196  0.33335  1.0000
  N   N27       1.0  0.19109  0.49446  0.33054  1.0000
  C   C160      1.0  0.52249  0.67761  0.33414  1.0000
  N   N28       1.0  0.50084  0.64980  0.33973  1.0000
  C   C161      1.0  0.47290  0.64342  0.34305  1.0000
  N   N29       1.0  0.46697  0.66519  0.34003  1.0000
  C   C162      1.0  0.48827  0.69291  0.33330  1.0000
  N   N30       1.0  0.51576  0.69871  0.33062  1.0000
  C   C163      1.0  0.33263  0.84692  0.33376  1.0000
  N   N31       1.0  0.36045  0.85308  0.33934  1.0000
  C   C164      1.0  0.36683  0.83152  0.34274  1.0000
  N   N32       1.0  0.34505  0.80381  0.33991  1.0000
  C   C165      1.0  0.31733  0.79740  0.33322  1.0000
  N   N33       1.0  0.31153  0.81909  0.33039  1.0000
  C   C166      1.0  0.84898  0.52044  0.33409  1.0000
  N   N34       1.0  0.85513  0.49878  0.33974  1.0000
  C   C167      1.0  0.83356  0.47084  0.34308  1.0000
  N   N35       1.0  0.80586  0.46493  0.34011  1.0000
  C   C168      1.0  0.79946  0.48623  0.33340  1.0000
  N   N36       1.0  0.82116  0.51372  0.33064  1.0000
  C   C169      1.0  0.48977  0.33061  0.33396  1.0000
  N   N37       1.0  0.51143  0.35842  0.33951  1.0000
  C   C170      1.0  0.53937  0.36480  0.34294  1.0000
  N   N38       1.0  0.54530  0.34302  0.34007  1.0000
  C   C171      1.0  0.52399  0.31531  0.33337  1.0000
  N   N39       1.0  0.49650  0.30951  0.33057  1.0000
  C   C172      1.0  0.67964  0.16123  0.33405  1.0000
  N   N40       1.0  0.65183  0.15508  0.33966  1.0000
  C   C173      1.0  0.64545  0.17664  0.34298  1.0000
  N   N41       1.0  0.66723  0.20434  0.33995  1.0000
  C   C174      1.0  0.69494  0.21075  0.33319  1.0000
  N   N42       1.0  0.70074  0.18906  0.33052  1.0000
  C   C175      1.0  0.49085  0.16180  0.35768  1.0000
  N   N43       1.0  0.51256  0.15567  0.35747  1.0000
  C   C176      1.0  0.54050  0.17722  0.35395  1.0000
  N   N44       1.0  0.54635  0.20490  0.34923  1.0000
  C   C177      1.0  0.52496  0.21127  0.34934  1.0000
  N   N45       1.0  0.49746  0.18958  0.35337  1.0000
  C   C178      1.0  0.67913  0.51941  0.35747  1.0000
  N   N46       1.0  0.65129  0.49770  0.35733  1.0000
  C   C179      1.0  0.64489  0.46976  0.35397  1.0000
  N   N47       1.0  0.66671  0.46390  0.34918  1.0000
  C   C180      1.0  0.69448  0.48529  0.34919  1.0000
  N   N48       1.0  0.70029  0.51279  0.35315  1.0000
  C   C181      1.0  0.84846  0.33111  0.35776  1.0000
  N   N49       1.0  0.85458  0.35894  0.35765  1.0000
  C   C182      1.0  0.83302  0.36532  0.35415  1.0000
  N   N50       1.0  0.80535  0.34350  0.34928  1.0000
  C   C183      1.0  0.79899  0.31574  0.34930  1.0000
  N   N51       1.0  0.82068  0.30994  0.35335  1.0000
  C   C184      1.0  0.52146  0.84642  0.35774  1.0000
  N   N52       1.0  0.49975  0.85256  0.35754  1.0000
  C   C185      1.0  0.47181  0.83102  0.35413  1.0000
  N   N53       1.0  0.46595  0.80334  0.34933  1.0000
  C   C186      1.0  0.48734  0.79696  0.34940  1.0000
  N   N54       1.0  0.51483  0.81864  0.35340  1.0000
  C   C187      1.0  0.33314  0.48881  0.35770  1.0000
  N   N55       1.0  0.36098  0.51052  0.35751  1.0000
  C   C188      1.0  0.36737  0.53846  0.35399  1.0000
  N   N56       1.0  0.34555  0.54431  0.34925  1.0000
  C   C189      1.0  0.31778  0.52292  0.34935  1.0000
  N   N57       1.0  0.31197  0.49542  0.35339  1.0000
  C   C190      1.0  0.16382  0.67710  0.35746  1.0000
  N   N58       1.0  0.15768  0.64925  0.35731  1.0000
  C   C191      1.0  0.17922  0.64285  0.35396  1.0000
  N   N59       1.0  0.20690  0.66465  0.34921  1.0000
  C   C192      1.0  0.21328  0.69243  0.34923  1.0000
  N   N60       1.0  0.19161  0.69825  0.35318  1.0000
  C   C193      1.0  0.11595  0.32961  0.32897  1.0000
  N   N61       1.0  0.08728  0.30997  0.33520  1.0000
  C   C194      1.0  0.06705  0.31833  0.33724  1.0000
  N   N62       1.0  0.07619  0.34693  0.33507  1.0000
  C   C195      1.0  0.10444  0.36691  0.32891  1.0000
  N   N63       1.0  0.12387  0.35786  0.32648  1.0000
  C   C196      1.0  0.68059  0.78837  0.32910  1.0000
  N   N64       1.0  0.70024  0.77934  0.33521  1.0000
  C   C197      1.0  0.69188  0.75075  0.33730  1.0000
  N   N65       1.0  0.66329  0.73130  0.33527  1.0000
  C   C198      1.0  0.64330  0.73955  0.32920  1.0000
  N   N66       1.0  0.65235  0.76804  0.32675  1.0000
  C   C199      1.0  0.22189  0.89428  0.32943  1.0000
  N   N67       1.0  0.23092  0.92296  0.33547  1.0000
  C   C200      1.0  0.25952  0.94319  0.33736  1.0000
  N   N68       1.0  0.27897  0.93405  0.33510  1.0000
  C   C201      1.0  0.27070  0.90580  0.32900  1.0000
  N   N69       1.0  0.24222  0.88636  0.32677  1.0000
  C   C202      1.0  0.89633  0.67855  0.32939  1.0000
  N   N70       1.0  0.92501  0.69820  0.33532  1.0000
  C   C203      1.0  0.94524  0.68984  0.33732  1.0000
  N   N71       1.0  0.93609  0.66124  0.33523  1.0000
  C   C204      1.0  0.90784  0.64126  0.32920  1.0000
  N   N72       1.0  0.88841  0.65030  0.32687  1.0000
  C   C205      1.0  0.33166  0.21980  0.32898  1.0000
  N   N73       1.0  0.31202  0.22883  0.33519  1.0000
  C   C206      1.0  0.32038  0.25743  0.33724  1.0000
  N   N74       1.0  0.34897  0.27688  0.33507  1.0000
  C   C207      1.0  0.36896  0.26861  0.32893  1.0000
  N   N75       1.0  0.35991  0.24013  0.32652  1.0000
  C   C208      1.0  0.79041  0.11391  0.32907  1.0000
  N   N76       1.0  0.78139  0.08524  0.33521  1.0000
  C   C209      1.0  0.75280  0.06500  0.33730  1.0000
  N   N77       1.0  0.73334  0.07413  0.33525  1.0000
  C   C210      1.0  0.74159  0.10238  0.32916  1.0000
  N   N78       1.0  0.77007  0.12182  0.32669  1.0000
  C   C211      1.0  0.33299  0.11478  0.34340  1.0000
  N   N79       1.0  0.31326  0.08605  0.34120  1.0000
  C   C212      1.0  0.32151  0.06575  0.34535  1.0000
  N   N80       1.0  0.35004  0.07487  0.35161  1.0000
  C   C213      1.0  0.37009  0.10316  0.35334  1.0000
  N   N81       1.0  0.36118  0.12268  0.34991  1.0000
  C   C214      1.0  0.79000  0.67727  0.34348  1.0000
  N   N82       1.0  0.78100  0.69700  0.34117  1.0000
  C   C215      1.0  0.75246  0.68875  0.34524  1.0000
  N   N83       1.0  0.73304  0.66022  0.35158  1.0000
  C   C216      1.0  0.74128  0.64017  0.35343  1.0000
  N   N84       1.0  0.76971  0.64908  0.35000  1.0000
  C   C217      1.0  0.89545  0.22024  0.34327  1.0000
  N   N85       1.0  0.92417  0.22924  0.34109  1.0000
  C   C218      1.0  0.94448  0.25778  0.34527  1.0000
  N   N86       1.0  0.93537  0.27720  0.35164  1.0000
  C   C219      1.0  0.90708  0.26896  0.35337  1.0000
  N   N87       1.0  0.88755  0.24053  0.34986  1.0000
  C   C220      1.0  0.67929  0.89339  0.34343  1.0000
  N   N88       1.0  0.69903  0.92211  0.34118  1.0000
  C   C221      1.0  0.69080  0.94242  0.34530  1.0000
  N   N89       1.0  0.66227  0.93332  0.35164  1.0000
  C   C222      1.0  0.64221  0.90504  0.35345  1.0000
  N   N90       1.0  0.65111  0.88551  0.34999  1.0000
  C   C223      1.0  0.22231  0.33095  0.34339  1.0000
  N   N91       1.0  0.23131  0.31123  0.34118  1.0000
  C   C224      1.0  0.25985  0.31947  0.34533  1.0000
  N   N92       1.0  0.27927  0.34800  0.35161  1.0000
  C   C225      1.0  0.27103  0.36805  0.35334  1.0000
  N   N93       1.0  0.24259  0.35914  0.34991  1.0000
  C   C226      1.0  0.11683  0.78797  0.34364  1.0000
  N   N94       1.0  0.08811  0.77898  0.34130  1.0000
  C   C227      1.0  0.06782  0.75043  0.34526  1.0000
  N   N95       1.0  0.07693  0.73101  0.35153  1.0000
  C   C228      1.0  0.10522  0.73925  0.35339  1.0000
  N   N96       1.0  0.12474  0.76769  0.35008  1.0000
  C   C229      1.0  0.11637  0.41184  0.40570  1.0000
  C   C230      1.0  0.13056  0.44208  0.40687  1.0000
  H   H181      1.0  0.13358  0.45230  0.46727  1.0000
  H   H182      1.0  0.10919  0.40098  0.46495  1.0000
  H   H183      1.0  0.14822  0.40075  0.64012  1.0000
  H   H184      1.0  0.11578  0.40140  0.62429  1.0000
  H   H185      1.0  0.15976  0.45121  0.61461  1.0000
  H   H186      1.0  0.15179  0.47601  0.66568  1.0000
  C   C231      1.0  0.59836  0.70657  0.40608  1.0000
  C   C232      1.0  0.56812  0.69054  0.40727  1.0000
  H   H187      1.0  0.55789  0.68329  0.46761  1.0000
  H   H188      1.0  0.60923  0.71021  0.46530  1.0000
  H   H189      1.0  0.60950  0.74946  0.64040  1.0000
  H   H190      1.0  0.60882  0.71635  0.62465  1.0000
  H   H191      1.0  0.55903  0.71057  0.61489  1.0000
  H   H192      1.0  0.53421  0.67781  0.66598  1.0000
  C   C233      1.0  0.30370  0.89383  0.40568  1.0000
  C   C234      1.0  0.31973  0.87962  0.40679  1.0000
  H   H193      1.0  0.32693  0.87659  0.46716  1.0000
  H   H194      1.0  0.30003  0.90101  0.46495  1.0000
  H   H195      1.0  0.26065  0.86202  0.64018  1.0000
  H   H196      1.0  0.29375  0.89445  0.62428  1.0000
  H   H197      1.0  0.29955  0.85045  0.61450  1.0000
  H   H198      1.0  0.33233  0.85840  0.66549  1.0000
  C   C235      1.0  0.89591  0.59632  0.40604  1.0000
  C   C236      1.0  0.88170  0.56608  0.40722  1.0000
  H   H199      1.0  0.87874  0.55586  0.46758  1.0000
  H   H200      1.0  0.90315  0.60720  0.46526  1.0000
  H   H201      1.0  0.86405  0.60743  0.64047  1.0000
  H   H202      1.0  0.89647  0.60676  0.62459  1.0000
  H   H203      1.0  0.85250  0.55695  0.61493  1.0000
  H   H204      1.0  0.86045  0.53214  0.66600  1.0000
  C   C237      1.0  0.41389  0.30162  0.40573  1.0000
  C   C238      1.0  0.44413  0.31766  0.40690  1.0000
  H   H205      1.0  0.45434  0.32486  0.46730  1.0000
  H   H206      1.0  0.40302  0.29793  0.46497  1.0000
  H   H207      1.0  0.40280  0.25867  0.64015  1.0000
  H   H208      1.0  0.40345  0.29176  0.62431  1.0000
  H   H209      1.0  0.45326  0.29759  0.61464  1.0000
  H   H210      1.0  0.47806  0.33037  0.66570  1.0000
  C   C239      1.0  0.70859  0.11432  0.40601  1.0000
  C   C240      1.0  0.69256  0.12853  0.40719  1.0000
  H   H211      1.0  0.68530  0.13150  0.46753  1.0000
  H   H212      1.0  0.71223  0.10709  0.46524  1.0000
  H   H213      1.0  0.75151  0.14609  0.64036  1.0000
  H   H214      1.0  0.71841  0.11365  0.62458  1.0000
  H   H215      1.0  0.71260  0.15765  0.61482  1.0000
  H   H216      1.0  0.67984  0.14971  0.66590  1.0000
  C   C241      1.0  0.46129  0.14115  0.36120  1.0000
  C   C242      1.0  0.44551  0.13657  0.44155  1.0000
  C   C243      1.0  0.41505  0.12216  0.44045  1.0000
  C   C244      1.0  0.39981  0.11273  0.35852  1.0000
  N   N97       1.0  0.40129  0.11815  0.52019  1.0000
  C   C245      1.0  0.41473  0.12730  0.60075  1.0000
  C   C246      1.0  0.44514  0.14263  0.60148  1.0000
  N   N98       1.0  0.45889  0.14636  0.52185  1.0000
  H   H217      1.0  0.37399  0.10738  0.66565  1.0000
  C   C247      1.0  0.68806  0.54898  0.36084  1.0000
  C   C248      1.0  0.69926  0.56472  0.44129  1.0000
  C   C249      1.0  0.71531  0.59517  0.44034  1.0000
  C   C250      1.0  0.72115  0.61045  0.35846  1.0000
  N   N99       1.0  0.72506  0.60891  0.52014  1.0000
  C   C251      1.0  0.72074  0.59543  0.60064  1.0000
  C   C252      1.0  0.70565  0.56501  0.60124  1.0000
  N   N100      1.0  0.69565  0.55130  0.52155  1.0000
  H   H218      1.0  0.74152  0.63613  0.66574  1.0000
  C   C253      1.0  0.86911  0.32221  0.36123  1.0000
  C   C254      1.0  0.87371  0.31101  0.44158  1.0000
  C   C255      1.0  0.88811  0.29495  0.44050  1.0000
  C   C256      1.0  0.89751  0.28911  0.35857  1.0000
  N   N101      1.0  0.89213  0.28521  0.52026  1.0000
  C   C257      1.0  0.88299  0.28952  0.60081  1.0000
  C   C258      1.0  0.86767  0.30462  0.60153  1.0000
  N   N102      1.0  0.86394  0.31462  0.52188  1.0000
  H   H219      1.0  0.90293  0.26872  0.66574  1.0000
  C   C259      1.0  0.55103  0.86705  0.36109  1.0000
  C   C260      1.0  0.56678  0.87161  0.44152  1.0000
  C   C261      1.0  0.59723  0.88602  0.44045  1.0000
  C   C262      1.0  0.61249  0.89546  0.35854  1.0000
  N   N103      1.0  0.61099  0.89002  0.52023  1.0000
  C   C263      1.0  0.59753  0.88088  0.60077  1.0000
  C   C264      1.0  0.56712  0.86555  0.60145  1.0000
  N   N104      1.0  0.55338  0.86182  0.52179  1.0000
  H   H220      1.0  0.63827  0.90080  0.66574  1.0000
  C   C265      1.0  0.32423  0.45925  0.36122  1.0000
  C   C266      1.0  0.31303  0.44346  0.44157  1.0000
  C   C267      1.0  0.29699  0.41301  0.44046  1.0000
  C   C268      1.0  0.29117  0.39776  0.35853  1.0000
  N   N105      1.0  0.28723  0.39924  0.52020  1.0000
  C   C269      1.0  0.29152  0.41268  0.60076  1.0000
  C   C270      1.0  0.30661  0.44310  0.60151  1.0000
  N   N106      1.0  0.31663  0.45685  0.52187  1.0000
  H   H221      1.0  0.27071  0.37194  0.66565  1.0000
  C   C271      1.0  0.14319  0.68603  0.36082  1.0000
  C   C272      1.0  0.13866  0.69724  0.44127  1.0000
  C   C273      1.0  0.12426  0.71330  0.44030  1.0000
  C   C274      1.0  0.11481  0.71912  0.35843  1.0000
  N   N107      1.0  0.12028  0.72305  0.52010  1.0000
  C   C275      1.0  0.12944  0.71874  0.60060  1.0000
  C   C276      1.0  0.14477  0.70364  0.60121  1.0000
  N   N108      1.0  0.14847  0.69363  0.52153  1.0000
  H   H222      1.0  0.10953  0.73954  0.66568  1.0000
  C   C277      1.0  0.29458  0.52801  0.34393  1.0000
  C   C278      1.0  0.28280  0.53313  0.42203  1.0000
  C   C279      1.0  0.25620  0.53261  0.41770  1.0000
  C   C280      1.0  0.24116  0.52716  0.33550  1.0000
  N   N109      1.0  0.24481  0.53543  0.49584  1.0000
  C   C281      1.0  0.25735  0.53925  0.57772  1.0000
  C   C282      1.0  0.28415  0.54029  0.58202  1.0000
  N   N110      1.0  0.29536  0.53698  0.50404  1.0000
  C   C283      1.0  0.24179  0.54125  0.65648  1.0000
  H   H223      1.0  0.22142  0.53931  0.63655  1.0000
  C   C284      1.0  0.30105  0.54461  0.66463  1.0000
  H   H224      1.0  0.32166  0.56425  0.65776  1.0000
  C   C285      1.0  0.48225  0.76866  0.34384  1.0000
  C   C286      1.0  0.47712  0.75176  0.42194  1.0000
  C   C287      1.0  0.47763  0.72568  0.41757  1.0000
  C   C288      1.0  0.48308  0.71610  0.33533  1.0000
  N   N111      1.0  0.47482  0.71148  0.49572  1.0000
  C   C289      1.0  0.47102  0.72019  0.57761  1.0000
  C   C290      1.0  0.46997  0.74595  0.58194  1.0000
  N   N112      1.0  0.47329  0.76047  0.50398  1.0000
  C   C291      1.0  0.46902  0.70263  0.65635  1.0000
  H   H225      1.0  0.47096  0.68420  0.63638  1.0000
  C   C292      1.0  0.46565  0.75852  0.66457  1.0000
  H   H226      1.0  0.44603  0.75952  0.65771  1.0000
  C   C293      1.0  0.24159  0.71563  0.34381  1.0000
  C   C294      1.0  0.25849  0.72738  0.42192  1.0000
  C   C295      1.0  0.28456  0.75397  0.41754  1.0000
  C   C296      1.0  0.29415  0.76902  0.33534  1.0000
  N   N113      1.0  0.29878  0.76536  0.49568  1.0000
  C   C297      1.0  0.29007  0.75282  0.57757  1.0000
  C   C298      1.0  0.26431  0.72603  0.58189  1.0000
  N   N114      1.0  0.24978  0.71483  0.50394  1.0000
  C   C299      1.0  0.30765  0.76838  0.65631  1.0000
  H   H227      1.0  0.32607  0.78874  0.63636  1.0000
  C   C300      1.0  0.25174  0.70914  0.66451  1.0000
  H   H228      1.0  0.25074  0.68851  0.65763  1.0000
  C   C301      1.0  0.71769  0.48021  0.34373  1.0000
  C   C302      1.0  0.72943  0.47505  0.42186  1.0000
  C   C303      1.0  0.75602  0.47556  0.41757  1.0000
  C   C304      1.0  0.77108  0.48105  0.33538  1.0000
  N   N115      1.0  0.76739  0.47273  0.49574  1.0000
  C   C305      1.0  0.75483  0.46890  0.57759  1.0000
  C   C306      1.0  0.72803  0.46785  0.58184  1.0000
  N   N116      1.0  0.71685  0.47119  0.50386  1.0000
  C   C307      1.0  0.77038  0.46688  0.65637  1.0000
  H   H229      1.0  0.79075  0.46883  0.63647  1.0000
  C   C308      1.0  0.71112  0.46351  0.66442  1.0000
  H   H230      1.0  0.69050  0.44388  0.65748  1.0000
  C   C309      1.0  0.53005  0.23957  0.34392  1.0000
  C   C310      1.0  0.53517  0.25646  0.42203  1.0000
  C   C311      1.0  0.53465  0.28254  0.41770  1.0000
  C   C312      1.0  0.52919  0.29212  0.33550  1.0000
  N   N117      1.0  0.53747  0.29674  0.49585  1.0000
  C   C313      1.0  0.54129  0.28802  0.57772  1.0000
  C   C314      1.0  0.54234  0.26227  0.58202  1.0000
  N   N118      1.0  0.53902  0.24775  0.50404  1.0000
  C   C315      1.0  0.54330  0.30559  0.65649  1.0000
  H   H231      1.0  0.54136  0.32402  0.63656  1.0000
  C   C316      1.0  0.54666  0.24970  0.66462  1.0000
  H   H232      1.0  0.56630  0.24872  0.65775  1.0000
  C   C317      1.0  0.77070  0.29252  0.34374  1.0000
  C   C318      1.0  0.75380  0.28074  0.42185  1.0000
  C   C319      1.0  0.72772  0.25415  0.41747  1.0000
  C   C320      1.0  0.71814  0.23913  0.33523  1.0000
  N   N119      1.0  0.71352  0.24275  0.49562  1.0000
  C   C321      1.0  0.72224  0.25527  0.57751  1.0000
  C   C322      1.0  0.74799  0.28208  0.58184  1.0000
  N   N120      1.0  0.76251  0.29329  0.50388  1.0000
  C   C323      1.0  0.70467  0.23971  0.65625  1.0000
  H   H233      1.0  0.68624  0.21934  0.63629  1.0000
  C   C324      1.0  0.76056  0.29896  0.66447  1.0000
  H   H234      1.0  0.76155  0.31958  0.65762  1.0000
  C   C325      1.0  0.16956  0.57171  0.42428  1.0000
  C   C326      1.0  0.16965  0.59796  0.42713  1.0000
  H   H235      1.0  0.16786  0.60572  0.48799  1.0000
  H   H236      1.0  0.16783  0.56118  0.48304  1.0000
  H   H237      1.0  0.20594  0.58101  0.65253  1.0000
  H   H238      1.0  0.16795  0.56394  0.64276  1.0000
  H   H239      1.0  0.19317  0.61904  0.63325  1.0000
  C   C327      1.0  0.43852  0.59994  0.42437  1.0000
  C   C328      1.0  0.41226  0.57378  0.42723  1.0000
  H   H240      1.0  0.40452  0.56419  0.48807  1.0000
  H   H241      1.0  0.44907  0.60871  0.48312  1.0000
  H   H242      1.0  0.42919  0.62705  0.65269  1.0000
  H   H243      1.0  0.44626  0.60612  0.64283  1.0000
  H   H244      1.0  0.39118  0.57622  0.63333  1.0000
  C   C329      1.0  0.41028  0.84064  0.42420  1.0000
  C   C330      1.0  0.43646  0.84057  0.42714  1.0000
  H   H245      1.0  0.44600  0.84238  0.48804  1.0000
  H   H246      1.0  0.40146  0.84237  0.48292  1.0000
  H   H247      1.0  0.38333  0.80419  0.65245  1.0000
  H   H248      1.0  0.40424  0.84219  0.64261  1.0000
  H   H249      1.0  0.43418  0.81704  0.63331  1.0000
  C   C331      1.0  0.84269  0.43648  0.42446  1.0000
  C   C332      1.0  0.84259  0.41023  0.42734  1.0000
  H   H250      1.0  0.84446  0.40250  0.48818  1.0000
  H   H251      1.0  0.84448  0.44705  0.48319  1.0000
  H   H252      1.0  0.80615  0.42706  0.65283  1.0000
  H   H253      1.0  0.84414  0.44415  0.64290  1.0000
  H   H254      1.0  0.81902  0.38908  0.63347  1.0000
  C   C333      1.0  0.57375  0.40827  0.42425  1.0000
  C   C334      1.0  0.60001  0.43443  0.42711  1.0000
  H   H255      1.0  0.60777  0.44398  0.48798  1.0000
  H   H256      1.0  0.56322  0.39946  0.48301  1.0000
  H   H257      1.0  0.58307  0.38122  0.65247  1.0000
  H   H258      1.0  0.56600  0.40215  0.64272  1.0000
  H   H259      1.0  0.62110  0.43204  0.63323  1.0000
  C   C335      1.0  0.60197  0.16754  0.42432  1.0000
  C   C336      1.0  0.57581  0.16764  0.42718  1.0000
  H   H260      1.0  0.56622  0.16579  0.48802  1.0000
  H   H261      1.0  0.61074  0.16575  0.48306  1.0000
  H   H262      1.0  0.62909  0.20399  0.65264  1.0000
  H   H263      1.0  0.60816  0.16600  0.64277  1.0000
  H   H264      1.0  0.57825  0.19117  0.63329  1.0000
  C   C337      1.0  0.97473  0.26850  0.34819  1.0000
  C   C338      1.0  0.99108  0.28254  0.42578  1.0000
  C   C339      1.0  0.02161  0.29752  0.42397  1.0000
  C   C340      1.0  0.03685  0.29900  0.34457  1.0000
  N   N121      1.0  0.03566  0.31048  0.50108  1.0000
  C   C341      1.0  0.02264  0.30996  0.57991  1.0000
  C   C342      1.0  0.99224  0.29505  0.58179  1.0000
  N   N122      1.0  0.97816  0.28226  0.50457  1.0000
  C   C343      1.0  0.04105  0.32478  0.65813  1.0000
  H   H265      1.0  0.06372  0.33466  0.64083  1.0000
  C   C344      1.0  0.97428  0.29201  0.66082  1.0000
  H   H266      1.0  0.96097  0.30147  0.64569  1.0000
  C   C345      1.0  0.74173  0.70828  0.34807  1.0000
  C   C346      1.0  0.72768  0.71057  0.42567  1.0000
  C   C347      1.0  0.71268  0.72611  0.42389  1.0000
  C   C348      1.0  0.71122  0.73989  0.34449  1.0000
  N   N123      1.0  0.69973  0.72718  0.50101  1.0000
  C   C349      1.0  0.70024  0.71467  0.57981  1.0000
  C   C350      1.0  0.71516  0.69919  0.58167  1.0000
  N   N124      1.0  0.72796  0.69791  0.50445  1.0000
  C   C351      1.0  0.68542  0.71825  0.65805  1.0000
  H   H267      1.0  0.67553  0.73104  0.64077  1.0000
  C   C352      1.0  0.71820  0.68427  0.66069  1.0000
  H   H268      1.0  0.70876  0.66150  0.64552  1.0000
  C   C353      1.0  0.30199  0.03550  0.34821  1.0000
  C   C354      1.0  0.29966  0.01916  0.42583  1.0000
  C   C355      1.0  0.28413  0.98863  0.42403  1.0000
  C   C356      1.0  0.27039  0.97339  0.34460  1.0000
  N   N125      1.0  0.28303  0.97459  0.50116  1.0000
  C   C357      1.0  0.29551  0.98760  0.57999  1.0000
  C   C358      1.0  0.31099  0.01800  0.58187  1.0000
  N   N126      1.0  0.31230  0.03209  0.50464  1.0000
  C   C359      1.0  0.29191  0.96920  0.65825  1.0000
  H   H269      1.0  0.27913  0.94653  0.64095  1.0000
  C   C360      1.0  0.32590  0.03597  0.66092  1.0000
  H   H270      1.0  0.34867  0.04929  0.64582  1.0000
  C   C361      1.0  0.03756  0.73969  0.34808  1.0000
  C   C362      1.0  0.02122  0.72565  0.42568  1.0000
  C   C363      1.0  0.99068  0.71065  0.42389  1.0000
  C   C364      1.0  0.97544  0.70917  0.34448  1.0000
  N   N127      1.0  0.97665  0.69769  0.50101  1.0000
  C   C365      1.0  0.98967  0.69821  0.57983  1.0000
  C   C366      1.0  0.02007  0.71314  0.58169  1.0000
  N   N128      1.0  0.03415  0.72593  0.50447  1.0000
  C   C367      1.0  0.97127  0.68339  0.65806  1.0000
  H   H271      1.0  0.94859  0.67350  0.64077  1.0000
  C   C368      1.0  0.03804  0.71619  0.66072  1.0000
  H   H272      1.0  0.05137  0.70676  0.64558  1.0000
  C   C369      1.0  0.27059  0.29995  0.34816  1.0000
  C   C370      1.0  0.28461  0.29762  0.42576  1.0000
  C   C371      1.0  0.29958  0.28206  0.42392  1.0000
  C   C372      1.0  0.30104  0.26828  0.34451  1.0000
  N   N129      1.0  0.31253  0.28096  0.50103  1.0000
  C   C373      1.0  0.31203  0.29346  0.57986  1.0000
  C   C374      1.0  0.29713  0.30896  0.58176  1.0000
  N   N130      1.0  0.28434  0.31027  0.50455  1.0000
  C   C375      1.0  0.32683  0.28985  0.65808  1.0000
  H   H273      1.0  0.33670  0.27705  0.64077  1.0000
  C   C376      1.0  0.29410  0.32388  0.66082  1.0000
  H   H274      1.0  0.30356  0.34665  0.64569  1.0000
  C   C377      1.0  0.71033  0.97267  0.34815  1.0000
  C   C378      1.0  0.71264  0.98902  0.42574  1.0000
  C   C379      1.0  0.72818  0.01956  0.42393  1.0000
  C   C380      1.0  0.74195  0.03481  0.34454  1.0000
  N   N131      1.0  0.72927  0.03359  0.50105  1.0000
  C   C381      1.0  0.71677  0.02058  0.57987  1.0000
  C   C382      1.0  0.70129  0.99018  0.58175  1.0000
  N   N132      1.0  0.70000  0.97610  0.50453  1.0000
  C   C383      1.0  0.72036  0.03898  0.65811  1.0000
  H   H275      1.0  0.73314  0.06166  0.64081  1.0000
  C   C384      1.0  0.68637  0.97221  0.66078  1.0000
  H   H276      1.0  0.66360  0.95890  0.64565  1.0000
  C   C385      1.0  0.19298  0.32412  0.34289  1.0000
  C   C386      1.0  0.17944  0.32634  0.42174  1.0000
  C   C387      1.0  0.15255  0.32543  0.41788  1.0000
  C   C388      1.0  0.13855  0.32300  0.33501  1.0000
  N   N133      1.0  0.14103  0.32773  0.49644  1.0000
  C   C389      1.0  0.15343  0.33100  0.57829  1.0000
  C   C390      1.0  0.18057  0.33275  0.58189  1.0000
  N   N134      1.0  0.19210  0.33030  0.50352  1.0000
  C   C391      1.0  0.13735  0.33157  0.65781  1.0000
  H   H277      1.0  0.11689  0.32962  0.63866  1.0000
  C   C392      1.0  0.19781  0.33748  0.66382  1.0000
  H   H278      1.0  0.21854  0.35682  0.65532  1.0000
  C   C393      1.0  0.68609  0.87087  0.34284  1.0000
  C   C394      1.0  0.68383  0.85511  0.42174  1.0000
  C   C395      1.0  0.68473  0.82913  0.41793  1.0000
  C   C396      1.0  0.68719  0.81758  0.33503  1.0000
  N   N135      1.0  0.68240  0.81529  0.49648  1.0000
  C   C397      1.0  0.67914  0.82443  0.57833  1.0000
  C   C398      1.0  0.67739  0.84982  0.58190  1.0000
  N   N136      1.0  0.67986  0.86381  0.50351  1.0000
  C   C399      1.0  0.67854  0.80778  0.65786  1.0000
  H   H279      1.0  0.68048  0.78926  0.63872  1.0000
  C   C400      1.0  0.67267  0.86235  0.66381  1.0000
  H   H280      1.0  0.65332  0.86372  0.65533  1.0000
  C   C401      1.0  0.13933  0.81730  0.34319  1.0000
  C   C402      1.0  0.15508  0.83083  0.42207  1.0000
  C   C403      1.0  0.18107  0.85771  0.41828  1.0000
  C   C404      1.0  0.19267  0.87170  0.33541  1.0000
  N   N137      1.0  0.19488  0.86922  0.49685  1.0000
  C   C405      1.0  0.18572  0.85682  0.57870  1.0000
  C   C406      1.0  0.16033  0.82969  0.58224  1.0000
  N   N138      1.0  0.14635  0.81817  0.50384  1.0000
  C   C407      1.0  0.20235  0.87288  0.65825  1.0000
  H   H281      1.0  0.22087  0.89335  0.63913  1.0000
  C   C408      1.0  0.14779  0.81245  0.66415  1.0000
  H   H282      1.0  0.14637  0.79170  0.65563  1.0000
  C   C409      1.0  0.81932  0.68409  0.34288  1.0000
  C   C410      1.0  0.83282  0.68182  0.42179  1.0000
  C   C411      1.0  0.85971  0.68272  0.41802  1.0000
  C   C412      1.0  0.87374  0.68518  0.33515  1.0000
  N   N139      1.0  0.87119  0.68039  0.49660  1.0000
  C   C413      1.0  0.85877  0.67712  0.57843  1.0000
  C   C414      1.0  0.83164  0.67537  0.58194  1.0000
  N   N140      1.0  0.82014  0.67785  0.50354  1.0000
  C   C415      1.0  0.87482  0.67651  0.65799  1.0000
  H   H283      1.0  0.89528  0.67845  0.63888  1.0000
  C   C416      1.0  0.81438  0.67065  0.66383  1.0000
  H   H284      1.0  0.79366  0.65131  0.65530  1.0000
  C   C417      1.0  0.32616  0.13727  0.34290  1.0000
  C   C418      1.0  0.32838  0.15303  0.42175  1.0000
  C   C419      1.0  0.32747  0.17901  0.41790  1.0000
  C   C420      1.0  0.32505  0.19059  0.33501  1.0000
  N   N141      1.0  0.32978  0.19284  0.49644  1.0000
  C   C421      1.0  0.33304  0.18371  0.57831  1.0000
  C   C422      1.0  0.33479  0.15832  0.58190  1.0000
  N   N142      1.0  0.33234  0.14433  0.50353  1.0000
  C   C423      1.0  0.33361  0.20036  0.65783  1.0000
  H   H285      1.0  0.33166  0.21887  0.63866  1.0000
  C   C424      1.0  0.33952  0.14581  0.66383  1.0000
  H   H286      1.0  0.35885  0.14442  0.65534  1.0000
  C   C425      1.0  0.87296  0.19092  0.34272  1.0000
  C   C426      1.0  0.85717  0.17742  0.42161  1.0000
  C   C427      1.0  0.83118  0.15054  0.41784  1.0000
  C   C428      1.0  0.81961  0.13653  0.33496  1.0000
  N   N143      1.0  0.81735  0.13905  0.49641  1.0000
  C   C429      1.0  0.82650  0.15147  0.57824  1.0000
  C   C430      1.0  0.85190  0.17860  0.58176  1.0000
  N   N144      1.0  0.86588  0.19010  0.50336  1.0000
  C   C431      1.0  0.80985  0.13543  0.65779  1.0000
  H   H287      1.0  0.79133  0.11497  0.63868  1.0000
  C   C432      1.0  0.86443  0.19585  0.66365  1.0000
  H   H288      1.0  0.86582  0.21658  0.65512  1.0000
