data_image0
_chemical_formula_structural       C2HC2HC2H4C2HC2HC2H4C2HC2HC2H4C2HC2HC2H4C8H4C8H4C8H4C8H4C8H4C8H4C8H4C8H4C2HC2HC2H4C2HC2HC2H4C2HC2HC2H4C2HC2HC2H4C2HC2HC2H4C2HC2HC2H4C2HC2HC2H4C2HC2HC2H4C8H4C8H4C8H4C8H4C8H4C8H4C8H4C8H4C8H4C8H4C6H3C6H3C6H3C6H3C6H3C6H3C6H3C6H3C6H3C6H3C6H3C6H3C6H3C6H3C6H3C6H3C6H3C6H3C6H3C6H3C8H4C8H4C8H4C8H4C2HC2HC2H4C2HC2HC2H4C2HC2HC2H4C2HC2HC2H4C2HC2HC2H4C2HC2HC2H4C2HC2HC2H4C2HC2HC2H4C8H4C8H4C8H4C8H4C8H4C8H4C8H4C8H4C2HC2HC2H4C2HC2HC2H4C2HC2HC2H4C2HC2HC2H4C2HC2HC2H4C2HC2HC2H4C2HC2HC2H4C2HC2HC2H4C2HC2HC2H4C2HC2HC2H4
_chemical_formula_sum              "C540 H360"
_cell_length_a       66.5756
_cell_length_b       66.5756
_cell_length_c       14.9126
_cell_angle_alpha    90
_cell_angle_beta     90
_cell_angle_gamma    90

_space_group_name_H-M_alt    "P 1"
_space_group_IT_number       1

loop_
  _space_group_symop_operation_xyz
  'x, y, z'

loop_
  _atom_site_type_symbol
  _atom_site_label
  _atom_site_symmetry_multiplicity
  _atom_site_fract_x
  _atom_site_fract_y
  _atom_site_fract_z
  _atom_site_occupancy
  C   C1        1.0  0.32236  0.03617  0.26776  1.0000
  C   C2        1.0  0.30170  0.03124  0.26527  1.0000
  H   H1        1.0  0.29518  0.02711  0.20582  1.0000
  C   C3        1.0  0.38555  0.04738  0.27640  1.0000
  C   C4        1.0  0.36499  0.04202  0.27777  1.0000
  H   H2        1.0  0.39447  0.04248  0.22491  1.0000
  C   C5        1.0  0.35654  0.02931  0.20480  1.0000
  C   C6        1.0  0.33451  0.03520  0.18409  1.0000
  H   H3        1.0  0.35708  0.01361  0.22637  1.0000
  H   H4        1.0  0.36533  0.03065  0.14311  1.0000
  H   H5        1.0  0.32831  0.02431  0.13673  1.0000
  H   H6        1.0  0.33421  0.04999  0.15211  1.0000
  C   C7        1.0  0.68410  0.96988  0.26373  1.0000
  C   C8        1.0  0.70472  0.97496  0.26184  1.0000
  H   H7        1.0  0.71125  0.97931  0.20274  1.0000
  C   C9        1.0  0.62095  0.95821  0.27139  1.0000
  C   C10       1.0  0.64150  0.96358  0.27280  1.0000
  H   H8        1.0  0.61198  0.96328  0.22041  1.0000
  C   C11       1.0  0.64987  0.97659  0.20067  1.0000
  C   C12       1.0  0.67199  0.97102  0.17997  1.0000
  H   H9        1.0  0.64912  0.99222  0.22304  1.0000
  H   H10       1.0  0.64115  0.97530  0.13878  1.0000
  H   H11       1.0  0.67811  0.98217  0.13355  1.0000
  H   H12       1.0  0.67249  0.95637  0.14690  1.0000
  C   C13       1.0  0.96975  0.32239  0.26772  1.0000
  C   C14       1.0  0.97471  0.30173  0.26525  1.0000
  H   H13       1.0  0.97884  0.29522  0.20580  1.0000
  C   C15       1.0  0.95846  0.38556  0.27629  1.0000
  C   C16       1.0  0.96384  0.36501  0.27766  1.0000
  H   H14       1.0  0.96335  0.39449  0.22479  1.0000
  C   C17       1.0  0.97656  0.35657  0.20467  1.0000
  C   C18       1.0  0.97069  0.33454  0.18402  1.0000
  H   H15       1.0  0.99225  0.35714  0.22619  1.0000
  H   H16       1.0  0.97519  0.36535  0.14297  1.0000
  H   H17       1.0  0.98159  0.32834  0.13664  1.0000
  H   H18       1.0  0.95590  0.33421  0.15209  1.0000
  C   C19       1.0  0.03605  0.68413  0.26372  1.0000
  C   C20       1.0  0.03101  0.70476  0.26181  1.0000
  H   H19       1.0  0.02667  0.71129  0.20270  1.0000
  C   C21       1.0  0.04765  0.62097  0.27141  1.0000
  C   C22       1.0  0.04229  0.64152  0.27283  1.0000
  H   H20       1.0  0.04257  0.61201  0.22041  1.0000
  C   C23       1.0  0.02930  0.64991  0.20066  1.0000
  C   C24       1.0  0.03491  0.67201  0.17996  1.0000
  H   H21       1.0  0.01367  0.64918  0.22300  1.0000
  H   H22       1.0  0.03059  0.64119  0.13878  1.0000
  H   H23       1.0  0.02378  0.67815  0.13351  1.0000
  H   H24       1.0  0.04957  0.67250  0.14693  1.0000
  C   C25       1.0  0.21622  0.53240  0.34143  1.0000
  C   C26       1.0  0.20724  0.53856  0.26043  1.0000
  C   C27       1.0  0.18674  0.54347  0.25750  1.0000
  C   C28       1.0  0.17461  0.54285  0.33567  1.0000
  C   C29       1.0  0.15368  0.54845  0.33539  1.0000
  C   C30       1.0  0.14529  0.56128  0.26936  1.0000
  C   C31       1.0  0.12499  0.56698  0.27217  1.0000
  C   C32       1.0  0.11223  0.55999  0.34092  1.0000
  H   H25       1.0  0.15390  0.56722  0.21934  1.0000
  H   H26       1.0  0.11956  0.57617  0.22272  1.0000
  H   H27       1.0  0.21560  0.53966  0.20300  1.0000
  H   H28       1.0  0.18089  0.54745  0.19678  1.0000
  C   C33       1.0  0.78924  0.47333  0.33780  1.0000
  C   C34       1.0  0.79820  0.46709  0.25688  1.0000
  C   C35       1.0  0.81867  0.46201  0.25411  1.0000
  C   C36       1.0  0.83076  0.46255  0.33238  1.0000
  C   C37       1.0  0.85169  0.45693  0.33216  1.0000
  C   C38       1.0  0.86012  0.44411  0.26621  1.0000
  C   C39       1.0  0.88045  0.43848  0.26898  1.0000
  C   C40       1.0  0.89317  0.44563  0.33751  1.0000
  H   H29       1.0  0.85152  0.43814  0.21622  1.0000
  H   H30       1.0  0.88595  0.42932  0.21962  1.0000
  H   H31       1.0  0.78985  0.46604  0.19940  1.0000
  H   H32       1.0  0.82452  0.45800  0.19344  1.0000
  C   C41       1.0  0.53232  0.78963  0.34137  1.0000
  C   C42       1.0  0.53850  0.79861  0.26040  1.0000
  C   C43       1.0  0.54343  0.81911  0.25750  1.0000
  C   C44       1.0  0.54281  0.83123  0.33568  1.0000
  C   C45       1.0  0.54843  0.85216  0.33543  1.0000
  C   C46       1.0  0.56126  0.86055  0.26943  1.0000
  C   C47       1.0  0.56698  0.88084  0.27227  1.0000
  C   C48       1.0  0.55999  0.89360  0.34101  1.0000
  H   H33       1.0  0.56720  0.85193  0.21941  1.0000
  H   H34       1.0  0.57617  0.88627  0.22283  1.0000
  H   H35       1.0  0.53960  0.79025  0.20296  1.0000
  H   H36       1.0  0.54742  0.82496  0.19680  1.0000
  C   C49       1.0  0.47326  0.21661  0.33775  1.0000
  C   C50       1.0  0.46700  0.20765  0.25685  1.0000
  C   C51       1.0  0.46194  0.18718  0.25408  1.0000
  C   C52       1.0  0.46250  0.17508  0.33233  1.0000
  C   C53       1.0  0.45690  0.15415  0.33211  1.0000
  C   C54       1.0  0.44407  0.14571  0.26618  1.0000
  C   C55       1.0  0.43846  0.12538  0.26896  1.0000
  C   C56       1.0  0.44562  0.11266  0.33746  1.0000
  H   H37       1.0  0.43809  0.15431  0.21622  1.0000
  H   H38       1.0  0.42929  0.11988  0.21964  1.0000
  H   H39       1.0  0.46595  0.21600  0.19937  1.0000
  H   H40       1.0  0.45792  0.18132  0.19342  1.0000
  C   C57       1.0  0.17965  0.16039  0.33023  1.0000
  C   C58       1.0  0.17730  0.14756  0.25574  1.0000
  C   C59       1.0  0.18417  0.12754  0.25881  1.0000
  C   C60       1.0  0.19319  0.11936  0.33702  1.0000
  C   C61       1.0  0.20180  0.09934  0.34059  1.0000
  C   C62       1.0  0.19729  0.08390  0.27792  1.0000
  C   C63       1.0  0.20717  0.06515  0.27986  1.0000
  C   C64       1.0  0.22211  0.06105  0.34447  1.0000
  H   H41       1.0  0.18690  0.08613  0.22863  1.0000
  H   H42       1.0  0.20415  0.05492  0.23044  1.0000
  H   H43       1.0  0.17119  0.15292  0.19746  1.0000
  H   H44       1.0  0.18301  0.11929  0.20139  1.0000
  C   C65       1.0  0.82619  0.84544  0.33018  1.0000
  C   C66       1.0  0.82869  0.85828  0.25581  1.0000
  C   C67       1.0  0.82192  0.87833  0.25882  1.0000
  C   C68       1.0  0.81287  0.88655  0.33689  1.0000
  C   C69       1.0  0.80439  0.90662  0.34037  1.0000
  C   C70       1.0  0.80904  0.92203  0.27779  1.0000
  C   C71       1.0  0.79924  0.94082  0.27948  1.0000
  C   C72       1.0  0.78426  0.94499  0.34377  1.0000
  H   H45       1.0  0.81946  0.91975  0.22867  1.0000
  H   H46       1.0  0.80234  0.95102  0.23004  1.0000
  H   H47       1.0  0.83485  0.85290  0.19765  1.0000
  H   H48       1.0  0.82320  0.88658  0.20146  1.0000
  C   C73       1.0  0.84554  0.17981  0.33019  1.0000
  C   C74       1.0  0.85837  0.17744  0.25573  1.0000
  C   C75       1.0  0.87840  0.18429  0.25882  1.0000
  C   C76       1.0  0.88659  0.19330  0.33705  1.0000
  C   C77       1.0  0.90662  0.20189  0.34064  1.0000
  C   C78       1.0  0.92205  0.19737  0.27798  1.0000
  C   C79       1.0  0.94080  0.20722  0.27991  1.0000
  C   C80       1.0  0.94492  0.22216  0.34452  1.0000
  H   H49       1.0  0.91981  0.18698  0.22867  1.0000
  H   H50       1.0  0.95103  0.20420  0.23048  1.0000
  H   H51       1.0  0.85301  0.17133  0.19745  1.0000
  H   H52       1.0  0.88665  0.18312  0.20142  1.0000
  C   C81       1.0  0.16049  0.82634  0.33017  1.0000
  C   C82       1.0  0.14764  0.82885  0.25584  1.0000
  C   C83       1.0  0.12760  0.82206  0.25884  1.0000
  C   C84       1.0  0.11940  0.81298  0.33687  1.0000
  C   C85       1.0  0.09934  0.80446  0.34033  1.0000
  C   C86       1.0  0.08392  0.80912  0.27781  1.0000
  C   C87       1.0  0.06513  0.79930  0.27950  1.0000
  C   C88       1.0  0.06099  0.78429  0.34370  1.0000
  H   H53       1.0  0.08618  0.81956  0.22877  1.0000
  H   H54       1.0  0.05492  0.80241  0.23012  1.0000
  H   H55       1.0  0.15301  0.83502  0.19770  1.0000
  H   H56       1.0  0.11934  0.82334  0.20150  1.0000
  C   C89       1.0  0.31008  0.63246  0.26366  1.0000
  C   C90       1.0  0.31665  0.65266  0.26767  1.0000
  H   H57       1.0  0.31443  0.66190  0.21363  1.0000
  C   C91       1.0  0.27936  0.57601  0.27007  1.0000
  C   C92       1.0  0.28947  0.59468  0.26904  1.0000
  H   H58       1.0  0.26817  0.57351  0.22425  1.0000
  C   C93       1.0  0.28303  0.61025  0.20335  1.0000
  C   C94       1.0  0.30037  0.62483  0.18060  1.0000
  H   H59       1.0  0.27047  0.61866  0.23206  1.0000
  H   H60       1.0  0.27789  0.60335  0.14084  1.0000
  H   H61       1.0  0.29446  0.63702  0.13911  1.0000
  H   H62       1.0  0.31172  0.61685  0.14129  1.0000
  C   C95       1.0  0.69541  0.37339  0.26301  1.0000
  C   C96       1.0  0.68891  0.35318  0.26730  1.0000
  H   H63       1.0  0.69103  0.34395  0.21316  1.0000
  C   C97       1.0  0.72593  0.42995  0.26789  1.0000
  C   C98       1.0  0.71588  0.41124  0.26737  1.0000
  H   H64       1.0  0.73701  0.43248  0.22156  1.0000
  C   C99       1.0  0.72224  0.39569  0.20146  1.0000
  C   C100      1.0  0.70491  0.38105  0.17951  1.0000
  H   H65       1.0  0.73490  0.38733  0.22966  1.0000
  H   H66       1.0  0.72722  0.40259  0.13871  1.0000
  H   H67       1.0  0.71076  0.36888  0.13778  1.0000
  H   H68       1.0  0.69344  0.38899  0.14069  1.0000
  C   C101      1.0  0.63239  0.69578  0.26369  1.0000
  C   C102      1.0  0.65259  0.68922  0.26769  1.0000
  H   H69       1.0  0.66182  0.69142  0.21363  1.0000
  C   C103      1.0  0.57593  0.72648  0.27002  1.0000
  C   C104      1.0  0.59460  0.71637  0.26902  1.0000
  H   H70       1.0  0.57342  0.73766  0.22415  1.0000
  C   C105      1.0  0.61016  0.72281  0.20327  1.0000
  C   C106      1.0  0.62475  0.70547  0.18059  1.0000
  H   H71       1.0  0.61857  0.73538  0.23193  1.0000
  H   H72       1.0  0.60326  0.72793  0.14076  1.0000
  H   H73       1.0  0.63693  0.71137  0.13906  1.0000
  H   H74       1.0  0.61677  0.69411  0.14134  1.0000
  C   C107      1.0  0.37333  0.31046  0.26291  1.0000
  C   C108      1.0  0.35311  0.31697  0.26720  1.0000
  H   H75       1.0  0.34388  0.31485  0.21306  1.0000
  C   C109      1.0  0.42987  0.27992  0.26784  1.0000
  C   C110      1.0  0.41117  0.28998  0.26731  1.0000
  H   H76       1.0  0.43240  0.26885  0.22152  1.0000
  C   C111      1.0  0.39562  0.28363  0.20138  1.0000
  C   C112      1.0  0.38099  0.30097  0.17941  1.0000
  H   H77       1.0  0.38725  0.27098  0.22958  1.0000
  H   H78       1.0  0.40252  0.27864  0.13864  1.0000
  H   H79       1.0  0.36881  0.29511  0.13768  1.0000
  H   H80       1.0  0.38893  0.31242  0.14059  1.0000
  C   C113      1.0  0.22019  0.95618  0.26346  1.0000
  C   C114      1.0  0.22484  0.97697  0.26224  1.0000
  H   H81       1.0  0.22347  0.98491  0.20374  1.0000
  C   C115      1.0  0.20301  0.89404  0.26866  1.0000
  C   C116      1.0  0.20744  0.91485  0.27066  1.0000
  H   H82       1.0  0.19409  0.88850  0.21845  1.0000
  C   C117      1.0  0.19890  0.92838  0.20085  1.0000
  C   C118      1.0  0.21323  0.94613  0.17990  1.0000
  H   H83       1.0  0.18459  0.93426  0.22546  1.0000
  H   H84       1.0  0.19598  0.92025  0.13849  1.0000
  H   H85       1.0  0.20539  0.95668  0.13595  1.0000
  H   H86       1.0  0.22640  0.94051  0.14391  1.0000
  C   C119      1.0  0.78595  0.04994  0.26199  1.0000
  C   C120      1.0  0.78134  0.02915  0.26050  1.0000
  H   H87       1.0  0.78263  0.02127  0.20178  1.0000
  C   C121      1.0  0.80307  0.11209  0.26788  1.0000
  C   C122      1.0  0.79868  0.09127  0.26964  1.0000
  H   H88       1.0  0.81191  0.11768  0.21753  1.0000
  C   C123      1.0  0.80712  0.07781  0.19931  1.0000
  C   C124      1.0  0.79276  0.06009  0.17841  1.0000
  H   H89       1.0  0.82147  0.07192  0.22338  1.0000
  H   H90       1.0  0.80995  0.08602  0.13703  1.0000
  H   H91       1.0  0.80053  0.04959  0.13395  1.0000
  H   H92       1.0  0.77953  0.06574  0.14301  1.0000
  C   C125      1.0  0.04976  0.22015  0.26359  1.0000
  C   C126      1.0  0.02898  0.22484  0.26235  1.0000
  H   H93       1.0  0.02104  0.22346  0.20385  1.0000
  C   C127      1.0  0.11189  0.20287  0.26883  1.0000
  C   C128      1.0  0.09108  0.20732  0.27083  1.0000
  H   H94       1.0  0.11741  0.19394  0.21862  1.0000
  C   C129      1.0  0.07753  0.19881  0.20103  1.0000
  C   C130      1.0  0.05981  0.21316  0.18006  1.0000
  H   H95       1.0  0.07163  0.18450  0.22566  1.0000
  H   H96       1.0  0.08566  0.19587  0.13868  1.0000
  H   H97       1.0  0.04924  0.20533  0.13612  1.0000
  H   H98       1.0  0.06544  0.22631  0.14402  1.0000
  C   C131      1.0  0.95601  0.78591  0.26206  1.0000
  C   C132      1.0  0.97681  0.78133  0.26063  1.0000
  H   H99       1.0  0.98469  0.78263  0.20192  1.0000
  C   C133      1.0  0.89383  0.80293  0.26782  1.0000
  C   C134      1.0  0.91466  0.79856  0.26959  1.0000
  H   H100      1.0  0.88823  0.81177  0.21747  1.0000
  C   C135      1.0  0.92811  0.80702  0.19927  1.0000
  C   C136      1.0  0.94586  0.79269  0.17845  1.0000
  H   H101      1.0  0.93398  0.82138  0.22332  1.0000
  H   H102      1.0  0.91991  0.80982  0.13697  1.0000
  H   H103      1.0  0.95635  0.80047  0.13398  1.0000
  H   H104      1.0  0.94024  0.77945  0.14306  1.0000
  C   C137      1.0  0.27378  0.48668  0.34458  1.0000
  C   C138      1.0  0.27138  0.47526  0.26561  1.0000
  C   C139      1.0  0.27580  0.45460  0.26443  1.0000
  C   C140      1.0  0.28239  0.44437  0.34253  1.0000
  C   C141      1.0  0.28634  0.42297  0.34437  1.0000
  C   C142      1.0  0.27817  0.40936  0.28081  1.0000
  C   C143      1.0  0.28212  0.38862  0.28494  1.0000
  C   C144      1.0  0.29456  0.38048  0.35247  1.0000
  H   H105      1.0  0.26885  0.41424  0.23104  1.0000
  H   H106      1.0  0.27617  0.37952  0.23639  1.0000
  H   H107      1.0  0.26596  0.48185  0.20847  1.0000
  H   H108      1.0  0.27400  0.44720  0.20505  1.0000
  C   C145      1.0  0.73182  0.51926  0.34256  1.0000
  C   C146      1.0  0.73427  0.53074  0.26383  1.0000
  C   C147      1.0  0.72987  0.55141  0.26298  1.0000
  C   C148      1.0  0.72327  0.56158  0.34121  1.0000
  C   C149      1.0  0.71933  0.58298  0.34336  1.0000
  C   C150      1.0  0.72751  0.59663  0.28003  1.0000
  C   C151      1.0  0.72356  0.61737  0.28439  1.0000
  C   C152      1.0  0.71109  0.62547  0.35195  1.0000
  H   H109      1.0  0.73685  0.59179  0.23026  1.0000
  H   H110      1.0  0.72953  0.62650  0.23599  1.0000
  H   H111      1.0  0.73969  0.52419  0.20661  1.0000
  H   H112      1.0  0.73171  0.55886  0.20374  1.0000
  C   C153      1.0  0.48659  0.73207  0.34462  1.0000
  C   C154      1.0  0.47519  0.73444  0.26560  1.0000
  C   C155      1.0  0.45453  0.72999  0.26437  1.0000
  C   C156      1.0  0.44429  0.72340  0.34246  1.0000
  C   C157      1.0  0.42290  0.71943  0.34423  1.0000
  C   C158      1.0  0.40930  0.72756  0.28061  1.0000
  C   C159      1.0  0.38855  0.72360  0.28469  1.0000
  C   C160      1.0  0.38042  0.71115  0.35225  1.0000
  H   H113      1.0  0.41417  0.73689  0.23083  1.0000
  H   H114      1.0  0.37945  0.72954  0.23612  1.0000
  H   H115      1.0  0.48179  0.73985  0.20846  1.0000
  H   H116      1.0  0.44714  0.73178  0.20496  1.0000
  C   C161      1.0  0.51918  0.27402  0.34261  1.0000
  C   C162      1.0  0.53066  0.27157  0.26389  1.0000
  C   C163      1.0  0.55133  0.27594  0.26309  1.0000
  C   C164      1.0  0.56151  0.28253  0.34135  1.0000
  C   C165      1.0  0.58291  0.28643  0.34356  1.0000
  C   C166      1.0  0.59655  0.27824  0.28027  1.0000
  C   C167      1.0  0.61730  0.28216  0.28467  1.0000
  C   C168      1.0  0.62540  0.29463  0.35223  1.0000
  H   H117      1.0  0.59171  0.26891  0.23047  1.0000
  H   H118      1.0  0.62643  0.27620  0.23627  1.0000
  H   H119      1.0  0.52412  0.26615  0.20664  1.0000
  H   H120      1.0  0.55879  0.27410  0.20386  1.0000
  C   C169      1.0  0.19661  0.23236  0.33158  1.0000
  C   C170      1.0  0.20902  0.23497  0.25579  1.0000
  C   C171      1.0  0.22393  0.24995  0.25408  1.0000
  C   C172      1.0  0.22747  0.26268  0.32878  1.0000
  C   C173      1.0  0.24281  0.27816  0.32941  1.0000
  C   C174      1.0  0.25936  0.27828  0.26943  1.0000
  C   C175      1.0  0.27427  0.29325  0.27318  1.0000
  C   C176      1.0  0.27337  0.30895  0.33682  1.0000
  H   H121      1.0  0.26123  0.26712  0.22328  1.0000
  H   H122      1.0  0.28584  0.29262  0.22806  1.0000
  H   H123      1.0  0.20708  0.22611  0.20032  1.0000
  H   H124      1.0  0.23197  0.25149  0.19624  1.0000
  C   C177      1.0  0.80920  0.77347  0.33180  1.0000
  C   C178      1.0  0.79680  0.77088  0.25597  1.0000
  C   C179      1.0  0.78187  0.75591  0.25424  1.0000
  C   C180      1.0  0.77832  0.74318  0.32892  1.0000
  C   C181      1.0  0.76295  0.72773  0.32952  1.0000
  C   C182      1.0  0.74640  0.72763  0.26955  1.0000
  C   C183      1.0  0.73147  0.71269  0.27327  1.0000
  C   C184      1.0  0.73234  0.69698  0.33690  1.0000
  H   H125      1.0  0.74455  0.73879  0.22341  1.0000
  H   H126      1.0  0.71990  0.71334  0.22816  1.0000
  H   H127      1.0  0.79874  0.77974  0.20053  1.0000
  H   H128      1.0  0.77384  0.75439  0.19639  1.0000
  C   C185      1.0  0.77355  0.19670  0.33170  1.0000
  C   C186      1.0  0.77093  0.20910  0.25589  1.0000
  C   C187      1.0  0.75594  0.22400  0.25418  1.0000
  C   C188      1.0  0.74321  0.22753  0.32888  1.0000
  C   C189      1.0  0.72773  0.24287  0.32951  1.0000
  C   C190      1.0  0.72760  0.25942  0.26953  1.0000
  C   C191      1.0  0.71264  0.27433  0.27330  1.0000
  C   C192      1.0  0.69694  0.27344  0.33697  1.0000
  H   H129      1.0  0.73875  0.26129  0.22337  1.0000
  H   H130      1.0  0.71326  0.28590  0.22819  1.0000
  H   H131      1.0  0.77979  0.20717  0.20042  1.0000
  H   H132      1.0  0.75439  0.23203  0.19633  1.0000
  C   C193      1.0  0.23244  0.80929  0.33165  1.0000
  C   C194      1.0  0.23504  0.79690  0.25582  1.0000
  C   C195      1.0  0.24999  0.78196  0.25410  1.0000
  C   C196      1.0  0.26271  0.77839  0.32881  1.0000
  C   C197      1.0  0.27817  0.76302  0.32942  1.0000
  C   C198      1.0  0.27826  0.74648  0.26941  1.0000
  C   C199      1.0  0.29321  0.73155  0.27312  1.0000
  C   C200      1.0  0.30891  0.73241  0.33678  1.0000
  H   H133      1.0  0.26711  0.74464  0.22323  1.0000
  H   H134      1.0  0.29256  0.71998  0.22798  1.0000
  H   H135      1.0  0.22618  0.79885  0.20036  1.0000
  H   H136      1.0  0.25152  0.77393  0.19625  1.0000
  C   C201      1.0  0.54156  0.96510  0.33606  1.0000
  C   C202      1.0  0.53900  0.97708  0.25902  1.0000
  C   C203      1.0  0.52427  0.99218  0.25695  1.0000
  C   C204      1.0  0.51193  0.99620  0.33242  1.0000
  C   C205      1.0  0.49649  0.01142  0.33198  1.0000
  C   C206      1.0  0.49651  0.02778  0.27105  1.0000
  C   C207      1.0  0.48138  0.04247  0.27291  1.0000
  C   C208      1.0  0.46557  0.04143  0.33576  1.0000
  H   H137      1.0  0.50780  0.02961  0.22548  1.0000
  H   H138      1.0  0.48193  0.05389  0.22698  1.0000
  H   H139      1.0  0.54756  0.97461  0.20303  1.0000
  H   H140      1.0  0.52251  0.99985  0.19824  1.0000
  C   C209      1.0  0.04073  0.54156  0.33603  1.0000
  C   C210      1.0  0.02876  0.53900  0.25898  1.0000
  C   C211      1.0  0.01366  0.52427  0.25691  1.0000
  C   C212      1.0  0.00963  0.51194  0.33240  1.0000
  C   C213      1.0  0.99441  0.49650  0.33196  1.0000
  C   C214      1.0  0.97806  0.49651  0.27102  1.0000
  C   C215      1.0  0.96336  0.48139  0.27289  1.0000
  C   C216      1.0  0.96440  0.46557  0.33575  1.0000
  H   H141      1.0  0.97623  0.50780  0.22544  1.0000
  H   H142      1.0  0.95194  0.48194  0.22695  1.0000
  H   H143      1.0  0.03123  0.54755  0.20298  1.0000
  H   H144      1.0  0.00599  0.52250  0.19819  1.0000
  C   C217      1.0  0.26878  0.02942  0.33890  1.0000
  C   C218      1.0  0.25565  0.04601  0.34043  1.0000
  C   C219      1.0  0.23454  0.04354  0.33937  1.0000
  C   C220      1.0  0.22673  0.02372  0.33520  1.0000
  C   C221      1.0  0.23967  0.00679  0.33533  1.0000
  C   C222      1.0  0.26069  0.00988  0.33671  1.0000
  H   H145      1.0  0.21150  0.02157  0.33643  1.0000
  H   H146      1.0  0.27023  0.99779  0.33760  1.0000
  H   H147      1.0  0.26167  0.06019  0.34183  1.0000
  C   C223      1.0  0.73760  0.97660  0.33599  1.0000
  C   C224      1.0  0.75074  0.96002  0.33825  1.0000
  C   C225      1.0  0.77185  0.96250  0.33807  1.0000
  C   C226      1.0  0.77966  0.98232  0.33399  1.0000
  C   C227      1.0  0.76670  0.99924  0.33344  1.0000
  C   C228      1.0  0.74569  0.99614  0.33391  1.0000
  H   H148      1.0  0.79488  0.98448  0.33601  1.0000
  H   H149      1.0  0.73614  0.00823  0.33442  1.0000
  H   H150      1.0  0.74472  0.94584  0.33957  1.0000
  C   C229      1.0  0.97656  0.26883  0.33892  1.0000
  C   C230      1.0  0.95996  0.25570  0.34046  1.0000
  C   C231      1.0  0.96243  0.23458  0.33939  1.0000
  C   C232      1.0  0.98225  0.22677  0.33513  1.0000
  C   C233      1.0  0.99918  0.23971  0.33542  1.0000
  C   C234      1.0  0.99610  0.26073  0.33678  1.0000
  H   H151      1.0  0.98440  0.21155  0.33652  1.0000
  H   H152      1.0  0.00819  0.27026  0.33770  1.0000
  H   H153      1.0  0.94579  0.26172  0.34185  1.0000
  C   C235      1.0  0.02937  0.73763  0.33599  1.0000
  C   C236      1.0  0.04596  0.75077  0.33821  1.0000
  C   C237      1.0  0.04348  0.77188  0.33806  1.0000
  C   C238      1.0  0.02365  0.77969  0.33412  1.0000
  C   C239      1.0  0.00673  0.76673  0.33362  1.0000
  C   C240      1.0  0.00983  0.74572  0.33403  1.0000
  H   H154      1.0  0.02150  0.79491  0.33607  1.0000
  H   H155      1.0  0.99774  0.73617  0.33451  1.0000
  H   H156      1.0  0.06014  0.74476  0.33944  1.0000
  C   C241      1.0  0.23721  0.52924  0.34537  1.0000
  C   C242      1.0  0.25029  0.54585  0.34180  1.0000
  C   C243      1.0  0.27142  0.54346  0.34115  1.0000
  C   C244      1.0  0.27928  0.52366  0.34590  1.0000
  C   C245      1.0  0.26638  0.50670  0.34811  1.0000
  C   C246      1.0  0.24536  0.50973  0.34818  1.0000
  H   H157      1.0  0.29450  0.52152  0.34337  1.0000
  H   H158      1.0  0.23586  0.49760  0.34855  1.0000
  H   H159      1.0  0.24422  0.56000  0.34010  1.0000
  C   C247      1.0  0.76828  0.47658  0.34184  1.0000
  C   C248      1.0  0.75514  0.46001  0.33880  1.0000
  C   C249      1.0  0.73402  0.46246  0.33886  1.0000
  C   C250      1.0  0.72622  0.48228  0.34390  1.0000
  C   C251      1.0  0.73917  0.49920  0.34572  1.0000
  C   C252      1.0  0.76018  0.49612  0.34502  1.0000
  H   H160      1.0  0.71100  0.48446  0.34201  1.0000
  H   H161      1.0  0.76972  0.50821  0.34521  1.0000
  H   H162      1.0  0.76118  0.44584  0.33700  1.0000
  C   C253      1.0  0.52916  0.76864  0.34530  1.0000
  C   C254      1.0  0.54577  0.75555  0.34174  1.0000
  C   C255      1.0  0.54338  0.73442  0.34111  1.0000
  C   C256      1.0  0.52358  0.72657  0.34586  1.0000
  C   C257      1.0  0.50662  0.73947  0.34814  1.0000
  C   C258      1.0  0.50965  0.76049  0.34818  1.0000
  H   H163      1.0  0.52144  0.71135  0.34342  1.0000
  H   H164      1.0  0.49752  0.76999  0.34856  1.0000
  H   H165      1.0  0.55992  0.76163  0.34002  1.0000
  C   C259      1.0  0.47650  0.23758  0.34178  1.0000
  C   C260      1.0  0.45993  0.25071  0.33874  1.0000
  C   C261      1.0  0.46238  0.27183  0.33881  1.0000
  C   C262      1.0  0.48220  0.27963  0.34389  1.0000
  C   C263      1.0  0.49912  0.26668  0.34572  1.0000
  C   C264      1.0  0.49604  0.24566  0.34499  1.0000
  H   H166      1.0  0.48438  0.29485  0.34202  1.0000
  H   H167      1.0  0.50813  0.23612  0.34523  1.0000
  H   H168      1.0  0.44576  0.24467  0.33693  1.0000
  C   C265      1.0  0.18184  0.21685  0.33294  1.0000
  C   C266      1.0  0.18776  0.19646  0.32973  1.0000
  C   C267      1.0  0.17340  0.18082  0.32730  1.0000
  C   C268      1.0  0.15278  0.18586  0.32665  1.0000
  C   C269      1.0  0.14629  0.20611  0.33130  1.0000
  C   C270      1.0  0.16108  0.22141  0.33548  1.0000
  H   H169      1.0  0.14234  0.17455  0.32657  1.0000
  H   H170      1.0  0.15668  0.23615  0.33686  1.0000
  H   H171      1.0  0.20275  0.19294  0.32963  1.0000
  C   C271      1.0  0.82398  0.78897  0.33319  1.0000
  C   C272      1.0  0.81806  0.80936  0.33002  1.0000
  C   C273      1.0  0.83241  0.82500  0.32739  1.0000
  C   C274      1.0  0.85303  0.81996  0.32641  1.0000
  C   C275      1.0  0.85953  0.79972  0.33112  1.0000
  C   C276      1.0  0.84474  0.78441  0.33554  1.0000
  H   H172      1.0  0.86348  0.83127  0.32627  1.0000
  H   H173      1.0  0.84915  0.76967  0.33691  1.0000
  H   H174      1.0  0.80307  0.81289  0.33002  1.0000
  C   C277      1.0  0.78907  0.18194  0.33306  1.0000
  C   C278      1.0  0.80945  0.18789  0.32986  1.0000
  C   C279      1.0  0.82511  0.17355  0.32728  1.0000
  C   C280      1.0  0.82009  0.15293  0.32636  1.0000
  C   C281      1.0  0.79986  0.14641  0.33110  1.0000
  C   C282      1.0  0.78453  0.16118  0.33546  1.0000
  H   H175      1.0  0.83141  0.14250  0.32627  1.0000
  H   H176      1.0  0.76980  0.15676  0.33684  1.0000
  H   H177      1.0  0.81296  0.20288  0.32988  1.0000
  C   C283      1.0  0.21695  0.82409  0.33304  1.0000
  C   C284      1.0  0.19656  0.81819  0.32984  1.0000
  C   C285      1.0  0.18093  0.83256  0.32734  1.0000
  C   C286      1.0  0.18599  0.85317  0.32656  1.0000
  C   C287      1.0  0.20624  0.85965  0.33125  1.0000
  C   C288      1.0  0.22154  0.84484  0.33546  1.0000
  H   H178      1.0  0.17469  0.86363  0.32651  1.0000
  H   H179      1.0  0.23628  0.84923  0.33689  1.0000
  H   H180      1.0  0.19302  0.80321  0.32979  1.0000
  C   C289      1.0  0.32384  0.71689  0.34170  1.0000
  C   C290      1.0  0.31822  0.69637  0.34081  1.0000
  C   C291      1.0  0.33259  0.68080  0.34784  1.0000
  C   C292      1.0  0.35311  0.68602  0.35486  1.0000
  C   C293      1.0  0.35946  0.70632  0.35291  1.0000
  C   C294      1.0  0.34459  0.72151  0.34703  1.0000
  H   H181      1.0  0.36364  0.67480  0.35667  1.0000
  H   H182      1.0  0.34899  0.73625  0.34564  1.0000
  H   H183      1.0  0.30330  0.69264  0.33756  1.0000
  C   C295      1.0  0.68199  0.28894  0.34195  1.0000
  C   C296      1.0  0.68759  0.30946  0.34112  1.0000
  C   C297      1.0  0.67320  0.32501  0.34806  1.0000
  C   C298      1.0  0.65268  0.31978  0.35494  1.0000
  C   C299      1.0  0.64635  0.29947  0.35306  1.0000
  C   C300      1.0  0.66124  0.28430  0.34724  1.0000
  H   H184      1.0  0.64214  0.33098  0.35673  1.0000
  H   H185      1.0  0.65686  0.26955  0.34582  1.0000
  H   H186      1.0  0.70250  0.31322  0.33781  1.0000
  C   C301      1.0  0.71682  0.68205  0.34181  1.0000
  C   C302      1.0  0.69630  0.68767  0.34099  1.0000
  C   C303      1.0  0.68073  0.67329  0.34788  1.0000
  C   C304      1.0  0.68595  0.65277  0.35472  1.0000
  C   C305      1.0  0.70625  0.64642  0.35280  1.0000
  C   C306      1.0  0.72144  0.66130  0.34703  1.0000
  H   H187      1.0  0.67474  0.64223  0.35651  1.0000
  H   H188      1.0  0.73618  0.65690  0.34561  1.0000
  H   H189      1.0  0.69257  0.70258  0.33777  1.0000
  C   C307      1.0  0.28887  0.32389  0.34181  1.0000
  C   C308      1.0  0.30940  0.31829  0.34095  1.0000
  C   C309      1.0  0.32495  0.33269  0.34796  1.0000
  C   C310      1.0  0.31972  0.35320  0.35495  1.0000
  C   C311      1.0  0.29941  0.35953  0.35310  1.0000
  C   C312      1.0  0.28424  0.34464  0.34718  1.0000
  H   H190      1.0  0.33092  0.36374  0.35682  1.0000
  H   H191      1.0  0.26949  0.34903  0.34582  1.0000
  H   H192      1.0  0.31316  0.30339  0.33760  1.0000
  C   C313      1.0  0.44027  0.09202  0.33897  1.0000
  C   C314      1.0  0.41989  0.08611  0.34036  1.0000
  C   C315      1.0  0.41439  0.06560  0.34061  1.0000
  C   C316      1.0  0.42971  0.05092  0.33872  1.0000
  C   C317      1.0  0.45025  0.05637  0.33752  1.0000
  C   C318      1.0  0.45526  0.07701  0.33805  1.0000
  H   H193      1.0  0.42584  0.03602  0.33834  1.0000
  H   H194      1.0  0.47007  0.08121  0.33739  1.0000
  H   H195      1.0  0.40891  0.09689  0.34122  1.0000
  C   C319      1.0  0.56565  0.91418  0.34240  1.0000
  C   C320      1.0  0.58614  0.91975  0.33992  1.0000
  C   C321      1.0  0.59204  0.94014  0.33650  1.0000
  C   C322      1.0  0.57697  0.95508  0.33378  1.0000
  C   C323      1.0  0.55643  0.94991  0.33794  1.0000
  C   C324      1.0  0.55092  0.92946  0.34326  1.0000
  H   H196      1.0  0.58101  0.96994  0.33224  1.0000
  H   H197      1.0  0.53600  0.92565  0.34368  1.0000
  H   H198      1.0  0.59693  0.90878  0.34038  1.0000
  C   C325      1.0  0.91382  0.44027  0.33899  1.0000
  C   C326      1.0  0.91973  0.41990  0.34035  1.0000
  C   C327      1.0  0.94023  0.41440  0.34056  1.0000
  C   C328      1.0  0.95492  0.42972  0.33867  1.0000
  C   C329      1.0  0.94946  0.45026  0.33752  1.0000
  C   C330      1.0  0.92882  0.45527  0.33807  1.0000
  H   H199      1.0  0.96982  0.42585  0.33829  1.0000
  H   H200      1.0  0.92462  0.47008  0.33743  1.0000
  H   H201      1.0  0.90894  0.40891  0.34120  1.0000
  C   C331      1.0  0.09165  0.56565  0.34232  1.0000
  C   C332      1.0  0.08608  0.58614  0.33990  1.0000
  C   C333      1.0  0.06570  0.59204  0.33651  1.0000
  C   C334      1.0  0.05075  0.57698  0.33383  1.0000
  C   C335      1.0  0.05592  0.55643  0.33791  1.0000
  C   C336      1.0  0.07637  0.55092  0.34312  1.0000
  H   H202      1.0  0.03590  0.58102  0.33226  1.0000
  H   H203      1.0  0.08018  0.53600  0.34360  1.0000
  H   H204      1.0  0.09706  0.59694  0.34035  1.0000
  C   C337      1.0  0.28976  0.03264  0.34305  1.0000
  C   C338      1.0  0.29874  0.03878  0.42409  1.0000
  C   C339      1.0  0.31925  0.04368  0.42704  1.0000
  C   C340      1.0  0.33137  0.04306  0.34888  1.0000
  C   C341      1.0  0.35234  0.04853  0.34922  1.0000
  C   C342      1.0  0.36084  0.06128  0.41530  1.0000
  C   C343      1.0  0.38116  0.06692  0.41223  1.0000
  C   C344      1.0  0.39384  0.05989  0.34327  1.0000
  H   H205      1.0  0.35227  0.06725  0.46539  1.0000
  H   H206      1.0  0.38667  0.07612  0.46146  1.0000
  H   H207      1.0  0.29037  0.03985  0.48153  1.0000
  H   H208      1.0  0.32511  0.04761  0.48778  1.0000
  C   C345      1.0  0.71663  0.97335  0.33967  1.0000
  C   C346      1.0  0.70764  0.96689  0.42017  1.0000
  C   C347      1.0  0.68717  0.96185  0.42252  1.0000
  C   C348      1.0  0.67509  0.96263  0.34423  1.0000
  C   C349      1.0  0.65418  0.95696  0.34395  1.0000
  C   C350      1.0  0.64575  0.94399  0.40931  1.0000
  C   C351      1.0  0.62543  0.93835  0.40622  1.0000
  C   C352      1.0  0.61269  0.94554  0.33779  1.0000
  H   H209      1.0  0.65433  0.93795  0.45919  1.0000
  H   H210      1.0  0.61995  0.92912  0.45541  1.0000
  H   H211      1.0  0.71597  0.96566  0.47763  1.0000
  H   H212      1.0  0.68130  0.95766  0.48294  1.0000
  C   C353      1.0  0.97333  0.28980  0.34307  1.0000
  C   C354      1.0  0.96720  0.29878  0.42410  1.0000
  C   C355      1.0  0.96227  0.31928  0.42703  1.0000
  C   C356      1.0  0.96286  0.33140  0.34884  1.0000
  C   C357      1.0  0.95736  0.35236  0.34916  1.0000
  C   C358      1.0  0.94461  0.36085  0.41525  1.0000
  C   C359      1.0  0.93894  0.38116  0.41218  1.0000
  C   C360      1.0  0.94595  0.39385  0.34319  1.0000
  H   H213      1.0  0.93866  0.35228  0.46538  1.0000
  H   H214      1.0  0.92975  0.38667  0.46143  1.0000
  H   H215      1.0  0.96614  0.29042  0.48155  1.0000
  H   H216      1.0  0.95834  0.32515  0.48777  1.0000
  C   C361      1.0  0.03262  0.71666  0.33963  1.0000
  C   C362      1.0  0.03905  0.70766  0.42017  1.0000
  C   C363      1.0  0.04406  0.68718  0.42254  1.0000
  C   C364      1.0  0.04328  0.67511  0.34425  1.0000
  C   C365      1.0  0.04892  0.65419  0.34399  1.0000
  C   C366      1.0  0.06187  0.64574  0.40939  1.0000
  C   C367      1.0  0.06749  0.62543  0.40630  1.0000
  C   C368      1.0  0.06030  0.61270  0.33784  1.0000
  H   H217      1.0  0.06791  0.65432  0.45929  1.0000
  H   H218      1.0  0.07671  0.61994  0.45550  1.0000
  H   H219      1.0  0.04027  0.71600  0.47764  1.0000
  H   H220      1.0  0.04822  0.68131  0.48298  1.0000
  C   C369      1.0  0.18360  0.53587  0.41669  1.0000
  C   C370      1.0  0.20426  0.53093  0.41916  1.0000
  H   H221      1.0  0.21077  0.52677  0.47857  1.0000
  C   C371      1.0  0.12043  0.54742  0.40782  1.0000
  C   C372      1.0  0.14097  0.54200  0.40673  1.0000
  H   H222      1.0  0.11143  0.54250  0.45902  1.0000
  C   C373      1.0  0.14934  0.52920  0.47959  1.0000
  C   C374      1.0  0.17142  0.53488  0.50031  1.0000
  H   H223      1.0  0.14865  0.51352  0.45794  1.0000
  H   H224      1.0  0.14057  0.53060  0.54129  1.0000
  H   H225      1.0  0.17755  0.52386  0.54731  1.0000
  H   H226      1.0  0.17186  0.54961  0.53272  1.0000
  C   C375      1.0  0.82178  0.46957  0.41336  1.0000
  C   C376      1.0  0.80117  0.47468  0.41566  1.0000
  H   H227      1.0  0.79466  0.47887  0.47504  1.0000
  C   C377      1.0  0.88493  0.45815  0.40447  1.0000
  C   C378      1.0  0.86437  0.46345  0.40347  1.0000
  H   H228      1.0  0.89392  0.46315  0.45554  1.0000
  C   C379      1.0  0.85599  0.47622  0.47640  1.0000
  C   C380      1.0  0.83393  0.47047  0.49707  1.0000
  H   H229      1.0  0.85664  0.49192  0.45488  1.0000
  H   H230      1.0  0.86475  0.47481  0.53811  1.0000
  H   H231      1.0  0.82778  0.48140  0.54439  1.0000
  H   H232      1.0  0.83352  0.45569  0.52906  1.0000
  C   C381      1.0  0.53580  0.82224  0.41666  1.0000
  C   C382      1.0  0.53085  0.80159  0.41910  1.0000
  H   H233      1.0  0.52668  0.79508  0.47850  1.0000
  C   C383      1.0  0.54740  0.88541  0.40788  1.0000
  C   C384      1.0  0.54197  0.86487  0.40676  1.0000
  H   H234      1.0  0.54248  0.89441  0.45907  1.0000
  C   C385      1.0  0.52916  0.85651  0.47958  1.0000
  C   C386      1.0  0.53482  0.83442  0.50030  1.0000
  H   H235      1.0  0.51348  0.85721  0.45790  1.0000
  H   H236      1.0  0.53056  0.86527  0.54130  1.0000
  H   H237      1.0  0.52379  0.82829  0.54726  1.0000
  H   H238      1.0  0.54955  0.83396  0.53274  1.0000
  C   C387      1.0  0.46952  0.18406  0.41329  1.0000
  C   C388      1.0  0.47462  0.20468  0.41560  1.0000
  H   H239      1.0  0.47882  0.21118  0.47497  1.0000
  C   C389      1.0  0.45815  0.12091  0.40439  1.0000
  C   C390      1.0  0.46344  0.14147  0.40338  1.0000
  H   H240      1.0  0.46316  0.11192  0.45544  1.0000
  C   C391      1.0  0.47622  0.14986  0.47629  1.0000
  C   C392      1.0  0.47044  0.17192  0.49699  1.0000
  H   H241      1.0  0.49191  0.14922  0.45471  1.0000
  H   H242      1.0  0.47482  0.14109  0.53799  1.0000
  H   H243      1.0  0.48139  0.17807  0.54429  1.0000
  H   H244      1.0  0.45567  0.17231  0.52902  1.0000
  C   C393      1.0  0.19518  0.13236  0.41257  1.0000
  C   C394      1.0  0.18858  0.15254  0.40850  1.0000
  H   H245      1.0  0.19010  0.16160  0.46362  1.0000
  C   C395      1.0  0.22594  0.07593  0.40996  1.0000
  C   C396      1.0  0.21588  0.09463  0.40955  1.0000
  H   H246      1.0  0.23664  0.07330  0.45792  1.0000
  C   C397      1.0  0.22157  0.11002  0.47744  1.0000
  C   C398      1.0  0.20394  0.12446  0.49724  1.0000
  H   H247      1.0  0.23439  0.11855  0.45192  1.0000
  H   H248      1.0  0.22606  0.10295  0.54057  1.0000
  H   H249      1.0  0.20933  0.13652  0.54083  1.0000
  H   H250      1.0  0.19219  0.11632  0.53336  1.0000
  C   C399      1.0  0.81072  0.87354  0.41232  1.0000
  C   C400      1.0  0.81721  0.85331  0.40829  1.0000
  H   H251      1.0  0.81560  0.84426  0.46337  1.0000
  C   C401      1.0  0.78030  0.93014  0.40926  1.0000
  C   C402      1.0  0.79027  0.91140  0.40909  1.0000
  H   H252      1.0  0.76955  0.93283  0.45695  1.0000
  C   C403      1.0  0.78443  0.89604  0.47684  1.0000
  C   C404      1.0  0.80193  0.88146  0.49686  1.0000
  H   H253      1.0  0.77156  0.88761  0.45111  1.0000
  H   H254      1.0  0.77995  0.90313  0.53993  1.0000
  H   H255      1.0  0.79642  0.86943  0.54028  1.0000
  H   H256      1.0  0.81371  0.88952  0.53326  1.0000
  C   C405      1.0  0.87358  0.19531  0.41257  1.0000
  C   C406      1.0  0.85339  0.18873  0.40847  1.0000
  H   H257      1.0  0.84433  0.19026  0.46359  1.0000
  C   C407      1.0  0.93004  0.22600  0.41002  1.0000
  C   C408      1.0  0.91134  0.21596  0.40962  1.0000
  H   H258      1.0  0.93269  0.23670  0.45799  1.0000
  C   C409      1.0  0.89596  0.22166  0.47750  1.0000
  C   C410      1.0  0.88148  0.20405  0.49726  1.0000
  H   H259      1.0  0.88745  0.23450  0.45200  1.0000
  H   H260      1.0  0.90302  0.22613  0.54065  1.0000
  H   H261      1.0  0.86942  0.20946  0.54084  1.0000
  H   H262      1.0  0.88961  0.19229  0.53338  1.0000
  C   C411      1.0  0.13242  0.81083  0.41228  1.0000
  C   C412      1.0  0.15263  0.81734  0.40825  1.0000
  H   H263      1.0  0.16169  0.81571  0.46330  1.0000
  C   C413      1.0  0.07585  0.78033  0.40913  1.0000
  C   C414      1.0  0.09458  0.79032  0.40897  1.0000
  H   H264      1.0  0.07318  0.76957  0.45677  1.0000
  C   C415      1.0  0.10995  0.78448  0.47665  1.0000
  C   C416      1.0  0.12450  0.80200  0.49678  1.0000
  H   H265      1.0  0.11840  0.77163  0.45082  1.0000
  H   H266      1.0  0.10288  0.77996  0.53972  1.0000
  H   H267      1.0  0.13655  0.79649  0.54015  1.0000
  H   H268      1.0  0.11643  0.81375  0.53326  1.0000
  C   C417      1.0  0.32650  0.66029  0.34421  1.0000
  C   C418      1.0  0.32982  0.64714  0.41692  1.0000
  C   C419      1.0  0.32296  0.62713  0.41410  1.0000
  C   C420      1.0  0.31299  0.61920  0.33768  1.0000
  C   C421      1.0  0.30432  0.59920  0.33497  1.0000
  C   C422      1.0  0.30947  0.58360  0.39584  1.0000
  C   C423      1.0  0.29949  0.56491  0.39542  1.0000
  C   C424      1.0  0.28381  0.56099  0.33415  1.0000
  H   H269      1.0  0.32041  0.58567  0.44285  1.0000
  H   H270      1.0  0.30302  0.55458  0.44372  1.0000
  H   H271      1.0  0.33655  0.65230  0.47418  1.0000
  H   H272      1.0  0.32482  0.61869  0.47060  1.0000
  C   C425      1.0  0.67925  0.34553  0.34427  1.0000
  C   C426      1.0  0.67606  0.35866  0.41715  1.0000
  C   C427      1.0  0.68286  0.37869  0.41403  1.0000
  C   C428      1.0  0.69263  0.38665  0.33717  1.0000
  C   C429      1.0  0.70122  0.40668  0.33404  1.0000
  C   C430      1.0  0.69618  0.42225  0.39520  1.0000
  C   C431      1.0  0.70610  0.44098  0.39431  1.0000
  C   C432      1.0  0.72160  0.44495  0.33220  1.0000
  H   H273      1.0  0.68537  0.42014  0.44279  1.0000
  H   H274      1.0  0.70268  0.45129  0.44286  1.0000
  H   H275      1.0  0.66946  0.35348  0.47467  1.0000
  H   H276      1.0  0.68110  0.38712  0.47061  1.0000
  C   C433      1.0  0.66022  0.67938  0.34426  1.0000
  C   C434      1.0  0.64708  0.67608  0.41702  1.0000
  C   C435      1.0  0.62707  0.68293  0.41419  1.0000
  C   C436      1.0  0.61913  0.69288  0.33774  1.0000
  C   C437      1.0  0.59913  0.70154  0.33501  1.0000
  C   C438      1.0  0.58354  0.69641  0.39594  1.0000
  C   C439      1.0  0.56484  0.70638  0.39547  1.0000
  C   C440      1.0  0.56091  0.72204  0.33412  1.0000
  H   H277      1.0  0.58561  0.68548  0.44300  1.0000
  H   H278      1.0  0.55451  0.70285  0.44381  1.0000
  H   H279      1.0  0.65225  0.66936  0.47429  1.0000
  H   H280      1.0  0.61863  0.68108  0.47071  1.0000
  C   C441      1.0  0.34547  0.32664  0.34417  1.0000
  C   C442      1.0  0.35860  0.32982  0.41704  1.0000
  C   C443      1.0  0.37863  0.32302  0.41393  1.0000
  C   C444      1.0  0.38659  0.31325  0.33707  1.0000
  C   C445      1.0  0.40661  0.30465  0.33395  1.0000
  C   C446      1.0  0.42219  0.30969  0.39510  1.0000
  C   C447      1.0  0.44091  0.29976  0.39423  1.0000
  C   C448      1.0  0.44487  0.28425  0.33217  1.0000
  H   H281      1.0  0.42008  0.32050  0.44267  1.0000
  H   H282      1.0  0.45122  0.30318  0.44278  1.0000
  H   H283      1.0  0.35342  0.33643  0.47456  1.0000
  H   H284      1.0  0.38706  0.32478  0.47050  1.0000
  C   C449      1.0  0.23231  0.98675  0.33930  1.0000
  C   C450      1.0  0.23487  0.97534  0.41823  1.0000
  C   C451      1.0  0.23035  0.95471  0.41985  1.0000
  C   C452      1.0  0.22351  0.94447  0.34221  1.0000
  C   C453      1.0  0.21941  0.92309  0.34084  1.0000
  C   C454      1.0  0.22760  0.90945  0.40420  1.0000
  C   C455      1.0  0.22356  0.88871  0.40021  1.0000
  C   C456      1.0  0.21096  0.88063  0.33312  1.0000
  H   H285      1.0  0.23705  0.91428  0.45354  1.0000
  H   H286      1.0  0.22961  0.87956  0.44832  1.0000
  H   H287      1.0  0.24043  0.98194  0.47507  1.0000
  H   H288      1.0  0.23226  0.94733  0.47921  1.0000
  C   C457      1.0  0.77404  0.01928  0.33764  1.0000
  C   C458      1.0  0.77159  0.03059  0.41690  1.0000
  C   C459      1.0  0.77607  0.05124  0.41878  1.0000
  C   C460      1.0  0.78275  0.06157  0.34110  1.0000
  C   C461      1.0  0.78682  0.08295  0.34002  1.0000
  C   C462      1.0  0.77870  0.09652  0.40384  1.0000
  C   C463      1.0  0.78269  0.11727  0.40009  1.0000
  C   C464      1.0  0.79519  0.12542  0.33280  1.0000
  H   H289      1.0  0.76932  0.09162  0.45336  1.0000
  H   H290      1.0  0.77669  0.12637  0.44850  1.0000
  H   H291      1.0  0.76614  0.02391  0.47379  1.0000
  H   H292      1.0  0.77424  0.05856  0.47835  1.0000
  C   C465      1.0  0.01922  0.23234  0.33938  1.0000
  C   C466      1.0  0.03062  0.23488  0.41832  1.0000
  C   C467      1.0  0.05125  0.23032  0.41996  1.0000
  C   C468      1.0  0.06148  0.22345  0.34234  1.0000
  C   C469      1.0  0.08285  0.21932  0.34098  1.0000
  C   C470      1.0  0.09650  0.22749  0.40433  1.0000
  C   C471      1.0  0.11724  0.22343  0.40034  1.0000
  C   C472      1.0  0.12530  0.21081  0.33326  1.0000
  H   H293      1.0  0.09169  0.23696  0.45365  1.0000
  H   H294      1.0  0.12640  0.22947  0.44842  1.0000
  H   H295      1.0  0.02403  0.24046  0.47515  1.0000
  H   H296      1.0  0.05864  0.23222  0.47932  1.0000
  C   C473      1.0  0.98669  0.77407  0.33780  1.0000
  C   C474      1.0  0.97537  0.77160  0.41703  1.0000
  C   C475      1.0  0.95472  0.77603  0.41884  1.0000
  C   C476      1.0  0.94438  0.78269  0.34114  1.0000
  C   C477      1.0  0.92299  0.78672  0.34000  1.0000
  C   C478      1.0  0.90943  0.77858  0.40382  1.0000
  C   C479      1.0  0.88867  0.78255  0.40005  1.0000
  C   C480      1.0  0.88051  0.79504  0.33275  1.0000
  H   H297      1.0  0.91433  0.76921  0.45336  1.0000
  H   H298      1.0  0.87958  0.77654  0.44848  1.0000
  H   H299      1.0  0.98205  0.76615  0.47392  1.0000
  H   H300      1.0  0.94739  0.77419  0.47840  1.0000
  C   C481      1.0  0.28560  0.45610  0.42130  1.0000
  C   C482      1.0  0.28099  0.47690  0.42212  1.0000
  H   H301      1.0  0.28225  0.48486  0.48064  1.0000
  C   C483      1.0  0.30248  0.39384  0.41719  1.0000
  C   C484      1.0  0.29812  0.41467  0.41507  1.0000
  H   H302      1.0  0.31136  0.38827  0.46745  1.0000
  C   C485      1.0  0.30659  0.42819  0.48508  1.0000
  C   C486      1.0  0.29235  0.44606  0.50522  1.0000
  H   H303      1.0  0.32101  0.43395  0.46104  1.0000
  H   H304      1.0  0.30932  0.42006  0.54764  1.0000
  H   H305      1.0  0.30019  0.45660  0.54926  1.0000
  H   H306      1.0  0.27909  0.44056  0.54087  1.0000
  C   C487      1.0  0.72001  0.54978  0.41973  1.0000
  C   C488      1.0  0.72458  0.52897  0.42022  1.0000
  H   H307      1.0  0.72329  0.52096  0.47857  1.0000
  C   C489      1.0  0.70316  0.61206  0.41644  1.0000
  C   C490      1.0  0.70752  0.59123  0.41410  1.0000
  H   H308      1.0  0.69427  0.61760  0.46673  1.0000
  C   C491      1.0  0.69903  0.57766  0.48388  1.0000
  C   C492      1.0  0.71325  0.55976  0.50378  1.0000
  H   H309      1.0  0.68461  0.57195  0.45972  1.0000
  H   H310      1.0  0.69631  0.58575  0.54655  1.0000
  H   H311      1.0  0.70538  0.54919  0.54760  1.0000
  H   H312      1.0  0.72651  0.56521  0.53961  1.0000
  C   C493      1.0  0.45602  0.72022  0.42126  1.0000
  C   C494      1.0  0.47682  0.72485  0.42215  1.0000
  H   H313      1.0  0.48477  0.72361  0.48068  1.0000
  C   C495      1.0  0.39377  0.70326  0.41701  1.0000
  C   C496      1.0  0.41461  0.70764  0.41493  1.0000
  H   H314      1.0  0.38821  0.69439  0.46729  1.0000
  C   C497      1.0  0.42813  0.69919  0.48500  1.0000
  C   C498      1.0  0.44597  0.71346  0.50517  1.0000
  H   H315      1.0  0.43391  0.68478  0.46102  1.0000
  H   H316      1.0  0.41999  0.69647  0.54755  1.0000
  H   H317      1.0  0.45651  0.70564  0.54926  1.0000
  H   H318      1.0  0.44046  0.72672  0.54077  1.0000
  C   C499      1.0  0.54970  0.28579  0.41986  1.0000
  C   C500      1.0  0.52888  0.28125  0.42030  1.0000
  H   H319      1.0  0.52087  0.28254  0.47864  1.0000
  C   C501      1.0  0.61200  0.30257  0.41672  1.0000
  C   C502      1.0  0.59116  0.29823  0.41433  1.0000
  H   H320      1.0  0.61754  0.31146  0.46700  1.0000
  C   C503      1.0  0.57760  0.30674  0.48406  1.0000
  C   C504      1.0  0.55968  0.29255  0.50394  1.0000
  H   H321      1.0  0.57190  0.32117  0.45990  1.0000
  H   H322      1.0  0.58568  0.30945  0.54677  1.0000
  H   H323      1.0  0.54912  0.30042  0.54773  1.0000
  H   H324      1.0  0.56510  0.27928  0.53977  1.0000
  C   C505      1.0  0.21468  0.26023  0.40480  1.0000
  C   C506      1.0  0.19954  0.24525  0.40562  1.0000
  H   H325      1.0  0.19087  0.24337  0.46171  1.0000
  C   C507      1.0  0.25699  0.30892  0.39722  1.0000
  C   C508      1.0  0.24210  0.29370  0.39517  1.0000
  H   H326      1.0  0.25614  0.31989  0.44520  1.0000
  C   C509      1.0  0.22520  0.29424  0.46057  1.0000
  C   C510      1.0  0.21809  0.27282  0.48593  1.0000
  H   H327      1.0  0.21272  0.30247  0.43014  1.0000
  H   H328      1.0  0.22949  0.30209  0.52208  1.0000
  H   H329      1.0  0.20443  0.27407  0.52631  1.0000
  H   H330      1.0  0.22959  0.26555  0.52705  1.0000
  C   C511      1.0  0.79110  0.74560  0.40495  1.0000
  C   C512      1.0  0.80626  0.76057  0.40581  1.0000
  H   H331      1.0  0.81493  0.76245  0.46191  1.0000
  C   C513      1.0  0.74873  0.69698  0.39728  1.0000
  C   C514      1.0  0.76364  0.71218  0.39527  1.0000
  H   H332      1.0  0.74956  0.68600  0.44523  1.0000
  C   C515      1.0  0.78054  0.71161  0.46066  1.0000
  C   C516      1.0  0.78768  0.73302  0.48605  1.0000
  H   H333      1.0  0.79300  0.70336  0.43020  1.0000
  H   H334      1.0  0.77624  0.70376  0.52214  1.0000
  H   H335      1.0  0.80134  0.73174  0.52642  1.0000
  H   H336      1.0  0.77620  0.74029  0.52720  1.0000
  C   C517      1.0  0.74566  0.21475  0.40491  1.0000
  C   C518      1.0  0.76065  0.19962  0.40574  1.0000
  H   H337      1.0  0.76254  0.19095  0.46183  1.0000
  C   C519      1.0  0.69696  0.25705  0.39734  1.0000
  C   C520      1.0  0.71219  0.24216  0.39528  1.0000
  H   H338      1.0  0.68599  0.25620  0.44532  1.0000
  C   C521      1.0  0.71165  0.22525  0.46067  1.0000
  C   C522      1.0  0.73307  0.21815  0.48602  1.0000
  H   H339      1.0  0.70342  0.21278  0.43022  1.0000
  H   H340      1.0  0.70379  0.22954  0.52217  1.0000
  H   H341      1.0  0.73182  0.20449  0.52640  1.0000
  H   H342      1.0  0.74033  0.22965  0.52717  1.0000
  C   C523      1.0  0.26028  0.79117  0.40487  1.0000
  C   C524      1.0  0.24533  0.80634  0.40571  1.0000
  H   H343      1.0  0.24345  0.81500  0.46182  1.0000
  C   C525      1.0  0.30890  0.74879  0.39722  1.0000
  C   C526      1.0  0.29370  0.76370  0.39520  1.0000
  H   H344      1.0  0.31988  0.74962  0.44519  1.0000
  C   C527      1.0  0.29427  0.78059  0.46065  1.0000
  C   C528      1.0  0.27285  0.78774  0.48599  1.0000
  H   H345      1.0  0.30252  0.79306  0.43026  1.0000
  H   H346      1.0  0.30211  0.77628  0.52214  1.0000
  H   H347      1.0  0.27413  0.80138  0.52642  1.0000
  H   H348      1.0  0.26557  0.77624  0.52708  1.0000
  C   C529      1.0  0.51444  0.98388  0.40983  1.0000
  C   C530      1.0  0.52911  0.96853  0.41102  1.0000
  H   H349      1.0  0.53102  0.96002  0.46763  1.0000
  C   C531      1.0  0.46554  0.02539  0.39772  1.0000
  C   C532      1.0  0.48088  0.01070  0.39734  1.0000
  H   H350      1.0  0.45442  0.02458  0.44502  1.0000
  C   C533      1.0  0.48042  0.99412  0.46434  1.0000
  C   C534      1.0  0.50195  0.98763  0.49088  1.0000
  H   H351      1.0  0.47249  0.98134  0.43485  1.0000
  H   H352      1.0  0.47240  0.99858  0.52516  1.0000
  H   H353      1.0  0.50097  0.97429  0.53344  1.0000
  H   H354      1.0  0.50901  0.99959  0.53001  1.0000
  C   C535      1.0  0.02195  0.51445  0.40982  1.0000
  C   C536      1.0  0.03730  0.52912  0.41101  1.0000
  H   H355      1.0  0.04580  0.53103  0.46762  1.0000
  C   C537      1.0  0.98044  0.46555  0.39773  1.0000
  C   C538      1.0  0.99513  0.48089  0.39734  1.0000
  H   H356      1.0  0.98125  0.45443  0.44504  1.0000
  C   C539      1.0  0.01171  0.48044  0.46435  1.0000
  C   C540      1.0  0.01820  0.50196  0.49088  1.0000
  H   H357      1.0  0.02449  0.47250  0.43488  1.0000
  H   H358      1.0  0.00725  0.47241  0.52518  1.0000
  H   H359      1.0  0.03154  0.50099  0.53346  1.0000
  H   H360      1.0  0.00623  0.50903  0.52999  1.0000
