data_image0
_chemical_formula_structural       C3H3C3H2CHC3H3C3H2CH3CHCH2C3H3CHCH2C3H3CH2C6HCH2C6HC3HCH3C3HCH3C2HCHC3HCH3C3HCH3C3H2C6H3C6H3C3HCH3C3HCH3C3HCH3C3HCH3C2HCH2C3HCH3C3HCH3C2HCHC3HCH3C3HCH3C3H2C6H3C6H3C3HCH3C3HCH3C3HCH3C3HCH3C2HCH2C3HCH3C3HCH3C3HCH2C3HCH3C3HCH3C3HCH3C6H3C6H3C6H3C6H3C3HCH3C3HCH3C3HCH3C3HCH3C3HCH3C3HCH3C3HCH3C3HCH3C3HCH2C3HCH3C3HCH3C3HCH3C6H3C6H3C6H3C6H3C3HCH3C3HCH3C3HCH3C3HCH3C3HCH3C3HCH3
_chemical_formula_sum              "C288 H240"
_cell_length_a       45.5955
_cell_length_b       45.6167
_cell_length_c       14.8328
_cell_angle_alpha    90
_cell_angle_beta     90
_cell_angle_gamma    119.989

_space_group_name_H-M_alt    "P 1"
_space_group_IT_number       1

loop_
  _space_group_symop_operation_xyz
  'x, y, z'

loop_
  _atom_site_type_symbol
  _atom_site_label
  _atom_site_symmetry_multiplicity
  _atom_site_fract_x
  _atom_site_fract_y
  _atom_site_fract_z
  _atom_site_occupancy
  C   C1        1.0  0.07841  0.04048  0.33952  1.0000
  C   C2        1.0  0.09794  0.06113  0.26599  1.0000
  C   C3        1.0  0.08297  0.06427  0.17977  1.0000
  H   H1        1.0  0.05558  0.04806  0.17634  1.0000
  H   H2        1.0  0.09368  0.05734  0.12335  1.0000
  H   H3        1.0  0.08891  0.09043  0.17083  1.0000
  C   C4        1.0  0.04204  0.02233  0.34094  1.0000
  C   C5        1.0  0.02361  0.03979  0.34167  1.0000
  C   C6        1.0  0.02363  0.48647  0.34171  1.0000
  H   H4        1.0  0.03660  0.47350  0.34115  1.0000
  H   H5        1.0  0.03659  0.06573  0.34117  1.0000
  C   C7        1.0  0.09590  0.03837  0.41586  1.0000
  H   H6        1.0  0.08207  0.02391  0.46958  1.0000
  C   C8        1.0  0.07841  0.54048  0.33952  1.0000
  C   C9        1.0  0.09794  0.56113  0.26599  1.0000
  C   C10       1.0  0.08297  0.56427  0.17977  1.0000
  H   H7        1.0  0.05558  0.54806  0.17634  1.0000
  H   H8        1.0  0.09368  0.55734  0.12335  1.0000
  H   H9        1.0  0.08891  0.59043  0.17083  1.0000
  C   C11       1.0  0.04204  0.52233  0.34094  1.0000
  C   C12       1.0  0.02361  0.53979  0.34167  1.0000
  C   C13       1.0  0.02363  0.98647  0.34171  1.0000
  H   H10       1.0  0.03660  0.97350  0.34115  1.0000
  H   H11       1.0  0.03659  0.56572  0.34117  1.0000
  C   C14       1.0  0.09590  0.53837  0.41586  1.0000
  H   H12       1.0  0.08207  0.52391  0.46958  1.0000
  H   H13       1.0  0.00898  0.42115  0.17089  1.0000
  H   H14       1.0  0.00898  0.92115  0.17089  1.0000
  C   C15       1.0  0.13379  0.07902  0.27228  1.0000
  H   H15       1.0  0.14762  0.09346  0.21853  1.0000
  C   C16       1.0  0.18763  0.09505  0.34699  1.0000
  H   H16       1.0  0.19327  0.14420  0.34829  1.0000
  H   H17       1.0  0.19321  0.05150  0.34523  1.0000
  C   C17       1.0  0.15127  0.07693  0.34864  1.0000
  C   C18       1.0  0.13175  0.05624  0.42210  1.0000
  C   C19       1.0  0.14675  0.05304  0.50818  1.0000
  H   H18       1.0  0.17416  0.06918  0.51142  1.0000
  H   H19       1.0  0.14074  0.02686  0.51703  1.0000
  H   H20       1.0  0.13613  0.06000  0.56471  1.0000
  C   C20       1.0  0.13379  0.57902  0.27228  1.0000
  H   H21       1.0  0.14762  0.59346  0.21853  1.0000
  C   C21       1.0  0.18763  0.59505  0.34699  1.0000
  H   H22       1.0  0.19327  0.64420  0.34829  1.0000
  H   H23       1.0  0.19321  0.55150  0.34523  1.0000
  C   C22       1.0  0.15127  0.57693  0.34864  1.0000
  C   C23       1.0  0.13175  0.55624  0.42210  1.0000
  C   C24       1.0  0.14675  0.55304  0.50818  1.0000
  H   H24       1.0  0.17416  0.56918  0.51142  1.0000
  H   H25       1.0  0.14074  0.52685  0.51703  1.0000
  H   H26       1.0  0.13613  0.56000  0.56471  1.0000
  C   C25       1.0  0.26204  0.07923  0.34268  1.0000
  H   H27       1.0  0.23968  0.07669  0.17256  1.0000
  H   H28       1.0  0.26121  0.05664  0.13025  1.0000
  C   C26       1.0  0.24180  0.09506  0.34335  1.0000
  C   C27       1.0  0.25915  0.13076  0.34331  1.0000
  C   C28       1.0  0.24183  0.14914  0.34523  1.0000
  C   C29       1.0  0.20601  0.13103  0.34611  1.0000
  C   C30       1.0  0.20598  0.07741  0.34527  1.0000
  C   C31       1.0  0.26211  0.18516  0.34842  1.0000
  H   H29       1.0  0.24266  0.16260  0.51905  1.0000
  C   C32       1.0  0.26204  0.57923  0.34268  1.0000
  H   H30       1.0  0.23968  0.57669  0.17256  1.0000
  H   H31       1.0  0.26121  0.55664  0.13025  1.0000
  C   C33       1.0  0.24180  0.59506  0.34335  1.0000
  C   C34       1.0  0.25915  0.63076  0.34331  1.0000
  C   C35       1.0  0.24183  0.64914  0.34523  1.0000
  C   C36       1.0  0.20601  0.63103  0.34611  1.0000
  C   C37       1.0  0.20598  0.57742  0.34527  1.0000
  C   C38       1.0  0.26211  0.68516  0.34842  1.0000
  H   H32       1.0  0.24266  0.66260  0.51905  1.0000
  C   C39       1.0  0.46959  0.04057  0.33957  1.0000
  C   C40       1.0  0.44898  0.03951  0.26599  1.0000
  C   C41       1.0  0.43116  0.05754  0.27223  1.0000
  H   H33       1.0  0.41674  0.05696  0.21845  1.0000
  C   C42       1.0  0.44581  0.02139  0.17979  1.0000
  H   H34       1.0  0.46196  0.01014  0.17641  1.0000
  H   H35       1.0  0.45280  0.03902  0.12337  1.0000
  H   H36       1.0  0.41962  0.00124  0.17080  1.0000
  C   C43       1.0  0.46952  0.43169  0.33953  1.0000
  C   C44       1.0  0.47064  0.41217  0.26600  1.0000
  C   C45       1.0  0.45267  0.37633  0.27227  1.0000
  H   H37       1.0  0.45329  0.36251  0.21851  1.0000
  C   C46       1.0  0.48877  0.42712  0.17981  1.0000
  H   H38       1.0  0.49996  0.45450  0.17640  1.0000
  H   H39       1.0  0.47115  0.41644  0.12337  1.0000
  H   H40       1.0  0.50898  0.42115  0.17089  1.0000
  C   C47       1.0  0.27733  0.07688  0.26145  1.0000
  C   C48       1.0  0.30833  0.07681  0.26575  1.0000
  H   H41       1.0  0.32090  0.07869  0.20676  1.0000
  C   C49       1.0  0.26423  0.07805  0.17036  1.0000
  H   H42       1.0  0.28212  0.10148  0.13629  1.0000
  C   C50       1.0  0.43101  0.18558  0.34265  1.0000
  C   C51       1.0  0.43335  0.20323  0.26142  1.0000
  C   C52       1.0  0.43343  0.23429  0.26574  1.0000
  H   H43       1.0  0.43154  0.24498  0.20676  1.0000
  C   C53       1.0  0.43215  0.18896  0.17032  1.0000
  H   H44       1.0  0.43351  0.16577  0.17249  1.0000
  H   H45       1.0  0.45356  0.20734  0.13018  1.0000
  H   H46       1.0  0.40870  0.18342  0.13629  1.0000
  C   C54       1.0  0.32462  0.24813  0.34264  1.0000
  C   C55       1.0  0.30697  0.23284  0.26142  1.0000
  C   C56       1.0  0.27590  0.20187  0.26575  1.0000
  H   H47       1.0  0.26521  0.18930  0.20676  1.0000
  C   C57       1.0  0.32123  0.24593  0.17032  1.0000
  H   H48       1.0  0.34442  0.27046  0.17250  1.0000
  H   H49       1.0  0.30284  0.24896  0.13022  1.0000
  H   H50       1.0  0.32678  0.22803  0.13625  1.0000
  C   C58       1.0  0.48773  0.02234  0.34097  1.0000
  C   C59       1.0  0.47027  0.48646  0.34169  1.0000
  C   C60       1.0  0.48774  0.46805  0.34095  1.0000
  H   H51       1.0  0.44432  0.47351  0.34117  1.0000
  H   H52       1.0  0.28517  0.14375  0.34271  1.0000
  C   C61       1.0  0.41518  0.14953  0.34330  1.0000
  C   C62       1.0  0.37947  0.13118  0.34326  1.0000
  C   C63       1.0  0.36108  0.09549  0.34521  1.0000
  C   C64       1.0  0.37920  0.07779  0.34607  1.0000
  C   C65       1.0  0.41519  0.09539  0.34692  1.0000
  C   C66       1.0  0.43284  0.13137  0.34521  1.0000
  H   H53       1.0  0.36603  0.05189  0.34826  1.0000
  H   H54       1.0  0.45876  0.14450  0.34517  1.0000
  H   H55       1.0  0.36646  0.14419  0.34271  1.0000
  C   C67       1.0  0.36069  0.26836  0.34329  1.0000
  C   C68       1.0  0.37906  0.25102  0.34325  1.0000
  C   C69       1.0  0.41477  0.26833  0.34519  1.0000
  C   C70       1.0  0.43246  0.30414  0.34611  1.0000
  C   C71       1.0  0.41484  0.32251  0.34694  1.0000
  C   C72       1.0  0.37885  0.30416  0.34520  1.0000
  H   H56       1.0  0.45837  0.31687  0.34828  1.0000
  H   H57       1.0  0.36570  0.31694  0.34516  1.0000
  H   H58       1.0  0.36605  0.22501  0.34269  1.0000
  C   C73       1.0  0.43330  0.07714  0.34856  1.0000
  C   C74       1.0  0.45395  0.07824  0.42207  1.0000
  C   C75       1.0  0.47175  0.06019  0.41588  1.0000
  H   H59       1.0  0.48619  0.06079  0.46962  1.0000
  C   C76       1.0  0.45719  0.09646  0.50813  1.0000
  H   H60       1.0  0.44111  0.10779  0.51132  1.0000
  H   H61       1.0  0.48341  0.11657  0.51703  1.0000
  H   H62       1.0  0.45016  0.07887  0.56467  1.0000
  C   C77       1.0  0.43307  0.35886  0.34860  1.0000
  C   C78       1.0  0.43190  0.37838  0.42205  1.0000
  C   C79       1.0  0.44990  0.41422  0.41583  1.0000
  H   H63       1.0  0.44926  0.42804  0.46955  1.0000
  C   C80       1.0  0.41367  0.36339  0.50810  1.0000
  H   H64       1.0  0.40240  0.33600  0.51133  1.0000
  H   H65       1.0  0.39350  0.36942  0.51693  1.0000
  H   H66       1.0  0.43125  0.37399  0.56466  1.0000
  C   C81       1.0  0.32505  0.07974  0.34842  1.0000
  C   C82       1.0  0.30862  0.07976  0.43004  1.0000
  C   C83       1.0  0.27729  0.07915  0.42572  1.0000
  H   H67       1.0  0.26749  0.08277  0.48420  1.0000
  C   C84       1.0  0.32442  0.08418  0.52061  1.0000
  H   H68       1.0  0.34764  0.08286  0.51904  1.0000
  H   H69       1.0  0.30680  0.06426  0.56585  1.0000
  H   H70       1.0  0.33038  0.10869  0.54860  1.0000
  C   C85       1.0  0.43055  0.24807  0.34847  1.0000
  C   C86       1.0  0.43050  0.23162  0.43008  1.0000
  C   C87       1.0  0.43109  0.20091  0.42571  1.0000
  H   H71       1.0  0.42747  0.18748  0.48418  1.0000
  C   C88       1.0  0.42607  0.24299  0.52065  1.0000
  H   H72       1.0  0.42740  0.26752  0.51907  1.0000
  H   H73       1.0  0.44600  0.24529  0.56589  1.0000
  H   H74       1.0  0.40155  0.22445  0.54863  1.0000
  C   C89       1.0  0.27857  0.20158  0.43002  1.0000
  C   C90       1.0  0.30929  0.23289  0.42569  1.0000
  H   H75       1.0  0.32272  0.24268  0.48415  1.0000
  C   C91       1.0  0.26720  0.18580  0.52060  1.0000
  H   H76       1.0  0.26490  0.20342  0.56583  1.0000
  H   H77       1.0  0.28575  0.17982  0.54859  1.0000
  C   C92       1.0  0.46959  0.54057  0.33957  1.0000
  C   C93       1.0  0.44898  0.53951  0.26599  1.0000
  C   C94       1.0  0.43116  0.55754  0.27223  1.0000
  H   H78       1.0  0.41674  0.55696  0.21845  1.0000
  C   C95       1.0  0.44581  0.52139  0.17979  1.0000
  H   H79       1.0  0.46196  0.51014  0.17641  1.0000
  H   H80       1.0  0.45280  0.53902  0.12337  1.0000
  H   H81       1.0  0.41962  0.50124  0.17080  1.0000
  C   C96       1.0  0.46952  0.93169  0.33953  1.0000
  C   C97       1.0  0.47065  0.91217  0.26600  1.0000
  C   C98       1.0  0.45267  0.87633  0.27227  1.0000
  H   H82       1.0  0.45329  0.86251  0.21851  1.0000
  C   C99       1.0  0.48877  0.92712  0.17981  1.0000
  H   H83       1.0  0.49996  0.95450  0.17640  1.0000
  H   H84       1.0  0.47115  0.91644  0.12337  1.0000
  H   H85       1.0  0.50898  0.92115  0.17089  1.0000
  C   C100      1.0  0.27733  0.57688  0.26145  1.0000
  C   C101      1.0  0.30833  0.57681  0.26575  1.0000
  H   H86       1.0  0.32091  0.57870  0.20676  1.0000
  C   C102      1.0  0.26423  0.57805  0.17036  1.0000
  H   H87       1.0  0.28212  0.60149  0.13629  1.0000
  C   C103      1.0  0.43101  0.68558  0.34265  1.0000
  C   C104      1.0  0.43335  0.70323  0.26142  1.0000
  C   C105      1.0  0.43343  0.73429  0.26574  1.0000
  H   H88       1.0  0.43154  0.74498  0.20676  1.0000
  C   C106      1.0  0.43215  0.68896  0.17032  1.0000
  H   H89       1.0  0.43351  0.66577  0.17249  1.0000
  H   H90       1.0  0.45356  0.70734  0.13018  1.0000
  H   H91       1.0  0.40870  0.68342  0.13629  1.0000
  C   C107      1.0  0.32462  0.74813  0.34264  1.0000
  C   C108      1.0  0.30697  0.73284  0.26142  1.0000
  C   C109      1.0  0.27590  0.70186  0.26575  1.0000
  H   H92       1.0  0.26521  0.68930  0.20676  1.0000
  C   C110      1.0  0.32123  0.74593  0.17032  1.0000
  H   H93       1.0  0.34443  0.77046  0.17250  1.0000
  H   H94       1.0  0.30284  0.74896  0.13022  1.0000
  H   H95       1.0  0.32678  0.72803  0.13625  1.0000
  C   C111      1.0  0.48773  0.52234  0.34097  1.0000
  C   C112      1.0  0.47027  0.98646  0.34169  1.0000
  C   C113      1.0  0.48774  0.96805  0.34095  1.0000
  H   H96       1.0  0.44433  0.97351  0.34117  1.0000
  H   H97       1.0  0.28517  0.64375  0.34271  1.0000
  C   C114      1.0  0.41519  0.64953  0.34330  1.0000
  C   C115      1.0  0.37947  0.63118  0.34326  1.0000
  C   C116      1.0  0.36109  0.59549  0.34521  1.0000
  C   C117      1.0  0.37921  0.57779  0.34607  1.0000
  C   C118      1.0  0.41519  0.59539  0.34692  1.0000
  C   C119      1.0  0.43284  0.63137  0.34521  1.0000
  H   H98       1.0  0.36603  0.55189  0.34826  1.0000
  H   H99       1.0  0.45877  0.64450  0.34517  1.0000
  H   H100      1.0  0.36647  0.64419  0.34271  1.0000
  C   C120      1.0  0.36069  0.76836  0.34329  1.0000
  C   C121      1.0  0.37906  0.75102  0.34325  1.0000
  C   C122      1.0  0.41477  0.76833  0.34519  1.0000
  C   C123      1.0  0.43246  0.80414  0.34611  1.0000
  C   C124      1.0  0.41484  0.82251  0.34694  1.0000
  C   C125      1.0  0.37885  0.80417  0.34520  1.0000
  H   H101      1.0  0.45837  0.81687  0.34828  1.0000
  H   H102      1.0  0.36570  0.81694  0.34516  1.0000
  H   H103      1.0  0.36606  0.72502  0.34269  1.0000
  C   C126      1.0  0.43331  0.57714  0.34856  1.0000
  C   C127      1.0  0.45395  0.57825  0.42207  1.0000
  C   C128      1.0  0.47175  0.56019  0.41588  1.0000
  H   H104      1.0  0.48620  0.56079  0.46962  1.0000
  C   C129      1.0  0.45719  0.59646  0.50813  1.0000
  H   H105      1.0  0.44110  0.60778  0.51132  1.0000
  H   H106      1.0  0.48341  0.61657  0.51703  1.0000
  H   H107      1.0  0.45016  0.57887  0.56467  1.0000
  C   C130      1.0  0.43307  0.85886  0.34860  1.0000
  C   C131      1.0  0.43190  0.87838  0.42205  1.0000
  C   C132      1.0  0.44990  0.91422  0.41583  1.0000
  H   H108      1.0  0.44926  0.92804  0.46955  1.0000
  C   C133      1.0  0.41368  0.86339  0.50810  1.0000
  H   H109      1.0  0.40240  0.83600  0.51133  1.0000
  H   H110      1.0  0.39351  0.86943  0.51693  1.0000
  H   H111      1.0  0.43125  0.87399  0.56466  1.0000
  C   C134      1.0  0.32505  0.57974  0.34842  1.0000
  C   C135      1.0  0.30862  0.57976  0.43004  1.0000
  C   C136      1.0  0.27729  0.57915  0.42572  1.0000
  H   H112      1.0  0.26749  0.58277  0.48420  1.0000
  C   C137      1.0  0.32442  0.58418  0.52061  1.0000
  H   H113      1.0  0.34764  0.58287  0.51904  1.0000
  H   H114      1.0  0.30680  0.56426  0.56585  1.0000
  H   H115      1.0  0.33039  0.60869  0.54860  1.0000
  C   C138      1.0  0.43055  0.74807  0.34847  1.0000
  C   C139      1.0  0.43050  0.73162  0.43008  1.0000
  C   C140      1.0  0.43110  0.70091  0.42571  1.0000
  H   H116      1.0  0.42747  0.68748  0.48418  1.0000
  C   C141      1.0  0.42608  0.74299  0.52065  1.0000
  H   H117      1.0  0.42740  0.76752  0.51907  1.0000
  H   H118      1.0  0.44601  0.74529  0.56589  1.0000
  H   H119      1.0  0.40155  0.72446  0.54863  1.0000
  C   C142      1.0  0.27857  0.70159  0.43002  1.0000
  C   C143      1.0  0.30929  0.73289  0.42569  1.0000
  H   H120      1.0  0.32272  0.74268  0.48415  1.0000
  C   C144      1.0  0.26720  0.68580  0.52060  1.0000
  H   H121      1.0  0.26490  0.70343  0.56583  1.0000
  H   H122      1.0  0.28575  0.67982  0.54859  1.0000
  C   C145      1.0  0.57841  0.04048  0.33952  1.0000
  C   C146      1.0  0.59794  0.06113  0.26599  1.0000
  C   C147      1.0  0.63379  0.07902  0.27228  1.0000
  H   H123      1.0  0.64762  0.09346  0.21853  1.0000
  C   C148      1.0  0.58297  0.06427  0.17977  1.0000
  H   H124      1.0  0.55558  0.04806  0.17634  1.0000
  H   H125      1.0  0.59368  0.05734  0.12335  1.0000
  H   H126      1.0  0.58891  0.09043  0.17083  1.0000
  C   C149      1.0  0.96959  0.04057  0.33957  1.0000
  C   C150      1.0  0.94898  0.03951  0.26599  1.0000
  C   C151      1.0  0.93116  0.05754  0.27223  1.0000
  H   H127      1.0  0.91674  0.05696  0.21845  1.0000
  C   C152      1.0  0.94581  0.02139  0.17979  1.0000
  H   H128      1.0  0.96196  0.01014  0.17641  1.0000
  H   H129      1.0  0.95280  0.03902  0.12337  1.0000
  H   H130      1.0  0.91962  0.00124  0.17080  1.0000
  C   C153      1.0  0.96952  0.43169  0.33953  1.0000
  C   C154      1.0  0.97065  0.41217  0.26600  1.0000
  C   C155      1.0  0.95267  0.37633  0.27227  1.0000
  H   H131      1.0  0.95329  0.36251  0.21851  1.0000
  C   C156      1.0  0.98877  0.42712  0.17981  1.0000
  H   H132      1.0  0.99996  0.45450  0.17640  1.0000
  H   H133      1.0  0.97115  0.41644  0.12337  1.0000
  C   C157      1.0  0.76204  0.07923  0.34268  1.0000
  C   C158      1.0  0.77733  0.07688  0.26145  1.0000
  C   C159      1.0  0.80833  0.07681  0.26575  1.0000
  H   H134      1.0  0.82090  0.07869  0.20676  1.0000
  C   C160      1.0  0.76423  0.07805  0.17036  1.0000
  H   H135      1.0  0.73967  0.07669  0.17256  1.0000
  H   H136      1.0  0.76121  0.05664  0.13025  1.0000
  H   H137      1.0  0.78212  0.10148  0.13629  1.0000
  C   C161      1.0  0.93101  0.18558  0.34265  1.0000
  C   C162      1.0  0.93335  0.20323  0.26142  1.0000
  C   C163      1.0  0.93343  0.23429  0.26574  1.0000
  H   H138      1.0  0.93154  0.24498  0.20676  1.0000
  C   C164      1.0  0.93215  0.18896  0.17032  1.0000
  H   H139      1.0  0.93351  0.16577  0.17249  1.0000
  H   H140      1.0  0.95356  0.20734  0.13018  1.0000
  H   H141      1.0  0.90870  0.18342  0.13629  1.0000
  C   C165      1.0  0.82463  0.24813  0.34264  1.0000
  C   C166      1.0  0.80697  0.23284  0.26142  1.0000
  C   C167      1.0  0.77590  0.20187  0.26575  1.0000
  H   H142      1.0  0.76521  0.18930  0.20676  1.0000
  C   C168      1.0  0.82123  0.24593  0.17032  1.0000
  H   H143      1.0  0.84443  0.27046  0.17250  1.0000
  H   H144      1.0  0.80284  0.24896  0.13022  1.0000
  H   H145      1.0  0.82678  0.22803  0.13625  1.0000
  C   C169      1.0  0.54204  0.02233  0.34094  1.0000
  C   C170      1.0  0.52361  0.03979  0.34167  1.0000
  C   C171      1.0  0.98773  0.02234  0.34097  1.0000
  C   C172      1.0  0.97027  0.48646  0.34169  1.0000
  C   C173      1.0  0.98774  0.46805  0.34095  1.0000
  C   C174      1.0  0.52363  0.48647  0.34171  1.0000
  H   H146      1.0  0.94433  0.47351  0.34117  1.0000
  H   H147      1.0  0.53660  0.47350  0.34115  1.0000
  H   H148      1.0  0.53659  0.06573  0.34117  1.0000
  C   C175      1.0  0.74180  0.09506  0.34335  1.0000
  C   C176      1.0  0.75915  0.13076  0.34331  1.0000
  C   C177      1.0  0.74183  0.14914  0.34523  1.0000
  C   C178      1.0  0.70601  0.13103  0.34611  1.0000
  C   C179      1.0  0.68763  0.09505  0.34699  1.0000
  C   C180      1.0  0.70598  0.07741  0.34527  1.0000
  H   H149      1.0  0.69327  0.14420  0.34829  1.0000
  H   H150      1.0  0.69321  0.05150  0.34523  1.0000
  H   H151      1.0  0.78517  0.14375  0.34271  1.0000
  C   C181      1.0  0.91519  0.14953  0.34330  1.0000
  C   C182      1.0  0.87947  0.13118  0.34326  1.0000
  C   C183      1.0  0.86109  0.09549  0.34521  1.0000
  C   C184      1.0  0.87921  0.07779  0.34607  1.0000
  C   C185      1.0  0.91519  0.09539  0.34692  1.0000
  C   C186      1.0  0.93284  0.13137  0.34521  1.0000
  H   H152      1.0  0.86603  0.05189  0.34826  1.0000
  H   H153      1.0  0.95876  0.14450  0.34517  1.0000
  H   H154      1.0  0.86647  0.14419  0.34271  1.0000
  C   C187      1.0  0.86069  0.26836  0.34329  1.0000
  C   C188      1.0  0.87906  0.25102  0.34325  1.0000
  C   C189      1.0  0.91477  0.26833  0.34519  1.0000
  C   C190      1.0  0.93246  0.30414  0.34611  1.0000
  C   C191      1.0  0.91484  0.32251  0.34694  1.0000
  C   C192      1.0  0.87885  0.30416  0.34520  1.0000
  H   H155      1.0  0.95837  0.31687  0.34828  1.0000
  H   H156      1.0  0.86569  0.31694  0.34516  1.0000
  H   H157      1.0  0.86606  0.22501  0.34269  1.0000
  C   C193      1.0  0.65127  0.07693  0.34864  1.0000
  C   C194      1.0  0.63175  0.05624  0.42210  1.0000
  C   C195      1.0  0.59590  0.03837  0.41586  1.0000
  H   H158      1.0  0.58207  0.02391  0.46958  1.0000
  C   C196      1.0  0.64675  0.05304  0.50818  1.0000
  H   H159      1.0  0.67416  0.06918  0.51142  1.0000
  H   H160      1.0  0.64074  0.02686  0.51703  1.0000
  H   H161      1.0  0.63613  0.06000  0.56471  1.0000
  C   C197      1.0  0.93330  0.07714  0.34856  1.0000
  C   C198      1.0  0.95395  0.07824  0.42207  1.0000
  C   C199      1.0  0.97175  0.06019  0.41588  1.0000
  H   H162      1.0  0.98620  0.06079  0.46962  1.0000
  C   C200      1.0  0.95719  0.09646  0.50813  1.0000
  H   H163      1.0  0.94111  0.10779  0.51132  1.0000
  H   H164      1.0  0.98341  0.11657  0.51703  1.0000
  H   H165      1.0  0.95016  0.07887  0.56467  1.0000
  C   C201      1.0  0.93307  0.35886  0.34860  1.0000
  C   C202      1.0  0.93190  0.37838  0.42205  1.0000
  C   C203      1.0  0.94990  0.41422  0.41583  1.0000
  H   H166      1.0  0.94926  0.42804  0.46955  1.0000
  C   C204      1.0  0.91368  0.36339  0.50810  1.0000
  H   H167      1.0  0.90240  0.33600  0.51133  1.0000
  H   H168      1.0  0.89350  0.36942  0.51693  1.0000
  H   H169      1.0  0.93125  0.37399  0.56466  1.0000
  C   C205      1.0  0.82505  0.07974  0.34842  1.0000
  C   C206      1.0  0.80862  0.07976  0.43004  1.0000
  C   C207      1.0  0.77729  0.07915  0.42572  1.0000
  H   H170      1.0  0.76749  0.08277  0.48420  1.0000
  C   C208      1.0  0.82442  0.08418  0.52061  1.0000
  H   H171      1.0  0.84764  0.08286  0.51904  1.0000
  H   H172      1.0  0.80680  0.06426  0.56585  1.0000
  H   H173      1.0  0.83039  0.10869  0.54860  1.0000
  C   C209      1.0  0.93055  0.24807  0.34847  1.0000
  C   C210      1.0  0.93050  0.23162  0.43008  1.0000
  C   C211      1.0  0.93110  0.20091  0.42571  1.0000
  H   H174      1.0  0.92747  0.18748  0.48418  1.0000
  C   C212      1.0  0.92607  0.24299  0.52065  1.0000
  H   H175      1.0  0.92740  0.26752  0.51907  1.0000
  H   H176      1.0  0.94601  0.24529  0.56589  1.0000
  H   H177      1.0  0.90155  0.22445  0.54863  1.0000
  C   C213      1.0  0.76211  0.18516  0.34842  1.0000
  C   C214      1.0  0.77857  0.20158  0.43002  1.0000
  C   C215      1.0  0.80929  0.23289  0.42569  1.0000
  H   H178      1.0  0.82272  0.24268  0.48415  1.0000
  C   C216      1.0  0.76720  0.18580  0.52060  1.0000
  H   H179      1.0  0.74266  0.16260  0.51905  1.0000
  H   H180      1.0  0.76490  0.20342  0.56583  1.0000
  H   H181      1.0  0.78575  0.17982  0.54859  1.0000
  C   C217      1.0  0.57841  0.54048  0.33952  1.0000
  C   C218      1.0  0.59794  0.56113  0.26599  1.0000
  C   C219      1.0  0.63379  0.57902  0.27228  1.0000
  H   H182      1.0  0.64762  0.59346  0.21853  1.0000
  C   C220      1.0  0.58297  0.56427  0.17977  1.0000
  H   H183      1.0  0.55558  0.54806  0.17634  1.0000
  H   H184      1.0  0.59368  0.55734  0.12335  1.0000
  H   H185      1.0  0.58891  0.59043  0.17083  1.0000
  C   C221      1.0  0.96959  0.54057  0.33957  1.0000
  C   C222      1.0  0.94898  0.53951  0.26599  1.0000
  C   C223      1.0  0.93116  0.55754  0.27223  1.0000
  H   H186      1.0  0.91674  0.55696  0.21845  1.0000
  C   C224      1.0  0.94581  0.52139  0.17979  1.0000
  H   H187      1.0  0.96196  0.51014  0.17641  1.0000
  H   H188      1.0  0.95280  0.53902  0.12337  1.0000
  H   H189      1.0  0.91962  0.50124  0.17080  1.0000
  C   C225      1.0  0.96952  0.93169  0.33953  1.0000
  C   C226      1.0  0.97065  0.91217  0.26600  1.0000
  C   C227      1.0  0.95267  0.87633  0.27227  1.0000
  H   H190      1.0  0.95329  0.86251  0.21851  1.0000
  C   C228      1.0  0.98877  0.92712  0.17981  1.0000
  H   H191      1.0  0.99996  0.95450  0.17640  1.0000
  H   H192      1.0  0.97115  0.91644  0.12337  1.0000
  C   C229      1.0  0.76204  0.57923  0.34268  1.0000
  C   C230      1.0  0.77733  0.57688  0.26145  1.0000
  C   C231      1.0  0.80833  0.57681  0.26575  1.0000
  H   H193      1.0  0.82091  0.57870  0.20676  1.0000
  C   C232      1.0  0.76423  0.57805  0.17036  1.0000
  H   H194      1.0  0.73967  0.57669  0.17256  1.0000
  H   H195      1.0  0.76121  0.55664  0.13025  1.0000
  H   H196      1.0  0.78212  0.60149  0.13629  1.0000
  C   C233      1.0  0.93101  0.68558  0.34265  1.0000
  C   C234      1.0  0.93335  0.70323  0.26142  1.0000
  C   C235      1.0  0.93343  0.73429  0.26574  1.0000
  H   H197      1.0  0.93154  0.74498  0.20676  1.0000
  C   C236      1.0  0.93215  0.68896  0.17032  1.0000
  H   H198      1.0  0.93350  0.66577  0.17249  1.0000
  H   H199      1.0  0.95356  0.70734  0.13018  1.0000
  H   H200      1.0  0.90870  0.68342  0.13629  1.0000
  C   C237      1.0  0.82463  0.74813  0.34264  1.0000
  C   C238      1.0  0.80697  0.73284  0.26142  1.0000
  C   C239      1.0  0.77590  0.70186  0.26575  1.0000
  H   H201      1.0  0.76521  0.68930  0.20676  1.0000
  C   C240      1.0  0.82123  0.74593  0.17032  1.0000
  H   H202      1.0  0.84443  0.77046  0.17250  1.0000
  H   H203      1.0  0.80284  0.74896  0.13022  1.0000
  H   H204      1.0  0.82678  0.72803  0.13625  1.0000
  C   C241      1.0  0.54204  0.52233  0.34094  1.0000
  C   C242      1.0  0.52361  0.53979  0.34167  1.0000
  C   C243      1.0  0.98774  0.52234  0.34097  1.0000
  C   C244      1.0  0.97027  0.98646  0.34169  1.0000
  C   C245      1.0  0.98774  0.96805  0.34095  1.0000
  C   C246      1.0  0.52363  0.98647  0.34171  1.0000
  H   H205      1.0  0.94433  0.97351  0.34117  1.0000
  H   H206      1.0  0.53660  0.97350  0.34115  1.0000
  H   H207      1.0  0.53659  0.56572  0.34117  1.0000
  C   C247      1.0  0.74180  0.59506  0.34335  1.0000
  C   C248      1.0  0.75915  0.63076  0.34331  1.0000
  C   C249      1.0  0.74183  0.64914  0.34523  1.0000
  C   C250      1.0  0.70601  0.63103  0.34611  1.0000
  C   C251      1.0  0.68763  0.59505  0.34699  1.0000
  C   C252      1.0  0.70598  0.57742  0.34527  1.0000
  H   H208      1.0  0.69327  0.64420  0.34829  1.0000
  H   H209      1.0  0.69321  0.55150  0.34523  1.0000
  H   H210      1.0  0.78517  0.64375  0.34271  1.0000
  C   C253      1.0  0.91519  0.64953  0.34330  1.0000
  C   C254      1.0  0.87947  0.63118  0.34326  1.0000
  C   C255      1.0  0.86109  0.59549  0.34521  1.0000
  C   C256      1.0  0.87921  0.57779  0.34607  1.0000
  C   C257      1.0  0.91520  0.59539  0.34692  1.0000
  C   C258      1.0  0.93284  0.63137  0.34521  1.0000
  H   H211      1.0  0.86603  0.55189  0.34826  1.0000
  H   H212      1.0  0.95877  0.64450  0.34517  1.0000
  H   H213      1.0  0.86647  0.64419  0.34271  1.0000
  C   C259      1.0  0.86070  0.76836  0.34329  1.0000
  C   C260      1.0  0.87906  0.75102  0.34325  1.0000
  C   C261      1.0  0.91477  0.76833  0.34519  1.0000
  C   C262      1.0  0.93246  0.80414  0.34611  1.0000
  C   C263      1.0  0.91484  0.82251  0.34694  1.0000
  C   C264      1.0  0.87885  0.80417  0.34520  1.0000
  H   H214      1.0  0.95837  0.81687  0.34828  1.0000
  H   H215      1.0  0.86569  0.81694  0.34516  1.0000
  H   H216      1.0  0.86606  0.72502  0.34269  1.0000
  C   C265      1.0  0.65127  0.57693  0.34864  1.0000
  C   C266      1.0  0.63175  0.55624  0.42210  1.0000
  C   C267      1.0  0.59590  0.53837  0.41586  1.0000
  H   H217      1.0  0.58207  0.52391  0.46958  1.0000
  C   C268      1.0  0.64675  0.55304  0.50818  1.0000
  H   H218      1.0  0.67416  0.56918  0.51142  1.0000
  H   H219      1.0  0.64074  0.52685  0.51703  1.0000
  H   H220      1.0  0.63613  0.56000  0.56471  1.0000
  C   C269      1.0  0.93330  0.57714  0.34856  1.0000
  C   C270      1.0  0.95395  0.57825  0.42207  1.0000
  C   C271      1.0  0.97175  0.56019  0.41588  1.0000
  H   H221      1.0  0.98620  0.56079  0.46962  1.0000
  C   C272      1.0  0.95719  0.59646  0.50813  1.0000
  H   H222      1.0  0.94111  0.60778  0.51132  1.0000
  H   H223      1.0  0.98341  0.61657  0.51703  1.0000
  H   H224      1.0  0.95016  0.57887  0.56467  1.0000
  C   C273      1.0  0.93307  0.85886  0.34860  1.0000
  C   C274      1.0  0.93190  0.87838  0.42205  1.0000
  C   C275      1.0  0.94990  0.91422  0.41583  1.0000
  H   H225      1.0  0.94926  0.92804  0.46955  1.0000
  C   C276      1.0  0.91368  0.86339  0.50810  1.0000
  H   H226      1.0  0.90241  0.83600  0.51133  1.0000
  H   H227      1.0  0.89350  0.86943  0.51693  1.0000
  H   H228      1.0  0.93125  0.87399  0.56466  1.0000
  C   C277      1.0  0.82505  0.57974  0.34842  1.0000
  C   C278      1.0  0.80862  0.57976  0.43004  1.0000
  C   C279      1.0  0.77729  0.57915  0.42572  1.0000
  H   H229      1.0  0.76749  0.58277  0.48420  1.0000
  C   C280      1.0  0.82442  0.58418  0.52061  1.0000
  H   H230      1.0  0.84764  0.58287  0.51904  1.0000
  H   H231      1.0  0.80680  0.56426  0.56585  1.0000
  H   H232      1.0  0.83039  0.60869  0.54860  1.0000
  C   C281      1.0  0.93055  0.74807  0.34847  1.0000
  C   C282      1.0  0.93050  0.73162  0.43008  1.0000
  C   C283      1.0  0.93110  0.70091  0.42571  1.0000
  H   H233      1.0  0.92747  0.68748  0.48418  1.0000
  C   C284      1.0  0.92607  0.74299  0.52065  1.0000
  H   H234      1.0  0.92740  0.76752  0.51907  1.0000
  H   H235      1.0  0.94601  0.74529  0.56589  1.0000
  H   H236      1.0  0.90155  0.72446  0.54863  1.0000
  C   C285      1.0  0.76211  0.68516  0.34842  1.0000
  C   C286      1.0  0.77857  0.70159  0.43002  1.0000
  C   C287      1.0  0.80929  0.73289  0.42569  1.0000
  H   H237      1.0  0.82272  0.74268  0.48415  1.0000
  C   C288      1.0  0.76720  0.68580  0.52060  1.0000
  H   H238      1.0  0.74266  0.66260  0.51905  1.0000
  H   H239      1.0  0.76490  0.70343  0.56583  1.0000
  H   H240      1.0  0.78575  0.67982  0.54859  1.0000
