data_image0
_chemical_formula_structural       C8H3CH3CHC4H3CH3CHC4H3CH3CHC4H3CH3CHC4H3CH3CHC4H3CH3CHC4H3CH3CHC4H3CH3CHC4H3CH3CHC4H3CH3CHC4H3CH3CHC4H3CH3CHC4H3CH3CHC4H3CH3CHC4H3CH3CHC4H3CH3CHC4H3CH3CHC4H3CH3CHCNCNCN4CNCNCN5CNCN5CNCN4CNCNCN4CNCNCN5CNCN5CNCN4CNCNCN4CNCNCN4CNCNCN4CNCNCN4C4H3CH3CHC4H3CH3CHC4H3CH3CHC4H3CH3CHC4H3CH3CHC4H3CH3CHC4H3CH3CHC4H3CH3CHC4H3CH3CHC4H3CH3CHC4H3CH3CHC4H3CH3CHC4H3CH3CHC4H3CH3CHC4H3CH3CHC4H3CH3CHC4H3CH3CHC4H3CH3CH
_chemical_formula_sum              "C252 H252 N72"
_cell_length_a       32.727
_cell_length_b       84.8585
_cell_length_c       14.77
_cell_angle_alpha    90
_cell_angle_beta     90
_cell_angle_gamma    90

_space_group_name_H-M_alt    "P 1"
_space_group_IT_number       1

loop_
  _space_group_symop_operation_xyz
  'x, y, z'

loop_
  _atom_site_type_symbol
  _atom_site_label
  _atom_site_symmetry_multiplicity
  _atom_site_fract_x
  _atom_site_fract_y
  _atom_site_fract_z
  _atom_site_occupancy
  C   C1        1.0  0.73656  0.17278  0.34608  1.0000
  C   C2        1.0  0.27908  0.84275  0.34645  1.0000
  C   C3        1.0  0.23638  0.67274  0.34683  1.0000
  C   C4        1.0  0.77909  0.34279  0.34725  1.0000
  C   C5        1.0  0.55323  0.18407  0.33029  1.0000
  C   C6        1.0  0.52663  0.18536  0.25370  1.0000
  C   C7        1.0  0.48315  0.18568  0.26537  1.0000
  C   C8        1.0  0.54402  0.18552  0.15921  1.0000
  H   H1        1.0  0.57658  0.18296  0.15532  1.0000
  H   H2        1.0  0.53903  0.19703  0.12817  1.0000
  H   H3        1.0  0.52945  0.17650  0.11779  1.0000
  C   C9        1.0  0.45656  0.18848  0.18362  1.0000
  H   H4        1.0  0.42412  0.18978  0.19736  1.0000
  H   H5        1.0  0.45934  0.17862  0.13668  1.0000
  H   H6        1.0  0.46595  0.19929  0.14941  1.0000
  C   C10       1.0  0.59539  0.18795  0.32077  1.0000
  H   H7        1.0  0.60280  0.19681  0.27654  1.0000
  C   C11       1.0  0.46233  0.83147  0.33073  1.0000
  C   C12       1.0  0.48889  0.83022  0.25405  1.0000
  C   C13       1.0  0.53239  0.82991  0.26562  1.0000
  C   C14       1.0  0.47145  0.83006  0.15962  1.0000
  H   H8        1.0  0.43889  0.83261  0.15584  1.0000
  H   H9        1.0  0.47645  0.81856  0.12850  1.0000
  H   H10       1.0  0.48598  0.83910  0.11819  1.0000
  C   C15       1.0  0.55894  0.82714  0.18378  1.0000
  H   H11       1.0  0.59139  0.82586  0.19743  1.0000
  H   H12       1.0  0.55610  0.83701  0.13691  1.0000
  H   H13       1.0  0.54958  0.81633  0.14953  1.0000
  C   C16       1.0  0.42022  0.82751  0.32131  1.0000
  H   H14       1.0  0.41282  0.81868  0.27692  1.0000
  C   C17       1.0  0.05310  0.68400  0.32994  1.0000
  C   C18       1.0  0.02656  0.68535  0.25327  1.0000
  C   C19       1.0  0.98305  0.68569  0.26476  1.0000
  C   C20       1.0  0.04402  0.68556  0.15886  1.0000
  H   H15       1.0  0.07658  0.68299  0.15507  1.0000
  H   H16       1.0  0.03909  0.69709  0.12801  1.0000
  H   H17       1.0  0.02946  0.67656  0.11721  1.0000
  C   C21       1.0  0.95655  0.68855  0.18294  1.0000
  H   H18       1.0  0.92409  0.68982  0.19655  1.0000
  H   H19       1.0  0.95940  0.67873  0.13575  1.0000
  H   H20       1.0  0.96595  0.69939  0.14909  1.0000
  C   C22       1.0  0.09524  0.68794  0.32068  1.0000
  H   H21       1.0  0.10270  0.69678  0.27646  1.0000
  C   C23       1.0  0.96241  0.33156  0.33041  1.0000
  C   C24       1.0  0.98895  0.33025  0.25371  1.0000
  C   C25       1.0  0.03245  0.32990  0.26521  1.0000
  C   C26       1.0  0.97148  0.33006  0.15930  1.0000
  H   H22       1.0  0.93892  0.33263  0.15553  1.0000
  H   H23       1.0  0.97642  0.31855  0.12832  1.0000
  H   H24       1.0  0.98604  0.33908  0.11775  1.0000
  C   C27       1.0  0.05895  0.32706  0.18336  1.0000
  H   H25       1.0  0.09140  0.32577  0.19697  1.0000
  H   H26       1.0  0.05613  0.33690  0.13630  1.0000
  H   H27       1.0  0.04953  0.31624  0.14936  1.0000
  C   C28       1.0  0.92025  0.32765  0.32106  1.0000
  H   H28       1.0  0.91289  0.31878  0.27694  1.0000
  C   C29       1.0  0.18665  0.14949  0.38180  1.0000
  C   C30       1.0  0.19259  0.13382  0.34836  1.0000
  C   C31       1.0  0.16154  0.12204  0.36081  1.0000
  C   C32       1.0  0.17085  0.10496  0.34624  1.0000
  H   H29       1.0  0.20341  0.10230  0.34687  1.0000
  H   H30       1.0  0.15794  0.10098  0.28205  1.0000
  H   H31       1.0  0.15820  0.09797  0.40154  1.0000
  C   C33       1.0  0.22876  0.13047  0.28887  1.0000
  H   H32       1.0  0.23303  0.13995  0.23980  1.0000
  H   H33       1.0  0.22570  0.11988  0.24781  1.0000
  H   H34       1.0  0.25621  0.12935  0.33029  1.0000
  C   C34       1.0  0.21536  0.16202  0.36836  1.0000
  H   H35       1.0  0.20406  0.17322  0.37121  1.0000
  C   C35       1.0  0.82891  0.86610  0.38177  1.0000
  C   C36       1.0  0.82298  0.88177  0.34828  1.0000
  C   C37       1.0  0.85404  0.89354  0.36066  1.0000
  C   C38       1.0  0.84475  0.91063  0.34593  1.0000
  H   H36       1.0  0.81218  0.91329  0.34652  1.0000
  H   H37       1.0  0.85767  0.91459  0.28171  1.0000
  H   H38       1.0  0.85739  0.91763  0.40117  1.0000
  C   C39       1.0  0.78684  0.88510  0.28866  1.0000
  H   H39       1.0  0.78262  0.87562  0.23963  1.0000
  H   H40       1.0  0.78991  0.89568  0.24756  1.0000
  H   H41       1.0  0.75936  0.88622  0.32999  1.0000
  C   C40       1.0  0.80020  0.85357  0.36832  1.0000
  H   H42       1.0  0.81151  0.84237  0.37116  1.0000
  C   C41       1.0  0.89816  0.12538  0.31496  1.0000
  C   C42       1.0  0.90304  0.14048  0.27235  1.0000
  C   C43       1.0  0.86972  0.15149  0.27010  1.0000
  C   C44       1.0  0.94164  0.14464  0.22107  1.0000
  H   H43       1.0  0.96495  0.13556  0.21731  1.0000
  H   H44       1.0  0.95570  0.15502  0.25155  1.0000
  H   H45       1.0  0.93490  0.14710  0.15031  1.0000
  C   C45       1.0  0.87308  0.16574  0.20901  1.0000
  H   H46       1.0  0.84535  0.17263  0.20068  1.0000
  H   H47       1.0  0.88040  0.16212  0.14015  1.0000
  H   H48       1.0  0.89689  0.17363  0.23389  1.0000
  C   C46       1.0  0.93351  0.11577  0.33043  1.0000
  H   H49       1.0  0.96027  0.12182  0.33657  1.0000
  C   C47       1.0  0.11744  0.89014  0.31567  1.0000
  C   C48       1.0  0.11253  0.87503  0.27317  1.0000
  C   C49       1.0  0.14586  0.86402  0.27089  1.0000
  C   C50       1.0  0.07387  0.87085  0.22215  1.0000
  H   H50       1.0  0.05056  0.87993  0.21838  1.0000
  H   H51       1.0  0.05984  0.86048  0.25287  1.0000
  H   H52       1.0  0.08054  0.86836  0.15140  1.0000
  C   C51       1.0  0.14245  0.84976  0.20989  1.0000
  H   H53       1.0  0.17017  0.84286  0.20149  1.0000
  H   H54       1.0  0.13509  0.85337  0.14104  1.0000
  H   H55       1.0  0.11866  0.84187  0.23489  1.0000
  C   C52       1.0  0.08210  0.89975  0.33116  1.0000
  H   H56       1.0  0.05534  0.89371  0.33741  1.0000
  C   C53       1.0  0.68659  0.64951  0.38082  1.0000
  C   C54       1.0  0.69254  0.63384  0.34745  1.0000
  C   C55       1.0  0.66148  0.62207  0.35994  1.0000
  C   C56       1.0  0.67078  0.60498  0.34540  1.0000
  H   H57       1.0  0.70335  0.60232  0.34599  1.0000
  H   H58       1.0  0.65785  0.60099  0.28124  1.0000
  H   H59       1.0  0.65815  0.59799  0.40073  1.0000
  C   C57       1.0  0.72870  0.63049  0.28797  1.0000
  H   H60       1.0  0.73298  0.63996  0.23890  1.0000
  H   H61       1.0  0.72563  0.61990  0.24691  1.0000
  H   H62       1.0  0.75615  0.62936  0.32938  1.0000
  C   C58       1.0  0.71531  0.66204  0.36731  1.0000
  H   H63       1.0  0.70400  0.67324  0.37003  1.0000
  C   C59       1.0  0.32883  0.36611  0.38108  1.0000
  C   C60       1.0  0.32295  0.38175  0.34710  1.0000
  C   C61       1.0  0.35397  0.39354  0.35949  1.0000
  C   C62       1.0  0.34472  0.41061  0.34399  1.0000
  H   H64       1.0  0.31215  0.41326  0.34395  1.0000
  H   H65       1.0  0.35785  0.41450  0.27985  1.0000
  H   H66       1.0  0.35718  0.41767  0.39919  1.0000
  C   C63       1.0  0.28697  0.38501  0.28691  1.0000
  H   H67       1.0  0.28283  0.37547  0.23821  1.0000
  H   H68       1.0  0.29016  0.39554  0.24542  1.0000
  H   H69       1.0  0.25939  0.38619  0.32787  1.0000
  C   C64       1.0  0.30017  0.35357  0.36759  1.0000
  H   H70       1.0  0.31150  0.34237  0.37064  1.0000
  C   C65       1.0  0.39789  0.62532  0.31554  1.0000
  C   C66       1.0  0.40254  0.64034  0.27182  1.0000
  C   C67       1.0  0.36925  0.65136  0.27000  1.0000
  C   C68       1.0  0.44078  0.64434  0.21890  1.0000
  H   H71       1.0  0.46398  0.63523  0.21492  1.0000
  H   H72       1.0  0.45516  0.65477  0.24820  1.0000
  H   H73       1.0  0.43354  0.64667  0.14825  1.0000
  C   C69       1.0  0.37237  0.66554  0.20823  1.0000
  H   H74       1.0  0.34466  0.67247  0.20050  1.0000
  H   H75       1.0  0.37921  0.66182  0.13930  1.0000
  H   H76       1.0  0.39642  0.67342  0.23205  1.0000
  C   C70       1.0  0.43334  0.61575  0.33063  1.0000
  H   H77       1.0  0.46012  0.62182  0.33578  1.0000
  C   C71       1.0  0.61747  0.39016  0.31624  1.0000
  C   C72       1.0  0.61268  0.37509  0.27321  1.0000
  C   C73       1.0  0.64598  0.36407  0.27123  1.0000
  C   C74       1.0  0.57421  0.37099  0.22134  1.0000
  H   H78       1.0  0.55097  0.38009  0.21738  1.0000
  H   H79       1.0  0.56000  0.36061  0.25148  1.0000
  H   H80       1.0  0.58114  0.36855  0.15064  1.0000
  C   C75       1.0  0.64270  0.34984  0.20995  1.0000
  H   H81       1.0  0.67040  0.34292  0.20192  1.0000
  H   H82       1.0  0.63560  0.35349  0.14103  1.0000
  H   H83       1.0  0.61877  0.34197  0.23443  1.0000
  C   C76       1.0  0.58209  0.39976  0.33146  1.0000
  H   H84       1.0  0.55531  0.39371  0.33721  1.0000
  C   C77       1.0  0.23728  0.27259  0.37809  1.0000
  C   C78       1.0  0.24551  0.26486  0.29410  1.0000
  C   C79       1.0  0.26617  0.24998  0.29387  1.0000
  C   C80       1.0  0.23303  0.27216  0.20524  1.0000
  H   H85       1.0  0.21790  0.28354  0.21047  1.0000
  H   H86       1.0  0.21181  0.26438  0.16994  1.0000
  H   H87       1.0  0.25989  0.27403  0.16287  1.0000
  C   C81       1.0  0.27470  0.24202  0.20458  1.0000
  H   H88       1.0  0.29014  0.23069  0.20922  1.0000
  H   H89       1.0  0.29414  0.24952  0.16286  1.0000
  H   H90       1.0  0.24609  0.23982  0.16886  1.0000
  C   C82       1.0  0.21503  0.28668  0.37876  1.0000
  H   H91       1.0  0.18470  0.28601  0.37702  1.0000
  C   C83       1.0  0.77827  0.74299  0.37798  1.0000
  C   C84       1.0  0.77004  0.75072  0.29399  1.0000
  C   C85       1.0  0.74939  0.76561  0.29376  1.0000
  C   C86       1.0  0.78251  0.74342  0.20513  1.0000
  H   H92       1.0  0.79761  0.73203  0.21034  1.0000
  H   H93       1.0  0.80373  0.75119  0.16981  1.0000
  H   H94       1.0  0.75564  0.74155  0.16276  1.0000
  C   C87       1.0  0.74087  0.77357  0.20448  1.0000
  H   H95       1.0  0.72545  0.78490  0.20911  1.0000
  H   H96       1.0  0.72141  0.76607  0.16276  1.0000
  H   H97       1.0  0.76947  0.77576  0.16874  1.0000
  C   C88       1.0  0.80053  0.72890  0.37864  1.0000
  H   H98       1.0  0.83086  0.72958  0.37653  1.0000
  C   C89       1.0  0.73959  0.24252  0.32331  1.0000
  C   C90       1.0  0.74673  0.25045  0.23935  1.0000
  C   C91       1.0  0.76532  0.26574  0.23926  1.0000
  C   C92       1.0  0.77358  0.27469  0.15307  1.0000
  H   H99       1.0  0.76419  0.26890  0.09087  1.0000
  H   H100      1.0  0.80631  0.27693  0.14682  1.0000
  H   H101      1.0  0.75755  0.28597  0.15498  1.0000
  C   C93       1.0  0.73532  0.24287  0.15085  1.0000
  H   H102      1.0  0.72199  0.23116  0.15611  1.0000
  H   H103      1.0  0.76250  0.24162  0.10863  1.0000
  H   H104      1.0  0.71289  0.25019  0.11582  1.0000
  C   C94       1.0  0.71842  0.22821  0.32434  1.0000
  H   H105      1.0  0.68811  0.22862  0.32883  1.0000
  C   C95       1.0  0.27600  0.77301  0.32339  1.0000
  C   C96       1.0  0.26887  0.76509  0.23936  1.0000
  C   C97       1.0  0.25028  0.74980  0.23915  1.0000
  C   C98       1.0  0.24204  0.74087  0.15290  1.0000
  H   H106      1.0  0.25146  0.74667  0.09075  1.0000
  H   H107      1.0  0.20931  0.73863  0.14660  1.0000
  H   H108      1.0  0.25807  0.72959  0.15477  1.0000
  C   C99       1.0  0.28031  0.77268  0.15091  1.0000
  H   H109      1.0  0.29364  0.78440  0.15626  1.0000
  H   H110      1.0  0.25314  0.77395  0.10867  1.0000
  H   H111      1.0  0.30274  0.76537  0.11588  1.0000
  C   C100      1.0  0.29718  0.78732  0.32450  1.0000
  H   H112      1.0  0.32748  0.78690  0.32907  1.0000
  C   C101      1.0  0.00109  0.02455  0.34930  1.0000
  C   C102      1.0  0.00664  0.01616  0.26607  1.0000
  C   C103      1.0  0.01358  0.99944  0.26689  1.0000
  C   C104      1.0  0.01916  0.99010  0.18101  1.0000
  H   H113      1.0  0.01663  0.99672  0.11831  1.0000
  H   H114      1.0  0.99606  0.98083  0.17761  1.0000
  H   H115      1.0  0.04936  0.98464  0.18080  1.0000
  C   C105      1.0  0.00586  0.02477  0.17710  1.0000
  H   H116      1.0  0.00169  0.03747  0.18171  1.0000
  H   H117      1.0  0.98083  0.02031  0.13553  1.0000
  H   H118      1.0  0.03477  0.02298  0.14173  1.0000
  C   C106      1.0  0.98999  0.04062  0.34817  1.0000
  H   H119      1.0  0.96039  0.04317  0.34438  1.0000
  C   C107      1.0  0.50106  0.52456  0.34914  1.0000
  C   C108      1.0  0.50663  0.51617  0.26593  1.0000
  C   C109      1.0  0.51358  0.49945  0.26674  1.0000
  C   C110      1.0  0.51920  0.49011  0.18089  1.0000
  H   H120      1.0  0.51671  0.49672  0.11819  1.0000
  H   H121      1.0  0.49610  0.48084  0.17742  1.0000
  H   H122      1.0  0.54940  0.48465  0.18075  1.0000
  C   C111      1.0  0.50585  0.52478  0.17696  1.0000
  H   H123      1.0  0.50166  0.53747  0.18156  1.0000
  H   H124      1.0  0.48085  0.52031  0.13534  1.0000
  H   H125      1.0  0.53478  0.52299  0.14162  1.0000
  C   C112      1.0  0.48996  0.54062  0.34804  1.0000
  H   H126      1.0  0.46036  0.54317  0.34429  1.0000
  C   C113      1.0  0.28364  0.17345  0.35567  1.0000
  N   N1        1.0  0.32459  0.17071  0.34819  1.0000
  C   C114      1.0  0.35254  0.18260  0.35470  1.0000
  N   N2        1.0  0.33856  0.19759  0.36681  1.0000
  C   C115      1.0  0.29791  0.20087  0.37214  1.0000
  N   N3        1.0  0.27121  0.18866  0.36704  1.0000
  N   N4        1.0  0.25666  0.16119  0.35756  1.0000
  N   N5        1.0  0.28259  0.21538  0.37724  1.0000
  N   N6        1.0  0.39312  0.17946  0.34626  1.0000
  C   C116      1.0  0.73192  0.84213  0.35562  1.0000
  N   N7        1.0  0.69097  0.84488  0.34823  1.0000
  C   C117      1.0  0.66302  0.83298  0.35475  1.0000
  N   N8        1.0  0.67700  0.81799  0.36679  1.0000
  C   C118      1.0  0.71766  0.81471  0.37208  1.0000
  N   N9        1.0  0.74435  0.82692  0.36696  1.0000
  N   N10       1.0  0.75890  0.85439  0.35754  1.0000
  N   N11       1.0  0.73297  0.80020  0.37716  1.0000
  N   N12       1.0  0.62244  0.83613  0.34637  1.0000
  N   N13       1.0  0.69556  0.17000  0.35146  1.0000
  C   C119      1.0  0.66758  0.18186  0.34364  1.0000
  N   N14       1.0  0.68160  0.19685  0.33220  1.0000
  C   C120      1.0  0.72226  0.20022  0.32934  1.0000
  N   N15       1.0  0.74903  0.18801  0.33546  1.0000
  N   N16       1.0  0.76334  0.16044  0.34431  1.0000
  N   N17       1.0  0.73711  0.21483  0.32449  1.0000
  N   N18       1.0  0.62691  0.17860  0.34752  1.0000
  N   N19       1.0  0.32009  0.84551  0.35177  1.0000
  C   C121      1.0  0.34805  0.83365  0.34395  1.0000
  N   N20       1.0  0.33401  0.81867  0.33251  1.0000
  C   C122      1.0  0.29335  0.81531  0.32967  1.0000
  N   N21       1.0  0.26660  0.82751  0.33581  1.0000
  N   N22       1.0  0.25230  0.85509  0.34475  1.0000
  N   N23       1.0  0.27849  0.80069  0.32472  1.0000
  N   N24       1.0  0.38872  0.83690  0.34786  1.0000
  C   C123      1.0  0.78360  0.67348  0.35471  1.0000
  N   N25       1.0  0.82456  0.67073  0.34753  1.0000
  C   C124      1.0  0.85250  0.68263  0.35404  1.0000
  N   N26       1.0  0.83849  0.69762  0.36587  1.0000
  C   C125      1.0  0.79784  0.70090  0.37093  1.0000
  N   N27       1.0  0.77115  0.68869  0.36576  1.0000
  N   N28       1.0  0.75662  0.66121  0.35667  1.0000
  N   N29       1.0  0.78254  0.71542  0.37570  1.0000
  N   N30       1.0  0.89310  0.67951  0.34567  1.0000
  C   C126      1.0  0.23191  0.34211  0.35486  1.0000
  N   N31       1.0  0.19094  0.34485  0.34773  1.0000
  C   C127      1.0  0.16301  0.33295  0.35429  1.0000
  N   N32       1.0  0.17704  0.31796  0.36612  1.0000
  C   C128      1.0  0.21770  0.31468  0.37113  1.0000
  N   N33       1.0  0.24438  0.32690  0.36592  1.0000
  N   N34       1.0  0.25886  0.35438  0.35681  1.0000
  N   N35       1.0  0.23300  0.30017  0.37576  1.0000
  N   N36       1.0  0.12241  0.33606  0.34599  1.0000
  N   N37       1.0  0.19537  0.66995  0.35186  1.0000
  C   C129      1.0  0.16739  0.68181  0.34383  1.0000
  N   N38       1.0  0.18141  0.69680  0.33254  1.0000
  C   C130      1.0  0.22207  0.70017  0.33001  1.0000
  N   N39       1.0  0.24885  0.68798  0.33641  1.0000
  N   N40       1.0  0.26320  0.66041  0.34527  1.0000
  N   N41       1.0  0.23687  0.71480  0.32560  1.0000
  N   N42       1.0  0.12671  0.67855  0.34746  1.0000
  N   N43       1.0  0.82010  0.34558  0.35230  1.0000
  C   C131      1.0  0.84810  0.33374  0.34428  1.0000
  N   N44       1.0  0.83411  0.31874  0.33295  1.0000
  C   C132      1.0  0.79346  0.31535  0.33041  1.0000
  N   N45       1.0  0.76665  0.32754  0.33681  1.0000
  N   N46       1.0  0.75226  0.35511  0.34565  1.0000
  N   N47       1.0  0.77868  0.30072  0.32592  1.0000
  N   N48       1.0  0.88876  0.33701  0.34794  1.0000
  C   C133      1.0  0.01241  0.06771  0.35126  1.0000
  N   N49       1.0  0.04751  0.07640  0.35543  1.0000
  C   C134      1.0  0.04722  0.09245  0.35537  1.0000
  N   N50       1.0  0.01018  0.09963  0.35097  1.0000
  C   C135      1.0  0.97406  0.09173  0.34668  1.0000
  N   N51       1.0  0.97591  0.07563  0.34691  1.0000
  N   N52       1.0  0.01629  0.05195  0.35163  1.0000
  N   N53       1.0  0.93807  0.09981  0.33796  1.0000
  N   N54       1.0  0.08240  0.10098  0.36401  1.0000
  C   C136      1.0  0.00328  0.94784  0.35091  1.0000
  N   N55       1.0  0.96815  0.93917  0.35482  1.0000
  C   C137      1.0  0.96840  0.92311  0.35509  1.0000
  N   N56       1.0  0.00544  0.91592  0.35112  1.0000
  C   C138      1.0  0.04158  0.92381  0.34699  1.0000
  N   N57       1.0  0.03977  0.93991  0.34699  1.0000
  N   N58       1.0  0.99945  0.96360  0.35077  1.0000
  N   N59       1.0  0.07757  0.91572  0.33847  1.0000
  N   N60       1.0  0.93321  0.91460  0.36366  1.0000
  C   C139      1.0  0.51236  0.56772  0.35113  1.0000
  N   N61       1.0  0.54746  0.57641  0.35500  1.0000
  C   C140      1.0  0.54715  0.59247  0.35490  1.0000
  N   N62       1.0  0.51009  0.59964  0.35078  1.0000
  C   C141      1.0  0.47398  0.59173  0.34682  1.0000
  N   N63       1.0  0.47585  0.57563  0.34711  1.0000
  N   N64       1.0  0.51626  0.55196  0.35148  1.0000
  N   N65       1.0  0.43795  0.59979  0.33846  1.0000
  N   N66       1.0  0.58233  0.60100  0.36333  1.0000
  C   C142      1.0  0.50322  0.44785  0.35077  1.0000
  N   N67       1.0  0.46809  0.43917  0.35446  1.0000
  C   C143      1.0  0.46834  0.42312  0.35477  1.0000
  N   N68       1.0  0.50539  0.41592  0.35106  1.0000
  C   C144      1.0  0.54153  0.42381  0.34715  1.0000
  N   N69       1.0  0.53972  0.43991  0.34712  1.0000
  N   N70       1.0  0.49940  0.46361  0.35059  1.0000
  N   N71       1.0  0.57753  0.41573  0.33889  1.0000
  N   N72       1.0  0.43313  0.41461  0.36316  1.0000
  C   C145      1.0  0.46619  0.18454  0.35429  1.0000
  C   C146      1.0  0.49258  0.18182  0.42995  1.0000
  C   C147      1.0  0.53610  0.18150  0.41823  1.0000
  C   C148      1.0  0.56458  0.17989  0.49776  1.0000
  H   H127      1.0  0.55008  0.17898  0.56370  1.0000
  H   H128      1.0  0.58470  0.19013  0.50174  1.0000
  H   H129      1.0  0.58308  0.16930  0.48942  1.0000
  C   C149      1.0  0.47447  0.17838  0.52137  1.0000
  H   H130      1.0  0.44139  0.17697  0.52185  1.0000
  H   H131      1.0  0.48192  0.18789  0.56831  1.0000
  H   H132      1.0  0.48665  0.16729  0.54727  1.0000
  C   C150      1.0  0.42488  0.18904  0.36853  1.0000
  H   H133      1.0  0.41923  0.19710  0.41866  1.0000
  C   C151      1.0  0.54937  0.83105  0.35453  1.0000
  C   C152      1.0  0.52301  0.83374  0.43027  1.0000
  C   C153      1.0  0.47948  0.83404  0.41863  1.0000
  C   C154      1.0  0.45103  0.83561  0.49823  1.0000
  H   H134      1.0  0.46555  0.83654  0.56413  1.0000
  H   H135      1.0  0.43098  0.82536  0.50223  1.0000
  H   H136      1.0  0.43245  0.84619  0.48995  1.0000
  C   C155      1.0  0.54116  0.83717  0.52165  1.0000
  H   H137      1.0  0.57423  0.83859  0.52205  1.0000
  H   H138      1.0  0.53375  0.82765  0.56855  1.0000
  H   H139      1.0  0.52897  0.84825  0.54767  1.0000
  C   C156      1.0  0.59069  0.82654  0.36861  1.0000
  H   H140      1.0  0.59635  0.81847  0.41866  1.0000
  C   C157      1.0  0.96603  0.68450  0.35360  1.0000
  C   C158      1.0  0.99234  0.68171  0.42929  1.0000
  C   C159      1.0  0.03587  0.68138  0.41773  1.0000
  C   C160      1.0  0.06427  0.67971  0.49737  1.0000
  H   H141      1.0  0.04970  0.67876  0.56320  1.0000
  H   H142      1.0  0.08438  0.68995  0.50167  1.0000
  H   H143      1.0  0.08279  0.66913  0.48889  1.0000
  C   C161      1.0  0.97412  0.67821  0.52051  1.0000
  H   H144      1.0  0.94103  0.67681  0.52071  1.0000
  H   H145      1.0  0.98152  0.68769  0.56771  1.0000
  H   H146      1.0  0.98625  0.66710  0.54624  1.0000
  C   C162      1.0  0.92482  0.68913  0.36769  1.0000
  H   H147      1.0  0.91899  0.69705  0.41841  1.0000
  C   C163      1.0  0.04948  0.33105  0.35405  1.0000
  C   C164      1.0  0.02317  0.33381  0.42977  1.0000
  C   C165      1.0  0.97963  0.33415  0.41823  1.0000
  C   C166      1.0  0.95123  0.33578  0.49788  1.0000
  H   H148      1.0  0.96580  0.33671  0.56374  1.0000
  H   H149      1.0  0.93111  0.32554  0.50203  1.0000
  H   H150      1.0  0.93272  0.34637  0.48954  1.0000
  C   C167      1.0  0.04138  0.33730  0.52102  1.0000
  H   H151      1.0  0.07445  0.33872  0.52124  1.0000
  H   H152      1.0  0.03401  0.32781  0.56815  1.0000
  H   H153      1.0  0.02921  0.34840  0.54685  1.0000
  C   C168      1.0  0.09071  0.32644  0.36816  1.0000
  H   H154      1.0  0.09657  0.31853  0.41889  1.0000
  C   C169      1.0  0.12107  0.12667  0.38614  1.0000
  C   C170      1.0  0.11596  0.14194  0.42670  1.0000
  C   C171      1.0  0.14960  0.15279  0.43014  1.0000
  C   C172      1.0  0.07681  0.14649  0.47466  1.0000
  H   H155      1.0  0.05288  0.13766  0.47719  1.0000
  H   H156      1.0  0.06384  0.15693  0.44243  1.0000
  H   H157      1.0  0.08258  0.14905  0.54572  1.0000
  C   C173      1.0  0.14620  0.16711  0.49070  1.0000
  H   H158      1.0  0.17420  0.17377  0.50058  1.0000
  H   H159      1.0  0.13785  0.16359  0.55916  1.0000
  H   H160      1.0  0.12313  0.17516  0.46422  1.0000
  C   C174      1.0  0.08593  0.11695  0.37084  1.0000
  H   H161      1.0  0.05887  0.12276  0.36396  1.0000
  C   C175      1.0  0.89450  0.88892  0.38612  1.0000
  C   C176      1.0  0.89957  0.87367  0.42685  1.0000
  C   C177      1.0  0.86593  0.86281  0.43022  1.0000
  C   C178      1.0  0.93868  0.86913  0.47505  1.0000
  H   H162      1.0  0.96257  0.87798  0.47769  1.0000
  H   H163      1.0  0.95171  0.85869  0.44294  1.0000
  H   H164      1.0  0.93283  0.86657  0.54609  1.0000
  C   C179      1.0  0.86933  0.84849  0.49075  1.0000
  H   H165      1.0  0.84133  0.84181  0.50052  1.0000
  H   H166      1.0  0.87762  0.85200  0.55926  1.0000
  H   H167      1.0  0.89243  0.84044  0.46432  1.0000
  C   C180      1.0  0.92965  0.89863  0.37080  1.0000
  H   H168      1.0  0.95671  0.89281  0.36414  1.0000
  C   C181      1.0  0.83299  0.14840  0.32011  1.0000
  C   C182      1.0  0.82700  0.13279  0.35464  1.0000
  C   C183      1.0  0.85789  0.12092  0.34253  1.0000
  C   C184      1.0  0.84894  0.10390  0.36033  1.0000
  H   H169      1.0  0.81642  0.10118  0.36092  1.0000
  H   H170      1.0  0.86226  0.10030  0.42484  1.0000
  H   H171      1.0  0.86145  0.09664  0.30604  1.0000
  C   C185      1.0  0.79095  0.12967  0.41487  1.0000
  H   H172      1.0  0.78700  0.13926  0.46333  1.0000
  H   H173      1.0  0.79389  0.11916  0.45661  1.0000
  H   H174      1.0  0.76336  0.12855  0.37389  1.0000
  C   C186      1.0  0.80469  0.16107  0.33396  1.0000
  H   H175      1.0  0.81629  0.17223  0.33087  1.0000
  C   C187      1.0  0.18262  0.86711  0.32073  1.0000
  C   C188      1.0  0.18863  0.88274  0.35509  1.0000
  C   C189      1.0  0.15773  0.89460  0.34309  1.0000
  C   C190      1.0  0.16669  0.91163  0.36073  1.0000
  H   H176      1.0  0.19922  0.91435  0.36128  1.0000
  H   H177      1.0  0.15339  0.91524  0.42523  1.0000
  H   H178      1.0  0.15418  0.91887  0.30639  1.0000
  C   C191      1.0  0.22469  0.88586  0.41529  1.0000
  H   H179      1.0  0.22867  0.87628  0.46377  1.0000
  H   H180      1.0  0.22176  0.89637  0.45702  1.0000
  H   H181      1.0  0.25227  0.88698  0.37429  1.0000
  C   C192      1.0  0.21094  0.85445  0.33455  1.0000
  H   H182      1.0  0.19935  0.84330  0.33152  1.0000
  C   C193      1.0  0.62101  0.62670  0.38530  1.0000
  C   C194      1.0  0.61591  0.64196  0.42584  1.0000
  C   C195      1.0  0.64955  0.65282  0.42916  1.0000
  C   C196      1.0  0.57678  0.64652  0.47387  1.0000
  H   H183      1.0  0.55288  0.63768  0.47652  1.0000
  H   H184      1.0  0.56378  0.65695  0.44161  1.0000
  H   H185      1.0  0.58259  0.64909  0.54490  1.0000
  C   C197      1.0  0.64615  0.66715  0.48962  1.0000
  H   H186      1.0  0.67414  0.67383  0.49938  1.0000
  H   H187      1.0  0.63784  0.66365  0.55813  1.0000
  H   H188      1.0  0.62305  0.67519  0.46312  1.0000
  C   C198      1.0  0.58587  0.61697  0.37010  1.0000
  H   H189      1.0  0.55880  0.62277  0.36328  1.0000
  C   C199      1.0  0.39436  0.38894  0.38565  1.0000
  C   C200      1.0  0.39934  0.37373  0.42690  1.0000
  C   C201      1.0  0.36573  0.36286  0.43006  1.0000
  C   C202      1.0  0.43831  0.36927  0.47586  1.0000
  H   H190      1.0  0.46213  0.37814  0.47868  1.0000
  H   H191      1.0  0.45152  0.35882  0.44424  1.0000
  H   H192      1.0  0.43223  0.36676  0.54687  1.0000
  C   C203      1.0  0.36903  0.34858  0.49089  1.0000
  H   H193      1.0  0.34105  0.34187  0.50035  1.0000
  H   H194      1.0  0.37709  0.35214  0.55946  1.0000
  H   H195      1.0  0.39227  0.34054  0.46497  1.0000
  C   C204      1.0  0.42955  0.39864  0.37048  1.0000
  H   H196      1.0  0.45662  0.39282  0.36425  1.0000
  C   C205      1.0  0.33279  0.64837  0.32112  1.0000
  C   C206      1.0  0.32698  0.63283  0.35689  1.0000
  C   C207      1.0  0.35780  0.62093  0.34476  1.0000
  C   C208      1.0  0.34900  0.60396  0.36435  1.0000
  H   H197      1.0  0.31649  0.60124  0.36655  1.0000
  H   H198      1.0  0.36287  0.60052  0.42859  1.0000
  H   H199      1.0  0.36105  0.59657  0.31016  1.0000
  C   C209      1.0  0.29133  0.62986  0.41850  1.0000
  H   H200      1.0  0.28754  0.63960  0.46607  1.0000
  H   H201      1.0  0.29465  0.61950  0.46128  1.0000
  H   H202      1.0  0.26351  0.62857  0.37847  1.0000
  C   C210      1.0  0.30455  0.66106  0.33492  1.0000
  H   H203      1.0  0.31612  0.67221  0.33127  1.0000
  C   C211      1.0  0.68261  0.36713  0.32164  1.0000
  C   C212      1.0  0.68853  0.38272  0.35656  1.0000
  C   C213      1.0  0.65767  0.39460  0.34449  1.0000
  C   C214      1.0  0.66656  0.41160  0.36298  1.0000
  H   H204      1.0  0.69908  0.41432  0.36434  1.0000
  H   H205      1.0  0.65297  0.41514  0.42731  1.0000
  H   H206      1.0  0.65429  0.41890  0.30864  1.0000
  C   C215      1.0  0.72438  0.38577  0.41748  1.0000
  H   H207      1.0  0.72827  0.37612  0.46553  1.0000
  H   H208      1.0  0.72124  0.39621  0.45971  1.0000
  H   H209      1.0  0.75208  0.38698  0.37696  1.0000
  C   C216      1.0  0.71091  0.35446  0.33547  1.0000
  H   H210      1.0  0.69934  0.34330  0.33222  1.0000
  C   C217      1.0  0.27816  0.24292  0.37768  1.0000
  C   C218      1.0  0.26989  0.25065  0.46173  1.0000
  C   C219      1.0  0.24926  0.26555  0.46189  1.0000
  C   C220      1.0  0.23966  0.27428  0.54814  1.0000
  H   H211      1.0  0.24944  0.26860  0.61037  1.0000
  H   H212      1.0  0.20668  0.27596  0.55381  1.0000
  H   H213      1.0  0.25440  0.28582  0.54681  1.0000
  C   C221      1.0  0.28234  0.24331  0.55019  1.0000
  H   H214      1.0  0.29751  0.23193  0.54484  1.0000
  H   H215      1.0  0.25534  0.24140  0.59219  1.0000
  H   H216      1.0  0.30354  0.25111  0.58549  1.0000
  C   C222      1.0  0.30051  0.22889  0.37666  1.0000
  H   H217      1.0  0.33074  0.22961  0.37106  1.0000
  C   C223      1.0  0.73741  0.77267  0.37758  1.0000
  C   C224      1.0  0.74568  0.76493  0.46162  1.0000
  C   C225      1.0  0.76631  0.75004  0.46178  1.0000
  C   C226      1.0  0.77591  0.74131  0.54802  1.0000
  H   H218      1.0  0.76614  0.74699  0.61027  1.0000
  H   H219      1.0  0.80889  0.73962  0.55368  1.0000
  H   H220      1.0  0.76116  0.72977  0.54670  1.0000
  C   C227      1.0  0.73323  0.77228  0.55008  1.0000
  H   H221      1.0  0.71806  0.78365  0.54473  1.0000
  H   H222      1.0  0.76023  0.77418  0.59207  1.0000
  H   H223      1.0  0.71204  0.76448  0.58540  1.0000
  C   C228      1.0  0.71506  0.78669  0.37655  1.0000
  H   H224      1.0  0.68483  0.78598  0.37096  1.0000
  C   C229      1.0  0.77644  0.27301  0.32303  1.0000
  C   C230      1.0  0.76935  0.26508  0.40693  1.0000
  C   C231      1.0  0.75069  0.24980  0.40710  1.0000
  C   C232      1.0  0.78095  0.27258  0.49580  1.0000
  H   H225      1.0  0.79439  0.28427  0.49064  1.0000
  H   H226      1.0  0.80333  0.26525  0.53073  1.0000
  H   H227      1.0  0.75395  0.27386  0.53848  1.0000
  C   C233      1.0  0.74327  0.24166  0.49635  1.0000
  H   H228      1.0  0.72951  0.23002  0.49165  1.0000
  H   H229      1.0  0.72277  0.24873  0.53803  1.0000
  H   H230      1.0  0.77214  0.24007  0.53214  1.0000
  C   C234      1.0  0.79746  0.28739  0.32229  1.0000
  H   H231      1.0  0.82783  0.28703  0.32339  1.0000
  C   C235      1.0  0.23914  0.74252  0.32287  1.0000
  C   C236      1.0  0.24622  0.75043  0.40683  1.0000
  C   C237      1.0  0.26488  0.76571  0.40712  1.0000
  C   C238      1.0  0.23459  0.74292  0.49564  1.0000
  H   H232      1.0  0.22115  0.73122  0.49039  1.0000
  H   H233      1.0  0.21221  0.75025  0.53058  1.0000
  H   H234      1.0  0.26158  0.74163  0.53835  1.0000
  C   C239      1.0  0.27228  0.77383  0.49641  1.0000
  H   H235      1.0  0.28606  0.78547  0.49179  1.0000
  H   H236      1.0  0.29278  0.76675  0.53807  1.0000
  H   H237      1.0  0.24342  0.77541  0.53219  1.0000
  C   C240      1.0  0.21810  0.72814  0.32201  1.0000
  H   H238      1.0  0.18773  0.72851  0.32310  1.0000
  C   C241      1.0  0.01502  0.99102  0.35081  1.0000
  C   C242      1.0  0.00957  0.99940  0.43394  1.0000
  C   C243      1.0  0.00247  0.01612  0.43318  1.0000
  C   C244      1.0  0.01093  0.99084  0.52322  1.0000
  H   H239      1.0  0.01557  0.97817  0.51850  1.0000
  H   H240      1.0  0.98216  0.99248  0.55930  1.0000
  H   H241      1.0  0.03587  0.99542  0.56454  1.0000
  C   C245      1.0  0.99682  0.02460  0.52190  1.0000
  H   H242      1.0  0.99253  0.03729  0.51655  1.0000
  H   H243      1.0  0.02364  0.02290  0.56464  1.0000
  H   H244      1.0  0.96997  0.02002  0.55683  1.0000
  C   C246      1.0  0.02590  0.97490  0.35122  1.0000
  H   H245      1.0  0.05551  0.97230  0.35193  1.0000
  C   C247      1.0  0.51499  0.49103  0.35067  1.0000
  C   C248      1.0  0.50951  0.49941  0.43381  1.0000
  C   C249      1.0  0.50242  0.51612  0.43303  1.0000
  C   C250      1.0  0.51082  0.49085  0.52308  1.0000
  H   H246      1.0  0.51546  0.47818  0.51837  1.0000
  H   H247      1.0  0.48204  0.49249  0.55911  1.0000
  H   H248      1.0  0.53575  0.49542  0.56446  1.0000
  C   C251      1.0  0.49674  0.52461  0.52175  1.0000
  H   H249      1.0  0.49247  0.53729  0.51640  1.0000
  H   H250      1.0  0.52355  0.52290  0.56453  1.0000
  H   H251      1.0  0.46988  0.52002  0.55664  1.0000
  C   C252      1.0  0.52586  0.47491  0.35112  1.0000
  H   H252      1.0  0.55547  0.47230  0.35196  1.0000
