data_image0
_chemical_formula_structural       C8H2N2O4C8H2N2O4C2H2C2H2C2H2C2H2C8H2N2O4C8H2N2O4C2H2C2H2C2H2C2H2C8H2N2O4C8H2N2O4C8H2N2O4C8H2N2O4C2H2C2H2C2H2C2H2C8H2N2O4C8H2N2O4C2H2C2H2C2H2C2H2C8H2N2O4C8H2N2O4C2H2C2H2C2H2C2H2C8H2N2O4C8H2N2O4C6H3C6H3C6H3C6H3C6H3C6H3C6H3C6H3C6H3C6H3C6H3C6H3C6H3C6H3C6H3C6H3C2H2C2H2C2H2C2H2C8H2N2O4C8H2N2O4C2H2C2H2C2H2C2H2C8H2N2O4C8H2N2O4C2H2C2H2C2H2C2H2C2H2C2H2C2H2C2H2C8H2N2O4C8H2N2O4C2H2C2H2C2H2C2H2C8H2N2O4C8H2N2O4C2H2C2H2C2H2C2H2C8H2N2O4C8H2N2O4C2H2C2H2C2H2C2H2
_chemical_formula_sum              "C384 H192 N48 O96"
_cell_length_a       66.9271
_cell_length_b       52.481
_cell_length_c       14.8386
_cell_angle_alpha    90
_cell_angle_beta     90
_cell_angle_gamma    90

_space_group_name_H-M_alt    "P 1"
_space_group_IT_number       1

loop_
  _space_group_symop_operation_xyz
  'x, y, z'

loop_
  _atom_site_type_symbol
  _atom_site_label
  _atom_site_symmetry_multiplicity
  _atom_site_fract_x
  _atom_site_fract_y
  _atom_site_fract_z
  _atom_site_occupancy
  C   C1        1.0  0.00487  0.07436  0.33972  1.0000
  C   C2        1.0  0.99618  0.06038  0.26744  1.0000
  C   C3        1.0  0.99652  0.03326  0.26815  1.0000
  C   C4        1.0  0.00515  0.01921  0.33963  1.0000
  C   C5        1.0  0.00547  0.99172  0.33887  1.0000
  C   C6        1.0  0.01498  0.97750  0.26934  1.0000
  C   C7        1.0  0.01498  0.95039  0.27216  1.0000
  C   C8        1.0  0.00530  0.93658  0.34149  1.0000
  H   H1        1.0  0.02194  0.94060  0.22137  1.0000
  H   H2        1.0  0.99016  0.02365  0.21540  1.0000
  N   N1        1.0  0.02482  0.99065  0.19884  1.0000
  N   N2        1.0  0.98777  0.07379  0.19385  1.0000
  O   O1        1.0  0.01736  0.98525  0.12347  1.0000
  O   O2        1.0  0.96956  0.06863  0.18444  1.0000
  O   O3        1.0  0.04316  0.98559  0.19713  1.0000
  O   O4        1.0  0.99672  0.06882  0.12150  1.0000
  C   C9        1.0  0.50487  0.57435  0.33971  1.0000
  C   C10       1.0  0.49616  0.56037  0.26750  1.0000
  C   C11       1.0  0.49649  0.53326  0.26821  1.0000
  C   C12       1.0  0.50515  0.51920  0.33962  1.0000
  C   C13       1.0  0.50547  0.49172  0.33887  1.0000
  C   C14       1.0  0.51497  0.47748  0.26930  1.0000
  C   C15       1.0  0.51498  0.45038  0.27213  1.0000
  C   C16       1.0  0.50531  0.43657  0.34149  1.0000
  H   H3        1.0  0.52193  0.44059  0.22133  1.0000
  H   H4        1.0  0.49012  0.52365  0.21550  1.0000
  N   N3        1.0  0.52479  0.49064  0.19876  1.0000
  N   N4        1.0  0.48772  0.57379  0.19398  1.0000
  O   O5        1.0  0.51732  0.48524  0.12342  1.0000
  O   O6        1.0  0.46950  0.56863  0.18470  1.0000
  O   O7        1.0  0.54313  0.48558  0.19697  1.0000
  O   O8        1.0  0.49664  0.56882  0.12155  1.0000
  C   C17       1.0  0.07385  0.16948  0.28133  1.0000
  C   C18       1.0  0.05629  0.15459  0.28218  1.0000
  H   H5        1.0  0.08355  0.16755  0.22841  1.0000
  H   H6        1.0  0.05362  0.14264  0.22894  1.0000
  C   C19       1.0  0.11536  0.23607  0.27451  1.0000
  C   C20       1.0  0.09897  0.21921  0.27664  1.0000
  H   H7        1.0  0.11671  0.24825  0.22094  1.0000
  H   H8        1.0  0.08887  0.21992  0.22487  1.0000
  C   C21       1.0  0.93646  0.84155  0.28350  1.0000
  C   C22       1.0  0.95400  0.85648  0.28422  1.0000
  H   H9        1.0  0.92661  0.84370  0.23125  1.0000
  H   H10       1.0  0.95650  0.86868  0.23152  1.0000
  C   C23       1.0  0.89508  0.77489  0.27490  1.0000
  C   C24       1.0  0.91146  0.79176  0.27723  1.0000
  H   H11       1.0  0.89363  0.76293  0.22075  1.0000
  H   H12       1.0  0.92145  0.79130  0.22497  1.0000
  C   C25       1.0  0.96834  0.15722  0.33563  1.0000
  C   C26       1.0  0.96433  0.17491  0.26523  1.0000
  C   C27       1.0  0.94646  0.18953  0.26653  1.0000
  C   C28       1.0  0.93227  0.18733  0.33675  1.0000
  C   C29       1.0  0.91465  0.20305  0.33858  1.0000
  C   C30       1.0  0.90049  0.20357  0.26698  1.0000
  C   C31       1.0  0.88374  0.22022  0.27133  1.0000
  C   C32       1.0  0.88079  0.23703  0.34460  1.0000
  H   H13       1.0  0.87395  0.22067  0.21831  1.0000
  H   H14       1.0  0.94403  0.20242  0.21588  1.0000
  N   N5        1.0  0.90319  0.18715  0.19227  1.0000
  N   N6        1.0  0.97815  0.17742  0.19350  1.0000
  O   O9        1.0  0.90499  0.19952  0.12017  1.0000
  O   O10       1.0  0.98484  0.19975  0.18827  1.0000
  O   O11       1.0  0.88884  0.17190  0.18429  1.0000
  O   O12       1.0  0.97037  0.17154  0.11929  1.0000
  C   C33       1.0  0.04210  0.85392  0.33260  1.0000
  C   C34       1.0  0.04598  0.83606  0.26260  1.0000
  C   C35       1.0  0.06384  0.82142  0.26372  1.0000
  C   C36       1.0  0.07813  0.82374  0.33345  1.0000
  C   C37       1.0  0.09571  0.80796  0.33527  1.0000
  C   C38       1.0  0.10980  0.80728  0.26339  1.0000
  C   C39       1.0  0.12654  0.79060  0.26778  1.0000
  C   C40       1.0  0.12952  0.77391  0.34135  1.0000
  H   H15       1.0  0.13628  0.79003  0.21460  1.0000
  H   H16       1.0  0.06616  0.80840  0.21340  1.0000
  N   N7        1.0  0.10705  0.82356  0.18837  1.0000
  N   N8        1.0  0.03202  0.83338  0.19150  1.0000
  O   O13       1.0  0.10515  0.81107  0.11659  1.0000
  O   O14       1.0  0.02530  0.81105  0.18725  1.0000
  O   O15       1.0  0.12142  0.83877  0.17971  1.0000
  O   O16       1.0  0.03966  0.83905  0.11680  1.0000
  C   C41       1.0  0.57371  0.66974  0.28038  1.0000
  C   C42       1.0  0.55618  0.65478  0.28137  1.0000
  H   H17       1.0  0.58335  0.66794  0.22717  1.0000
  H   H18       1.0  0.55346  0.64293  0.22793  1.0000
  C   C43       1.0  0.61510  0.73654  0.27492  1.0000
  C   C44       1.0  0.59871  0.71968  0.27682  1.0000
  H   H19       1.0  0.61634  0.74896  0.22197  1.0000
  H   H20       1.0  0.58850  0.72060  0.22552  1.0000
  C   C45       1.0  0.43661  0.34129  0.28263  1.0000
  C   C46       1.0  0.45411  0.35628  0.28349  1.0000
  H   H21       1.0  0.42681  0.34332  0.23012  1.0000
  H   H22       1.0  0.45665  0.36840  0.23061  1.0000
  C   C47       1.0  0.39535  0.27442  0.27523  1.0000
  C   C48       1.0  0.41173  0.29129  0.27736  1.0000
  H   H23       1.0  0.39399  0.26225  0.22164  1.0000
  H   H24       1.0  0.42182  0.29063  0.22552  1.0000
  C   C49       1.0  0.46836  0.65724  0.33595  1.0000
  C   C50       1.0  0.46430  0.67483  0.26528  1.0000
  C   C51       1.0  0.44646  0.68950  0.26672  1.0000
  C   C52       1.0  0.43236  0.68747  0.33737  1.0000
  C   C53       1.0  0.41477  0.70320  0.33916  1.0000
  C   C54       1.0  0.40047  0.70341  0.26808  1.0000
  C   C55       1.0  0.38372  0.72005  0.27230  1.0000
  C   C56       1.0  0.38090  0.73713  0.34485  1.0000
  H   H25       1.0  0.37382  0.72026  0.21966  1.0000
  H   H26       1.0  0.44399  0.70230  0.21583  1.0000
  N   N9        1.0  0.40305  0.68671  0.19407  1.0000
  N   N10       1.0  0.47805  0.67718  0.19320  1.0000
  O   O17       1.0  0.40471  0.69881  0.12132  1.0000
  O   O18       1.0  0.48478  0.69948  0.18741  1.0000
  O   O19       1.0  0.38870  0.67141  0.18730  1.0000
  O   O20       1.0  0.47018  0.67122  0.11928  1.0000
  C   C57       1.0  0.54210  0.35390  0.33291  1.0000
  C   C58       1.0  0.54601  0.33612  0.26269  1.0000
  C   C59       1.0  0.56384  0.32143  0.26394  1.0000
  C   C60       1.0  0.57806  0.32361  0.33405  1.0000
  C   C61       1.0  0.59562  0.30782  0.33582  1.0000
  C   C62       1.0  0.60983  0.30741  0.26439  1.0000
  C   C63       1.0  0.62656  0.29075  0.26865  1.0000
  C   C64       1.0  0.62944  0.27381  0.34159  1.0000
  H   H27       1.0  0.63640  0.29040  0.21579  1.0000
  H   H28       1.0  0.56620  0.30849  0.21340  1.0000
  N   N11       1.0  0.60718  0.32395  0.18996  1.0000
  N   N12       1.0  0.53211  0.33358  0.19127  1.0000
  O   O21       1.0  0.60540  0.31169  0.11762  1.0000
  O   O22       1.0  0.52536  0.31128  0.18654  1.0000
  O   O23       1.0  0.62154  0.33920  0.18237  1.0000
  O   O24       1.0  0.53984  0.33932  0.11681  1.0000
  C   C65       1.0  0.36084  0.18354  0.33934  1.0000
  C   C66       1.0  0.35326  0.16748  0.27014  1.0000
  C   C67       1.0  0.35853  0.14134  0.26909  1.0000
  C   C68       1.0  0.37120  0.13070  0.33526  1.0000
  C   C69       1.0  0.37702  0.10459  0.33089  1.0000
  C   C70       1.0  0.38735  0.09465  0.25491  1.0000
  C   C71       1.0  0.39382  0.06897  0.25578  1.0000
  C   C72       1.0  0.39015  0.05283  0.33015  1.0000
  H   H29       1.0  0.40193  0.06227  0.20220  1.0000
  H   H30       1.0  0.35299  0.12996  0.21888  1.0000
  N   N13       1.0  0.39205  0.11077  0.18130  1.0000
  N   N14       1.0  0.34106  0.17791  0.20145  1.0000
  O   O25       1.0  0.38460  0.10255  0.10919  1.0000
  O   O26       1.0  0.32419  0.16740  0.19953  1.0000
  O   O27       1.0  0.41061  0.11303  0.17109  1.0000
  O   O28       1.0  0.34907  0.17570  0.12526  1.0000
  C   C73       1.0  0.64992  0.82709  0.33989  1.0000
  C   C74       1.0  0.65769  0.84324  0.27141  1.0000
  C   C75       1.0  0.65248  0.86940  0.27069  1.0000
  C   C76       1.0  0.63964  0.87996  0.33641  1.0000
  C   C77       1.0  0.63385  0.90609  0.33220  1.0000
  C   C78       1.0  0.62384  0.91618  0.25562  1.0000
  C   C79       1.0  0.61738  0.94186  0.25654  1.0000
  C   C80       1.0  0.62079  0.95786  0.33155  1.0000
  H   H31       1.0  0.60947  0.94867  0.20255  1.0000
  H   H32       1.0  0.65816  0.88085  0.22101  1.0000
  N   N15       1.0  0.61939  0.90021  0.18130  1.0000
  N   N16       1.0  0.67003  0.83291  0.20301  1.0000
  O   O29       1.0  0.62712  0.90854  0.10994  1.0000
  O   O30       1.0  0.68691  0.84338  0.20204  1.0000
  O   O31       1.0  0.60087  0.89799  0.16964  1.0000
  O   O32       1.0  0.66218  0.83528  0.12653  1.0000
  C   C81       1.0  0.63196  0.14680  0.28197  1.0000
  C   C82       1.0  0.63696  0.17284  0.28079  1.0000
  H   H33       1.0  0.62250  0.13990  0.23354  1.0000
  H   H34       1.0  0.63133  0.18402  0.23022  1.0000
  C   C83       1.0  0.63104  0.06275  0.27822  1.0000
  C   C84       1.0  0.63735  0.08833  0.27846  1.0000
  H   H35       1.0  0.63306  0.05205  0.22120  1.0000
  H   H36       1.0  0.64438  0.09533  0.22235  1.0000
  C   C85       1.0  0.37824  0.86415  0.28583  1.0000
  C   C86       1.0  0.37325  0.83812  0.28442  1.0000
  H   H37       1.0  0.38767  0.87111  0.23736  1.0000
  H   H38       1.0  0.37885  0.82698  0.23365  1.0000
  C   C87       1.0  0.37916  0.94815  0.28271  1.0000
  C   C88       1.0  0.37278  0.92260  0.28304  1.0000
  H   H39       1.0  0.37710  0.95886  0.22575  1.0000
  H   H40       1.0  0.36565  0.91565  0.22710  1.0000
  C   C89       1.0  0.86115  0.68360  0.33485  1.0000
  C   C90       1.0  0.85369  0.66758  0.26533  1.0000
  C   C91       1.0  0.85892  0.64142  0.26449  1.0000
  C   C92       1.0  0.87142  0.63075  0.33126  1.0000
  C   C93       1.0  0.87714  0.60460  0.32744  1.0000
  C   C94       1.0  0.88754  0.59450  0.25193  1.0000
  C   C95       1.0  0.89396  0.56880  0.25351  1.0000
  C   C96       1.0  0.89018  0.55281  0.32818  1.0000
  H   H41       1.0  0.90212  0.56199  0.20029  1.0000
  H   H42       1.0  0.85345  0.63005  0.21412  1.0000
  N   N17       1.0  0.89239  0.61047  0.17812  1.0000
  N   N18       1.0  0.84161  0.67805  0.19628  1.0000
  O   O33       1.0  0.88501  0.60217  0.10598  1.0000
  O   O34       1.0  0.82474  0.66757  0.19374  1.0000
  O   O35       1.0  0.91096  0.61265  0.16840  1.0000
  O   O36       1.0  0.84975  0.67585  0.12036  1.0000
  C   C97       1.0  0.14961  0.32704  0.33527  1.0000
  C   C98       1.0  0.15724  0.34316  0.26640  1.0000
  C   C99       1.0  0.15207  0.36933  0.26589  1.0000
  C   C100      1.0  0.13943  0.37993  0.33228  1.0000
  C   C101      1.0  0.13373  0.40610  0.32862  1.0000
  C   C102      1.0  0.12360  0.41633  0.25258  1.0000
  C   C103      1.0  0.11719  0.44202  0.25423  1.0000
  C   C104      1.0  0.12073  0.45788  0.32947  1.0000
  H   H43       1.0  0.10918  0.44893  0.20067  1.0000
  H   H44       1.0  0.15767  0.38077  0.21599  1.0000
  N   N19       1.0  0.11899  0.40048  0.17813  1.0000
  N   N20       1.0  0.16944  0.33277  0.19759  1.0000
  O   O37       1.0  0.12660  0.40889  0.10664  1.0000
  O   O38       1.0  0.18633  0.34321  0.19590  1.0000
  O   O39       1.0  0.10045  0.39832  0.16714  1.0000
  O   O40       1.0  0.16144  0.33512  0.12141  1.0000
  C   C105      1.0  0.13187  0.64678  0.28570  1.0000
  C   C106      1.0  0.13682  0.67282  0.28474  1.0000
  H   H45       1.0  0.12256  0.63983  0.23673  1.0000
  H   H46       1.0  0.13133  0.68396  0.23373  1.0000
  C   C107      1.0  0.13113  0.56282  0.28089  1.0000
  C   C108      1.0  0.13741  0.58842  0.28189  1.0000
  H   H47       1.0  0.13326  0.55222  0.22373  1.0000
  H   H48       1.0  0.14453  0.59551  0.22616  1.0000
  C   C109      1.0  0.87837  0.36417  0.28955  1.0000
  C   C110      1.0  0.87342  0.33812  0.28834  1.0000
  H   H49       1.0  0.88766  0.37115  0.24055  1.0000
  H   H50       1.0  0.87889  0.32702  0.23718  1.0000
  C   C111      1.0  0.87910  0.44807  0.28524  1.0000
  C   C112      1.0  0.87276  0.42250  0.28630  1.0000
  H   H51       1.0  0.87694  0.45866  0.22809  1.0000
  H   H52       1.0  0.86557  0.41544  0.23070  1.0000
  C   C113      1.0  0.45256  0.00474  0.33663  1.0000
  C   C114      1.0  0.46307  0.99196  0.26686  1.0000
  C   C115      1.0  0.48419  0.99229  0.26740  1.0000
  C   C116      1.0  0.49485  0.00506  0.33589  1.0000
  C   C117      1.0  0.51595  0.00539  0.33505  1.0000
  C   C118      1.0  0.52674  0.01741  0.26453  1.0000
  C   C119      1.0  0.54785  0.01736  0.26762  1.0000
  C   C120      1.0  0.55820  0.00523  0.33850  1.0000
  H   H53       1.0  0.55568  0.02605  0.21685  1.0000
  H   H54       1.0  0.49180  0.98305  0.21718  1.0000
  N   N21       1.0  0.51636  0.02963  0.19346  1.0000
  N   N22       1.0  0.45241  0.97965  0.19685  1.0000
  O   O41       1.0  0.52056  0.01981  0.11857  1.0000
  O   O42       1.0  0.45635  0.95625  0.19408  1.0000
  O   O43       1.0  0.52030  0.05302  0.19042  1.0000
  O   O44       1.0  0.45628  0.98932  0.12137  1.0000
  C   C121      1.0  0.95258  0.50474  0.33656  1.0000
  C   C122      1.0  0.96308  0.49175  0.26727  1.0000
  C   C123      1.0  0.98420  0.49209  0.26779  1.0000
  C   C124      1.0  0.99485  0.50506  0.33581  1.0000
  C   C125      1.0  0.01595  0.50538  0.33498  1.0000
  C   C126      1.0  0.02674  0.51725  0.26412  1.0000
  C   C127      1.0  0.04785  0.51721  0.26723  1.0000
  C   C128      1.0  0.05818  0.50523  0.33847  1.0000
  H   H55       1.0  0.05569  0.52579  0.21626  1.0000
  H   H56       1.0  0.99181  0.48270  0.21792  1.0000
  N   N23       1.0  0.01636  0.52930  0.19269  1.0000
  N   N24       1.0  0.95242  0.47923  0.19773  1.0000
  O   O45       1.0  0.02056  0.51930  0.11808  1.0000
  O   O46       1.0  0.95636  0.45583  0.19585  1.0000
  O   O47       1.0  0.02030  0.55268  0.18895  1.0000
  O   O48       1.0  0.95629  0.48867  0.12188  1.0000
  C   C129      1.0  0.23287  0.24642  0.29532  1.0000
  C   C130      1.0  0.21189  0.24909  0.29513  1.0000
  H   H57       1.0  0.23954  0.23708  0.24274  1.0000
  H   H58       1.0  0.20402  0.24228  0.24105  1.0000
  C   C131      1.0  0.29853  0.26055  0.29162  1.0000
  C   C132      1.0  0.27751  0.26275  0.29307  1.0000
  H   H59       1.0  0.30614  0.26647  0.23557  1.0000
  H   H60       1.0  0.27057  0.27100  0.23892  1.0000
  C   C133      1.0  0.77778  0.76408  0.29539  1.0000
  C   C134      1.0  0.79876  0.76143  0.29521  1.0000
  H   H61       1.0  0.77111  0.77345  0.24287  1.0000
  H   H62       1.0  0.80664  0.76828  0.24120  1.0000
  C   C135      1.0  0.71212  0.74991  0.29167  1.0000
  C   C136      1.0  0.73314  0.74770  0.29309  1.0000
  H   H63       1.0  0.70450  0.74399  0.23561  1.0000
  H   H64       1.0  0.74008  0.73945  0.23895  1.0000
  C   C137      1.0  0.80862  0.26251  0.32428  1.0000
  C   C138      1.0  0.79699  0.27263  0.25243  1.0000
  C   C139      1.0  0.77593  0.26950  0.25249  1.0000
  C   C140      1.0  0.76583  0.25667  0.32283  1.0000
  C   C141      1.0  0.74445  0.25405  0.32165  1.0000
  C   C142      1.0  0.73418  0.24264  0.24795  1.0000
  C   C143      1.0  0.71308  0.24008  0.25062  1.0000
  C   C144      1.0  0.70162  0.24904  0.32410  1.0000
  H   H65       1.0  0.70602  0.23109  0.19826  1.0000
  H   H66       1.0  0.76784  0.27732  0.20090  1.0000
  N   N25       1.0  0.74520  0.23284  0.17418  1.0000
  N   N26       1.0  0.80663  0.28570  0.18109  1.0000
  O   O49       1.0  0.74019  0.24340  0.10157  1.0000
  O   O50       1.0  0.80060  0.30831  0.17467  1.0000
  O   O51       1.0  0.74294  0.20918  0.16619  1.0000
  O   O52       1.0  0.80389  0.27467  0.10698  1.0000
  C   C145      1.0  0.20169  0.74842  0.32251  1.0000
  C   C146      1.0  0.21345  0.73829  0.25106  1.0000
  C   C147      1.0  0.23451  0.74142  0.25184  1.0000
  C   C148      1.0  0.24449  0.75425  0.32252  1.0000
  C   C149      1.0  0.26588  0.75686  0.32207  1.0000
  C   C150      1.0  0.27627  0.76822  0.24865  1.0000
  C   C151      1.0  0.29737  0.77076  0.25204  1.0000
  C   C152      1.0  0.30871  0.76182  0.32596  1.0000
  H   H67       1.0  0.30453  0.77973  0.19988  1.0000
  H   H68       1.0  0.24268  0.73359  0.20052  1.0000
  N   N27       1.0  0.26539  0.77800  0.17446  1.0000
  N   N28       1.0  0.20392  0.72525  0.17936  1.0000
  O   O53       1.0  0.27052  0.76741  0.10208  1.0000
  O   O54       1.0  0.20997  0.70263  0.17308  1.0000
  O   O55       1.0  0.26768  0.80165  0.16643  1.0000
  O   O56       1.0  0.20680  0.73629  0.10537  1.0000
  C   C153      1.0  0.98667  0.14298  0.33982  1.0000
  C   C154      1.0  0.00523  0.15587  0.34426  1.0000
  C   C155      1.0  0.02367  0.14268  0.34802  1.0000
  C   C156      1.0  0.02323  0.11566  0.34624  1.0000
  C   C157      1.0  0.00500  0.10184  0.34212  1.0000
  C   C158      1.0  0.98689  0.11596  0.33978  1.0000
  H   H69       1.0  0.03646  0.10586  0.34808  1.0000
  H   H70       1.0  0.97357  0.10638  0.33711  1.0000
  H   H71       1.0  0.00531  0.17540  0.34480  1.0000
  C   C159      1.0  0.02373  0.86808  0.33740  1.0000
  C   C160      1.0  0.00524  0.85508  0.34326  1.0000
  C   C161      1.0  0.98677  0.86816  0.34872  1.0000
  C   C162      1.0  0.98713  0.89519  0.34804  1.0000
  C   C163      1.0  0.00528  0.90912  0.34252  1.0000
  C   C164      1.0  0.02341  0.89511  0.33731  1.0000
  H   H72       1.0  0.97387  0.90489  0.35136  1.0000
  H   H73       1.0  0.03669  0.90477  0.33344  1.0000
  H   H74       1.0  0.00522  0.83556  0.34351  1.0000
  C   C165      1.0  0.48668  0.64298  0.34000  1.0000
  C   C166      1.0  0.50523  0.65587  0.34424  1.0000
  C   C167      1.0  0.52367  0.64268  0.34779  1.0000
  C   C168      1.0  0.52323  0.61566  0.34602  1.0000
  C   C169      1.0  0.50500  0.60184  0.34211  1.0000
  C   C170      1.0  0.48689  0.61596  0.33996  1.0000
  H   H75       1.0  0.53646  0.60586  0.34773  1.0000
  H   H76       1.0  0.47357  0.60638  0.33742  1.0000
  H   H77       1.0  0.50532  0.67540  0.34478  1.0000
  C   C171      1.0  0.52374  0.36808  0.33760  1.0000
  C   C172      1.0  0.50525  0.35507  0.34328  1.0000
  C   C173      1.0  0.48678  0.36815  0.34854  1.0000
  C   C174      1.0  0.48713  0.39517  0.34786  1.0000
  C   C175      1.0  0.50529  0.40912  0.34252  1.0000
  C   C176      1.0  0.52342  0.39510  0.33749  1.0000
  H   H78       1.0  0.47387  0.40487  0.35105  1.0000
  H   H79       1.0  0.53670  0.40476  0.33374  1.0000
  H   H80       1.0  0.50523  0.33554  0.34354  1.0000
  C   C177      1.0  0.43144  0.00502  0.33950  1.0000
  C   C178      1.0  0.42064  0.98212  0.34805  1.0000
  C   C179      1.0  0.39954  0.98208  0.35032  1.0000
  C   C180      1.0  0.38920  0.00556  0.34392  1.0000
  C   C181      1.0  0.39982  0.02879  0.33566  1.0000
  C   C182      1.0  0.42092  0.02821  0.33389  1.0000
  H   H81       1.0  0.37390  0.00573  0.34521  1.0000
  H   H82       1.0  0.42880  0.04491  0.32817  1.0000
  H   H83       1.0  0.42829  0.96522  0.35233  1.0000
  C   C183      1.0  0.57927  0.00522  0.34016  1.0000
  C   C184      1.0  0.58990  0.02834  0.34471  1.0000
  C   C185      1.0  0.61100  0.02860  0.34687  1.0000
  C   C186      1.0  0.62150  0.00520  0.34248  1.0000
  C   C187      1.0  0.61101  0.98181  0.33684  1.0000
  C   C188      1.0  0.58991  0.98210  0.33669  1.0000
  H   H84       1.0  0.63680  0.00519  0.34327  1.0000
  H   H85       1.0  0.58214  0.96527  0.33303  1.0000
  H   H86       1.0  0.58214  0.04518  0.34730  1.0000
  C   C189      1.0  0.93146  0.50503  0.33942  1.0000
  C   C190      1.0  0.92066  0.48216  0.34898  1.0000
  C   C191      1.0  0.89957  0.48214  0.35132  1.0000
  C   C192      1.0  0.88923  0.50559  0.34389  1.0000
  C   C193      1.0  0.89985  0.52879  0.33455  1.0000
  C   C194      1.0  0.92095  0.52820  0.33282  1.0000
  H   H87       1.0  0.87393  0.50576  0.34522  1.0000
  H   H88       1.0  0.92883  0.54487  0.32642  1.0000
  H   H89       1.0  0.92832  0.46528  0.35394  1.0000
  C   C195      1.0  0.07923  0.50522  0.34013  1.0000
  C   C196      1.0  0.08986  0.52831  0.34569  1.0000
  C   C197      1.0  0.11095  0.52857  0.34794  1.0000
  C   C198      1.0  0.12145  0.50518  0.34246  1.0000
  C   C199      1.0  0.11096  0.48181  0.33573  1.0000
  C   C200      1.0  0.08986  0.48211  0.33563  1.0000
  H   H90       1.0  0.13675  0.50517  0.34326  1.0000
  H   H91       1.0  0.08208  0.46530  0.33133  1.0000
  H   H92       1.0  0.08208  0.54514  0.34893  1.0000
  C   C201      1.0  0.15490  0.30075  0.34080  1.0000
  C   C202      1.0  0.14020  0.28143  0.33961  1.0000
  C   C203      1.0  0.14530  0.25528  0.34593  1.0000
  C   C204      1.0  0.16583  0.24879  0.35501  1.0000
  C   C205      1.0  0.18097  0.26775  0.35694  1.0000
  C   C206      1.0  0.17514  0.29355  0.34919  1.0000
  H   H93       1.0  0.16982  0.23001  0.36017  1.0000
  H   H94       1.0  0.18587  0.30748  0.35042  1.0000
  H   H95       1.0  0.12548  0.28658  0.33413  1.0000
  C   C207      1.0  0.85581  0.70986  0.34067  1.0000
  C   C208      1.0  0.87048  0.72922  0.33989  1.0000
  C   C209      1.0  0.86534  0.75534  0.34656  1.0000
  C   C210      1.0  0.84480  0.76178  0.35556  1.0000
  C   C211      1.0  0.82969  0.74278  0.35701  1.0000
  C   C212      1.0  0.83556  0.71700  0.34893  1.0000
  H   H96       1.0  0.84078  0.78054  0.36098  1.0000
  H   H97       1.0  0.82485  0.70303  0.34982  1.0000
  H   H98       1.0  0.88522  0.72412  0.33444  1.0000
  C   C213      1.0  0.85555  0.30119  0.34955  1.0000
  C   C214      1.0  0.87026  0.28187  0.35046  1.0000
  C   C215      1.0  0.86516  0.25574  0.34376  1.0000
  C   C216      1.0  0.84463  0.24924  0.33459  1.0000
  C   C217      1.0  0.82949  0.26821  0.33301  1.0000
  C   C218      1.0  0.83532  0.29400  0.34116  1.0000
  H   H99       1.0  0.84064  0.23047  0.32909  1.0000
  H   H100      1.0  0.82459  0.30794  0.34011  1.0000
  H   H101      1.0  0.88499  0.28701  0.35593  1.0000
  C   C219      1.0  0.15471  0.70972  0.34621  1.0000
  C   C220      1.0  0.14002  0.72905  0.34703  1.0000
  C   C221      1.0  0.14513  0.75518  0.34064  1.0000
  C   C222      1.0  0.16567  0.76168  0.33200  1.0000
  C   C223      1.0  0.18081  0.74271  0.33056  1.0000
  C   C224      1.0  0.17496  0.71691  0.33827  1.0000
  H   H102      1.0  0.16967  0.78045  0.32680  1.0000
  H   H103      1.0  0.18569  0.70297  0.33732  1.0000
  H   H104      1.0  0.12528  0.72392  0.35222  1.0000
  C   C225      1.0  0.65508  0.80073  0.34489  1.0000
  C   C226      1.0  0.64027  0.78154  0.34190  1.0000
  C   C227      1.0  0.64523  0.75532  0.34613  1.0000
  C   C228      1.0  0.66574  0.74858  0.35364  1.0000
  C   C229      1.0  0.68095  0.76740  0.35718  1.0000
  C   C230      1.0  0.67527  0.79332  0.35330  1.0000
  H   H105      1.0  0.66965  0.72973  0.35668  1.0000
  H   H106      1.0  0.68609  0.80713  0.35622  1.0000
  H   H107      1.0  0.62557  0.78683  0.33678  1.0000
  C   C231      1.0  0.35564  0.20986  0.34465  1.0000
  C   C232      1.0  0.37041  0.22909  0.34211  1.0000
  C   C233      1.0  0.36540  0.25529  0.34672  1.0000
  C   C234      1.0  0.34489  0.26198  0.35416  1.0000
  C   C235      1.0  0.32971  0.24312  0.35720  1.0000
  C   C236      1.0  0.33542  0.21722  0.35292  1.0000
  H   H108      1.0  0.34095  0.28081  0.35749  1.0000
  H   H109      1.0  0.32463  0.20337  0.35545  1.0000
  H   H110      1.0  0.38512  0.22385  0.33701  1.0000
  C   C237      1.0  0.35535  0.80115  0.34554  1.0000
  C   C238      1.0  0.37016  0.78197  0.34821  1.0000
  C   C239      1.0  0.36521  0.75575  0.34360  1.0000
  C   C240      1.0  0.34470  0.74900  0.33601  1.0000
  C   C241      1.0  0.32949  0.76782  0.33284  1.0000
  C   C242      1.0  0.33516  0.79374  0.33715  1.0000
  H   H111      1.0  0.34080  0.73016  0.33263  1.0000
  H   H112      1.0  0.32434  0.80755  0.33444  1.0000
  H   H113      1.0  0.38487  0.78725  0.35334  1.0000
  C   C243      1.0  0.65491  0.20975  0.34213  1.0000
  C   C244      1.0  0.64012  0.22896  0.34474  1.0000
  C   C245      1.0  0.64511  0.25517  0.34046  1.0000
  C   C246      1.0  0.66562  0.26190  0.33339  1.0000
  C   C247      1.0  0.68082  0.24307  0.33032  1.0000
  C   C248      1.0  0.67512  0.21715  0.33415  1.0000
  H   H114      1.0  0.66954  0.28075  0.33033  1.0000
  H   H115      1.0  0.68593  0.20333  0.33148  1.0000
  H   H116      1.0  0.62541  0.22370  0.34961  1.0000
  C   C249      1.0  0.01357  0.03333  0.41143  1.0000
  C   C250      1.0  0.01363  0.06024  0.41095  1.0000
  H   H117      1.0  0.02010  0.02401  0.46441  1.0000
  H   H118      1.0  0.01993  0.06958  0.46448  1.0000
  C   C251      1.0  0.99568  0.95096  0.40947  1.0000
  C   C252      1.0  0.99602  0.97788  0.40887  1.0000
  H   H119      1.0  0.98863  0.94186  0.46156  1.0000
  H   H120      1.0  0.98889  0.98740  0.45982  1.0000
  C   C253      1.0  0.51359  0.53332  0.41136  1.0000
  C   C254      1.0  0.51365  0.56024  0.41087  1.0000
  H   H121      1.0  0.52014  0.52401  0.46430  1.0000
  H   H122      1.0  0.51997  0.56957  0.46436  1.0000
  C   C255      1.0  0.49569  0.45095  0.40949  1.0000
  C   C256      1.0  0.49603  0.47787  0.40889  1.0000
  H   H123      1.0  0.48865  0.44185  0.46160  1.0000
  H   H124      1.0  0.48890  0.48739  0.45987  1.0000
  C   C257      1.0  0.04211  0.15671  0.35261  1.0000
  C   C258      1.0  0.04627  0.17409  0.42380  1.0000
  C   C259      1.0  0.06416  0.18867  0.42267  1.0000
  C   C260      1.0  0.07823  0.18675  0.35184  1.0000
  C   C261      1.0  0.09584  0.20249  0.35017  1.0000
  C   C262      1.0  0.11010  0.20279  0.42139  1.0000
  C   C263      1.0  0.12683  0.21948  0.41731  1.0000
  C   C264      1.0  0.12967  0.23655  0.34471  1.0000
  H   H125      1.0  0.13669  0.21976  0.47009  1.0000
  H   H126      1.0  0.06668  0.20135  0.47388  1.0000
  N   N29       1.0  0.10753  0.18610  0.49543  1.0000
  N   N30       1.0  0.03255  0.17636  0.49604  1.0000
  O   O57       1.0  0.10582  0.19820  0.56814  1.0000
  O   O58       1.0  0.02592  0.19869  0.50258  1.0000
  O   O59       1.0  0.12191  0.17084  0.50232  1.0000
  O   O60       1.0  0.04042  0.17016  0.56972  1.0000
  C   C265      1.0  0.96838  0.85406  0.35370  1.0000
  C   C266      1.0  0.96445  0.83634  0.42410  1.0000
  C   C267      1.0  0.94658  0.82172  0.42314  1.0000
  C   C268      1.0  0.93232  0.82394  0.35321  1.0000
  C   C269      1.0  0.91474  0.80816  0.35154  1.0000
  C   C270      1.0  0.90064  0.80753  0.42339  1.0000
  C   C271      1.0  0.88391  0.79083  0.41913  1.0000
  C   C272      1.0  0.88094  0.77409  0.34570  1.0000
  H   H127      1.0  0.87417  0.79030  0.47231  1.0000
  H   H128      1.0  0.94423  0.80880  0.47374  1.0000
  N   N31       1.0  0.90338  0.82387  0.49825  1.0000
  N   N32       1.0  0.97838  0.83379  0.49540  1.0000
  O   O61       1.0  0.90527  0.81144  0.57017  1.0000
  O   O62       1.0  0.98507  0.81146  0.50027  1.0000
  O   O63       1.0  0.88901  0.83908  0.50672  1.0000
  O   O64       1.0  0.97070  0.83962  0.56988  1.0000
  C   C273      1.0  0.93649  0.16975  0.40648  1.0000
  C   C274      1.0  0.95403  0.15483  0.40544  1.0000
  H   H129      1.0  0.92668  0.16760  0.45890  1.0000
  H   H130      1.0  0.95657  0.14261  0.45804  1.0000
  C   C275      1.0  0.89500  0.23633  0.41517  1.0000
  C   C276      1.0  0.91140  0.21951  0.41275  1.0000
  H   H131      1.0  0.89357  0.24834  0.46920  1.0000
  H   H132      1.0  0.92144  0.22005  0.46483  1.0000
  C   C277      1.0  0.07404  0.84149  0.40279  1.0000
  C   C278      1.0  0.05652  0.85645  0.40188  1.0000
  H   H133      1.0  0.08393  0.84373  0.45487  1.0000
  H   H134      1.0  0.05406  0.86875  0.45429  1.0000
  C   C279      1.0  0.11538  0.77475  0.41216  1.0000
  C   C280      1.0  0.09900  0.79161  0.40971  1.0000
  H   H135      1.0  0.11684  0.76282  0.46640  1.0000
  H   H136      1.0  0.08901  0.79119  0.46200  1.0000
  C   C281      1.0  0.54210  0.65672  0.35226  1.0000
  C   C282      1.0  0.54630  0.67399  0.42373  1.0000
  C   C283      1.0  0.56417  0.68863  0.42247  1.0000
  C   C284      1.0  0.57813  0.68688  0.35119  1.0000
  C   C285      1.0  0.59573  0.70264  0.34957  1.0000
  C   C286      1.0  0.61013  0.70261  0.42021  1.0000
  C   C287      1.0  0.62686  0.71931  0.41631  1.0000
  C   C288      1.0  0.62954  0.73669  0.34453  1.0000
  H   H137      1.0  0.63683  0.71933  0.46866  1.0000
  H   H138      1.0  0.56673  0.70121  0.47393  1.0000
  N   N33       1.0  0.60768  0.68563  0.49349  1.0000
  N   N34       1.0  0.53267  0.67609  0.49632  1.0000
  O   O65       1.0  0.60612  0.69743  0.56687  1.0000
  O   O66       1.0  0.52599  0.69839  0.50346  1.0000
  O   O67       1.0  0.62207  0.67033  0.49905  1.0000
  O   O68       1.0  0.54063  0.66981  0.56970  1.0000
  C   C289      1.0  0.46841  0.35402  0.35339  1.0000
  C   C290      1.0  0.46444  0.33641  0.42406  1.0000
  C   C291      1.0  0.44660  0.32173  0.42296  1.0000
  C   C292      1.0  0.43243  0.32378  0.35261  1.0000
  C   C293      1.0  0.41486  0.30798  0.35098  1.0000
  C   C294      1.0  0.40064  0.30765  0.42234  1.0000
  C   C295      1.0  0.38391  0.29096  0.41821  1.0000
  C   C296      1.0  0.38106  0.27395  0.34546  1.0000
  H   H139      1.0  0.37406  0.29066  0.47101  1.0000
  H   H140      1.0  0.44421  0.30889  0.47379  1.0000
  N   N35       1.0  0.40327  0.32426  0.49655  1.0000
  N   N36       1.0  0.47830  0.33401  0.49569  1.0000
  O   O69       1.0  0.40502  0.31208  0.56908  1.0000
  O   O70       1.0  0.48503  0.31171  0.50109  1.0000
  O   O71       1.0  0.38889  0.33951  0.50384  1.0000
  O   O72       1.0  0.47053  0.33991  0.56990  1.0000
  C   C297      1.0  0.43663  0.67000  0.40738  1.0000
  C   C298      1.0  0.45414  0.65501  0.40619  1.0000
  H   H141      1.0  0.42689  0.66797  0.46008  1.0000
  H   H142      1.0  0.45673  0.64288  0.45898  1.0000
  C   C299      1.0  0.39525  0.73678  0.41482  1.0000
  C   C300      1.0  0.41166  0.71996  0.41261  1.0000
  H   H143      1.0  0.39391  0.74901  0.46828  1.0000
  H   H144      1.0  0.42180  0.72071  0.46425  1.0000
  C   C301      1.0  0.57393  0.34126  0.40364  1.0000
  C   C302      1.0  0.55644  0.35628  0.40258  1.0000
  H   H145      1.0  0.58376  0.34339  0.45597  1.0000
  H   H146      1.0  0.55394  0.36852  0.45516  1.0000
  C   C303      1.0  0.61517  0.27433  0.41188  1.0000
  C   C304      1.0  0.59879  0.29120  0.40963  1.0000
  H   H147      1.0  0.61655  0.26221  0.46559  1.0000
  H   H148      1.0  0.58870  0.29058  0.46153  1.0000
  C   C305      1.0  0.37859  0.14685  0.40378  1.0000
  C   C306      1.0  0.37355  0.17287  0.40554  1.0000
  H   H149      1.0  0.38800  0.13985  0.45225  1.0000
  H   H150      1.0  0.37911  0.18396  0.45653  1.0000
  C   C307      1.0  0.37957  0.06274  0.40453  1.0000
  C   C308      1.0  0.37320  0.08830  0.40498  1.0000
  H   H151      1.0  0.37737  0.05185  0.46094  1.0000
  H   H152      1.0  0.36596  0.09508  0.46089  1.0000
  C   C309      1.0  0.63207  0.86372  0.40421  1.0000
  C   C310      1.0  0.63707  0.83768  0.40568  1.0000
  H   H153      1.0  0.62254  0.87064  0.45233  1.0000
  H   H154      1.0  0.63138  0.82652  0.45617  1.0000
  C   C311      1.0  0.63102  0.94780  0.40664  1.0000
  C   C312      1.0  0.63738  0.92223  0.40700  1.0000
  H   H155      1.0  0.63297  0.95859  0.46349  1.0000
  H   H156      1.0  0.64437  0.91534  0.46337  1.0000
  C   C313      1.0  0.64973  0.18340  0.34694  1.0000
  C   C314      1.0  0.65742  0.16721  0.41549  1.0000
  C   C315      1.0  0.65221  0.14105  0.41591  1.0000
  C   C316      1.0  0.63946  0.13052  0.34980  1.0000
  C   C317      1.0  0.63373  0.10436  0.35350  1.0000
  C   C318      1.0  0.62366  0.09411  0.42969  1.0000
  C   C319      1.0  0.61724  0.06841  0.42815  1.0000
  C   C320      1.0  0.62076  0.05254  0.35295  1.0000
  H   H157      1.0  0.60927  0.06150  0.48180  1.0000
  H   H158      1.0  0.65785  0.12957  0.46561  1.0000
  N   N37       1.0  0.61912  0.10996  0.50422  1.0000
  N   N38       1.0  0.66969  0.17751  0.48422  1.0000
  O   O73       1.0  0.62680  0.10155  0.57555  1.0000
  O   O74       1.0  0.68657  0.16704  0.48548  1.0000
  O   O75       1.0  0.60058  0.11211  0.51561  1.0000
  O   O76       1.0  0.66176  0.17510  0.56052  1.0000
  C   C321      1.0  0.36052  0.82750  0.35060  1.0000
  C   C322      1.0  0.35287  0.84361  0.41946  1.0000
  C   C323      1.0  0.35808  0.86978  0.42016  1.0000
  C   C324      1.0  0.37078  0.88036  0.35397  1.0000
  C   C325      1.0  0.37651  0.90652  0.35781  1.0000
  C   C326      1.0  0.38673  0.91668  0.43372  1.0000
  C   C327      1.0  0.39322  0.94235  0.43211  1.0000
  C   C328      1.0  0.38962  0.95826  0.35708  1.0000
  H   H159      1.0  0.40133  0.94920  0.48546  1.0000
  H   H160      1.0  0.35248  0.88120  0.47008  1.0000
  N   N39       1.0  0.39137  0.90076  0.50795  1.0000
  N   N40       1.0  0.34063  0.83323  0.48814  1.0000
  O   O77       1.0  0.38384  0.90917  0.57962  1.0000
  O   O78       1.0  0.32375  0.84370  0.48967  1.0000
  O   O79       1.0  0.40992  0.89854  0.51860  1.0000
  O   O80       1.0  0.34859  0.83556  0.56440  1.0000
  C   C329      1.0  0.87870  0.64687  0.40006  1.0000
  C   C330      1.0  0.87370  0.67290  0.40162  1.0000
  H   H161      1.0  0.88797  0.63985  0.44903  1.0000
  H   H162      1.0  0.87912  0.68396  0.45301  1.0000
  C   C331      1.0  0.87951  0.56287  0.40203  1.0000
  C   C332      1.0  0.87318  0.58844  0.40175  1.0000
  H   H163      1.0  0.87723  0.55209  0.45865  1.0000
  H   H164      1.0  0.86589  0.59533  0.45735  1.0000
  C   C333      1.0  0.13198  0.36371  0.40043  1.0000
  C   C334      1.0  0.13695  0.33767  0.40171  1.0000
  H   H165      1.0  0.12261  0.37068  0.44910  1.0000
  H   H166      1.0  0.13140  0.32655  0.45264  1.0000
  C   C335      1.0  0.13111  0.44770  0.40396  1.0000
  C   C336      1.0  0.13743  0.42212  0.40357  1.0000
  H   H167      1.0  0.13316  0.45839  0.46097  1.0000
  H   H168      1.0  0.14451  0.41513  0.45956  1.0000
  C   C337      1.0  0.14941  0.68342  0.35153  1.0000
  C   C338      1.0  0.15696  0.66727  0.42047  1.0000
  C   C339      1.0  0.15179  0.64109  0.42069  1.0000
  C   C340      1.0  0.13924  0.63052  0.35389  1.0000
  C   C341      1.0  0.13360  0.60432  0.35703  1.0000
  C   C342      1.0  0.12341  0.59394  0.43265  1.0000
  C   C343      1.0  0.11704  0.56823  0.43038  1.0000
  C   C344      1.0  0.12071  0.55248  0.35499  1.0000
  H   H169      1.0  0.10897  0.56122  0.48358  1.0000
  H   H170      1.0  0.15735  0.62963  0.47060  1.0000
  N   N41       1.0  0.11868  0.60967  0.50728  1.0000
  N   N42       1.0  0.16908  0.67763  0.48961  1.0000
  O   O81       1.0  0.12624  0.60118  0.57877  1.0000
  O   O82       1.0  0.18597  0.66719  0.49160  1.0000
  O   O83       1.0  0.10013  0.61175  0.51795  1.0000
  O   O84       1.0  0.16101  0.67523  0.56560  1.0000
  C   C345      1.0  0.86086  0.32747  0.35513  1.0000
  C   C346      1.0  0.85333  0.34356  0.42431  1.0000
  C   C347      1.0  0.85851  0.36974  0.42480  1.0000
  C   C348      1.0  0.87102  0.38036  0.35798  1.0000
  C   C349      1.0  0.87666  0.40655  0.36126  1.0000
  C   C350      1.0  0.88696  0.41687  0.43665  1.0000
  C   C351      1.0  0.89338  0.44256  0.43431  1.0000
  C   C352      1.0  0.88965  0.45835  0.35906  1.0000
  H   H171      1.0  0.90157  0.44951  0.48726  1.0000
  H   H172      1.0  0.85298  0.38116  0.47490  1.0000
  N   N43       1.0  0.89177  0.40109  0.51104  1.0000
  N   N44       1.0  0.84123  0.33313  0.49337  1.0000
  O   O85       1.0  0.88433  0.40958  0.58280  1.0000
  O   O86       1.0  0.82433  0.34357  0.49554  1.0000
  O   O87       1.0  0.91034  0.39896  0.52111  1.0000
  O   O88       1.0  0.84931  0.33546  0.56935  1.0000
  C   C353      1.0  0.48424  0.01759  0.40502  1.0000
  C   C354      1.0  0.46329  0.01753  0.40507  1.0000
  H   H173      1.0  0.49168  0.02707  0.45518  1.0000
  H   H174      1.0  0.45594  0.02672  0.45618  1.0000
  C   C355      1.0  0.54728  0.99310  0.40755  1.0000
  C   C356      1.0  0.52634  0.99340  0.40628  1.0000
  H   H175      1.0  0.55449  0.98433  0.45998  1.0000
  H   H176      1.0  0.51874  0.98451  0.45734  1.0000
  C   C357      1.0  0.98425  0.51780  0.40447  1.0000
  C   C358      1.0  0.96331  0.51774  0.40453  1.0000
  H   H177      1.0  0.99169  0.52743  0.45427  1.0000
  H   H178      1.0  0.95595  0.52709  0.45528  1.0000
  C   C359      1.0  0.04727  0.49324  0.40785  1.0000
  C   C360      1.0  0.02633  0.49355  0.40655  1.0000
  H   H179      1.0  0.05448  0.48458  0.46049  1.0000
  H   H180      1.0  0.01872  0.48478  0.45785  1.0000
  C   C361      1.0  0.20185  0.26206  0.36545  1.0000
  C   C362      1.0  0.21352  0.27217  0.43723  1.0000
  C   C363      1.0  0.23458  0.26911  0.43683  1.0000
  C   C364      1.0  0.24466  0.25638  0.36622  1.0000
  C   C365      1.0  0.26606  0.25385  0.36703  1.0000
  C   C366      1.0  0.27642  0.24251  0.44057  1.0000
  C   C367      1.0  0.29753  0.24005  0.43753  1.0000
  C   C368      1.0  0.30891  0.24905  0.36382  1.0000
  H   H181      1.0  0.30466  0.23109  0.48977  1.0000
  H   H182      1.0  0.24269  0.27694  0.48836  1.0000
  N   N45       1.0  0.26550  0.23267  0.51457  1.0000
  N   N46       1.0  0.20389  0.28514  0.50883  1.0000
  O   O89       1.0  0.27055  0.24326  0.58707  1.0000
  O   O90       1.0  0.20989  0.30777  0.51541  1.0000
  O   O91       1.0  0.26784  0.20903  0.52256  1.0000
  O   O92       1.0  0.20672  0.27406  0.58280  1.0000
  C   C369      1.0  0.80880  0.74842  0.36544  1.0000
  C   C370      1.0  0.79714  0.73827  0.43716  1.0000
  C   C371      1.0  0.77607  0.74132  0.43676  1.0000
  C   C372      1.0  0.76599  0.75408  0.36621  1.0000
  C   C373      1.0  0.74459  0.75660  0.36704  1.0000
  C   C374      1.0  0.73424  0.76795  0.44058  1.0000
  C   C375      1.0  0.71313  0.77042  0.43755  1.0000
  C   C376      1.0  0.70175  0.76142  0.36386  1.0000
  H   H183      1.0  0.70600  0.77939  0.48978  1.0000
  H   H184      1.0  0.76796  0.73347  0.48825  1.0000
  N   N47       1.0  0.74517  0.77780  0.51453  1.0000
  N   N48       1.0  0.80676  0.72526  0.50869  1.0000
  O   O93       1.0  0.74012  0.76723  0.58706  1.0000
  O   O94       1.0  0.80078  0.70263  0.51512  1.0000
  O   O95       1.0  0.74283  0.80145  0.52245  1.0000
  O   O96       1.0  0.80393  0.73631  0.58272  1.0000
  C   C377      1.0  0.77759  0.24669  0.39379  1.0000
  C   C378      1.0  0.79857  0.24943  0.39430  1.0000
  H   H185      1.0  0.77090  0.23728  0.44616  1.0000
  H   H186      1.0  0.80642  0.24259  0.44840  1.0000
  C   C379      1.0  0.71190  0.26063  0.39642  1.0000
  C   C380      1.0  0.73291  0.26292  0.39537  1.0000
  H   H187      1.0  0.70421  0.26655  0.45231  1.0000
  H   H188      1.0  0.73979  0.27122  0.44960  1.0000
  C   C381      1.0  0.23262  0.76421  0.39310  1.0000
  C   C382      1.0  0.21163  0.76147  0.39290  1.0000
  H   H189      1.0  0.23922  0.77362  0.44572  1.0000
  H   H190      1.0  0.20370  0.76830  0.44675  1.0000
  C   C383      1.0  0.29830  0.75030  0.39803  1.0000
  C   C384      1.0  0.27729  0.74802  0.39626  1.0000
  H   H191      1.0  0.30589  0.74442  0.45423  1.0000
  H   H192      1.0  0.27032  0.73976  0.45031  1.0000
