data_image0
_chemical_formula_structural       C3HC4HN2H2O2C3HC4HN2H2O2C3HC4HN2H2O2C3HC4HN2H2O2C5H2NH2NO2C5H2NH2NO2C5H2NH2NO2C5H2NH2NO2C5H2NH2NO2C5H2NH2NO2C5H2NH2NO2C5H2NH2NO2C3HC4HN2H2O2C3HC4HN2H2O2C3HC4HN2H2O2C3HC4HN2H2O2C3HC4HN2H2O2C3HC4HN2H2O2C3HC4HN2H2O2C3HC4HN2H2O2C5H2NH2NO2C5H2NH2NO2C5H2NH2NO2C5H2NH2NO2C5H2NH2NO2C5H2NH2NO2C5H2NH2NO2C5H2NH2NO2C5H2NH2NO2C5H2NH2NO2C6H3C6H3C6H3C6H3C6H3C6H3C6H3C6H3C6H3C6H3C6H3C6H3C6H3C6H3C6H3C6H3C6H3C6H3C6H3C6H3C5H2NH2NO2C5H2NH2NO2C5H2NH2NO2C5H2NH2NO2C3HC4HN2H2O2C3HC4HN2H2O2C3HC4HN2H2O2C3HC4HN2H2O2C3HC4HN2H2O2C3HC4HN2H2O2C3HC4HN2H2O2C3HC4HN2H2O2C5H2NH2NO2C5H2NH2NO2C5H2NH2NO2C5H2NH2NO2C5H2NH2NO2C5H2NH2NO2C5H2NH2NO2C5H2NH2NO2C3HC4HN2H2O2C3HC4HN2H2O2C3HC4HN2H2O2C3HC4HN2H2O2C3HC4HN2H2O2C3HC4HN2H2O2C3HC4HN2H2O2C3HC4HN2H2O2C3HC4HN2H2O2C3HC4HN2H2O2
_chemical_formula_sum              "C480 H300 N120 O120"
_cell_length_a       66.758
_cell_length_b       66.758
_cell_length_c       14.8506
_cell_angle_alpha    90
_cell_angle_beta     90
_cell_angle_gamma    90

_space_group_name_H-M_alt    "P 1"
_space_group_IT_number       1

loop_
  _space_group_symop_operation_xyz
  'x, y, z'

loop_
  _atom_site_type_symbol
  _atom_site_label
  _atom_site_symmetry_multiplicity
  _atom_site_fract_x
  _atom_site_fract_y
  _atom_site_fract_z
  _atom_site_occupancy
  C   C1        1.0  0.33471  0.04314  0.35248  1.0000
  C   C2        1.0  0.32621  0.02936  0.28988  1.0000
  C   C3        1.0  0.30529  0.02579  0.29246  1.0000
  H   H1        1.0  0.29911  0.01633  0.24576  1.0000
  C   C4        1.0  0.35533  0.04895  0.35129  1.0000
  C   C5        1.0  0.39611  0.06178  0.35068  1.0000
  C   C6        1.0  0.38417  0.06384  0.27196  1.0000
  C   C7        1.0  0.36390  0.05769  0.27384  1.0000
  H   H2        1.0  0.35534  0.05950  0.21717  1.0000
  N   N1        1.0  0.39275  0.07165  0.19194  1.0000
  N   N2        1.0  0.33738  0.01906  0.22866  1.0000
  H   H3        1.0  0.33128  0.00942  0.18778  1.0000
  H   H4        1.0  0.35190  0.01981  0.22794  1.0000
  O   O1        1.0  0.39231  0.05908  0.12896  1.0000
  O   O2        1.0  0.38402  0.08735  0.16666  1.0000
  C   C8        1.0  0.67539  0.96703  0.35440  1.0000
  C   C9        1.0  0.68383  0.98087  0.29189  1.0000
  C   C10       1.0  0.70477  0.98439  0.29402  1.0000
  H   H5        1.0  0.71091  0.99389  0.24736  1.0000
  C   C11       1.0  0.65477  0.96122  0.35349  1.0000
  C   C12       1.0  0.61401  0.94829  0.35338  1.0000
  C   C13       1.0  0.62584  0.94648  0.27420  1.0000
  C   C14       1.0  0.64611  0.95266  0.27585  1.0000
  H   H6        1.0  0.65458  0.95100  0.21887  1.0000
  N   N3        1.0  0.61718  0.93888  0.19394  1.0000
  N   N4        1.0  0.67261  0.99125  0.23116  1.0000
  H   H7        1.0  0.67868  0.00097  0.19058  1.0000
  H   H8        1.0  0.65809  0.99059  0.23108  1.0000
  O   O3        1.0  0.61751  0.95163  0.13170  1.0000
  O   O4        1.0  0.62590  0.92328  0.16749  1.0000
  C   C15       1.0  0.96693  0.33472  0.35250  1.0000
  C   C16       1.0  0.98072  0.32622  0.28990  1.0000
  C   C17       1.0  0.98428  0.30530  0.29247  1.0000
  H   H9        1.0  0.99375  0.29912  0.24577  1.0000
  C   C18       1.0  0.96112  0.35533  0.35131  1.0000
  C   C19       1.0  0.94828  0.39611  0.35069  1.0000
  C   C20       1.0  0.94622  0.38417  0.27198  1.0000
  C   C21       1.0  0.95238  0.36390  0.27386  1.0000
  H   H10       1.0  0.95057  0.35535  0.21719  1.0000
  N   N5        1.0  0.93841  0.39275  0.19196  1.0000
  N   N6        1.0  0.99101  0.33740  0.22868  1.0000
  H   H11       1.0  0.00065  0.33129  0.18780  1.0000
  H   H12       1.0  0.99026  0.35191  0.22796  1.0000
  O   O5        1.0  0.95098  0.39231  0.12898  1.0000
  O   O6        1.0  0.92271  0.38402  0.16667  1.0000
  C   C22       1.0  0.04303  0.67539  0.35439  1.0000
  C   C23       1.0  0.02920  0.68384  0.29187  1.0000
  C   C24       1.0  0.02569  0.70478  0.29399  1.0000
  H   H13       1.0  0.01619  0.71092  0.24732  1.0000
  C   C25       1.0  0.04884  0.65477  0.35349  1.0000
  C   C26       1.0  0.06177  0.61401  0.35339  1.0000
  C   C27       1.0  0.06358  0.62584  0.27421  1.0000
  C   C28       1.0  0.05741  0.64611  0.27585  1.0000
  H   H14       1.0  0.05907  0.65459  0.21887  1.0000
  N   N7        1.0  0.07118  0.61718  0.19395  1.0000
  N   N8        1.0  0.01882  0.67262  0.23113  1.0000
  H   H15       1.0  0.00911  0.67870  0.19055  1.0000
  H   H16       1.0  0.01947  0.65810  0.23105  1.0000
  O   O7        1.0  0.05843  0.61751  0.13170  1.0000
  O   O8        1.0  0.08678  0.62590  0.16750  1.0000
  C   C29       1.0  0.21760  0.53529  0.33053  1.0000
  C   C30       1.0  0.20895  0.54841  0.26616  1.0000
  C   C31       1.0  0.18814  0.55228  0.26916  1.0000
  C   C32       1.0  0.14280  0.54736  0.25726  1.0000
  C   C33       1.0  0.12257  0.55373  0.25566  1.0000
  H   H17       1.0  0.14895  0.54129  0.20021  1.0000
  H   H18       1.0  0.18228  0.56222  0.22365  1.0000
  N   N9        1.0  0.11223  0.55200  0.17693  1.0000
  H   H19       1.0  0.11849  0.54663  0.12286  1.0000
  H   H20       1.0  0.09859  0.55685  0.17060  1.0000
  N   N10       1.0  0.22110  0.55720  0.19861  1.0000
  O   O9        1.0  0.22068  0.57602  0.20233  1.0000
  O   O10       1.0  0.21575  0.55181  0.12119  1.0000
  C   C34       1.0  0.79250  0.47481  0.33158  1.0000
  C   C35       1.0  0.80118  0.46167  0.26736  1.0000
  C   C36       1.0  0.82200  0.45783  0.27051  1.0000
  C   C37       1.0  0.86728  0.46286  0.25832  1.0000
  C   C38       1.0  0.88752  0.45653  0.25652  1.0000
  H   H21       1.0  0.86108  0.46886  0.20125  1.0000
  H   H22       1.0  0.82788  0.44789  0.22510  1.0000
  N   N11       1.0  0.89780  0.45821  0.17758  1.0000
  H   H23       1.0  0.89149  0.46356  0.12357  1.0000
  H   H24       1.0  0.91146  0.45344  0.17114  1.0000
  N   N12       1.0  0.78906  0.45284  0.19978  1.0000
  O   O11       1.0  0.78951  0.43403  0.20360  1.0000
  O   O12       1.0  0.79443  0.45822  0.12237  1.0000
  C   C39       1.0  0.53529  0.79246  0.33055  1.0000
  C   C40       1.0  0.54841  0.80110  0.26617  1.0000
  C   C41       1.0  0.55228  0.82192  0.26916  1.0000
  C   C42       1.0  0.54736  0.86725  0.25724  1.0000
  C   C43       1.0  0.55373  0.88749  0.25565  1.0000
  H   H25       1.0  0.54129  0.86111  0.20020  1.0000
  H   H26       1.0  0.56222  0.82777  0.22365  1.0000
  N   N13       1.0  0.55200  0.89783  0.17691  1.0000
  H   H27       1.0  0.54663  0.89156  0.12284  1.0000
  H   H28       1.0  0.55685  0.91147  0.17058  1.0000
  N   N14       1.0  0.55720  0.78895  0.19863  1.0000
  O   O13       1.0  0.57602  0.78937  0.20235  1.0000
  O   O14       1.0  0.55181  0.79430  0.12121  1.0000
  C   C44       1.0  0.47480  0.21757  0.33157  1.0000
  C   C45       1.0  0.46167  0.20888  0.26737  1.0000
  C   C46       1.0  0.45782  0.18806  0.27052  1.0000
  C   C47       1.0  0.46286  0.14278  0.25833  1.0000
  C   C48       1.0  0.45653  0.12254  0.25653  1.0000
  H   H29       1.0  0.46886  0.14898  0.20126  1.0000
  H   H30       1.0  0.44788  0.18218  0.22512  1.0000
  N   N15       1.0  0.45821  0.11226  0.17758  1.0000
  H   H31       1.0  0.46356  0.11857  0.12358  1.0000
  H   H32       1.0  0.45344  0.09860  0.17114  1.0000
  N   N16       1.0  0.45283  0.22100  0.19979  1.0000
  O   O15       1.0  0.43402  0.22055  0.20362  1.0000
  O   O16       1.0  0.45821  0.21563  0.12237  1.0000
  C   C49       1.0  0.22503  0.06352  0.32801  1.0000
  C   C50       1.0  0.22865  0.07827  0.26099  1.0000
  C   C51       1.0  0.21858  0.09693  0.26505  1.0000
  C   C52       1.0  0.18774  0.13056  0.25946  1.0000
  C   C53       1.0  0.18089  0.15070  0.25809  1.0000
  H   H33       1.0  0.18642  0.12209  0.20224  1.0000
  H   H34       1.0  0.22209  0.10751  0.21767  1.0000
  N   N17       1.0  0.17334  0.15800  0.17941  1.0000
  H   H35       1.0  0.17262  0.14973  0.12547  1.0000
  H   H36       1.0  0.16911  0.17183  0.17309  1.0000
  N   N18       1.0  0.24234  0.07417  0.19034  1.0000
  O   O17       1.0  0.25662  0.08645  0.18923  1.0000
  O   O18       1.0  0.23384  0.07451  0.11487  1.0000
  C   C54       1.0  0.78506  0.94658  0.32805  1.0000
  C   C55       1.0  0.78141  0.93183  0.26105  1.0000
  C   C56       1.0  0.79148  0.91316  0.26505  1.0000
  C   C57       1.0  0.82229  0.87951  0.25937  1.0000
  C   C58       1.0  0.82914  0.85937  0.25802  1.0000
  H   H37       1.0  0.82361  0.88798  0.20215  1.0000
  H   H38       1.0  0.78794  0.90258  0.21771  1.0000
  N   N19       1.0  0.83669  0.85207  0.17932  1.0000
  H   H39       1.0  0.83743  0.86035  0.12540  1.0000
  H   H40       1.0  0.84095  0.83825  0.17304  1.0000
  N   N20       1.0  0.76770  0.93595  0.19049  1.0000
  O   O19       1.0  0.75341  0.92368  0.18945  1.0000
  O   O20       1.0  0.77618  0.93561  0.11497  1.0000
  C   C59       1.0  0.94657  0.22504  0.32799  1.0000
  C   C60       1.0  0.93181  0.22866  0.26096  1.0000
  C   C61       1.0  0.91315  0.21859  0.26502  1.0000
  C   C62       1.0  0.87952  0.18776  0.25943  1.0000
  C   C63       1.0  0.85938  0.18092  0.25807  1.0000
  H   H41       1.0  0.88799  0.18644  0.20222  1.0000
  H   H42       1.0  0.90257  0.22211  0.21764  1.0000
  N   N21       1.0  0.85208  0.17336  0.17938  1.0000
  H   H43       1.0  0.86035  0.17264  0.12545  1.0000
  H   H44       1.0  0.83824  0.16913  0.17307  1.0000
  N   N22       1.0  0.93592  0.24235  0.19031  1.0000
  O   O21       1.0  0.92364  0.25663  0.18918  1.0000
  O   O22       1.0  0.93559  0.23385  0.11484  1.0000
  C   C64       1.0  0.06351  0.78507  0.32811  1.0000
  C   C65       1.0  0.07826  0.78142  0.26110  1.0000
  C   C66       1.0  0.09692  0.79149  0.26509  1.0000
  C   C67       1.0  0.13057  0.82231  0.25939  1.0000
  C   C68       1.0  0.15071  0.82916  0.25804  1.0000
  H   H45       1.0  0.12210  0.82362  0.20216  1.0000
  H   H46       1.0  0.10751  0.78795  0.21776  1.0000
  N   N23       1.0  0.15801  0.83670  0.17933  1.0000
  H   H47       1.0  0.14974  0.83744  0.12541  1.0000
  H   H48       1.0  0.17183  0.84097  0.17306  1.0000
  N   N24       1.0  0.07415  0.76771  0.19055  1.0000
  O   O23       1.0  0.08642  0.75342  0.18951  1.0000
  O   O24       1.0  0.07448  0.77618  0.11503  1.0000
  C   C69       1.0  0.30537  0.60202  0.35496  1.0000
  C   C70       1.0  0.30980  0.58691  0.28977  1.0000
  C   C71       1.0  0.29948  0.56828  0.29312  1.0000
  H   H49       1.0  0.30213  0.55788  0.24381  1.0000
  C   C72       1.0  0.31344  0.62208  0.35277  1.0000
  C   C73       1.0  0.32737  0.66297  0.35189  1.0000
  C   C74       1.0  0.31852  0.65438  0.27372  1.0000
  C   C75       1.0  0.31149  0.63433  0.27568  1.0000
  H   H50       1.0  0.30472  0.62864  0.21936  1.0000
  N   N25       1.0  0.31702  0.66595  0.19390  1.0000
  N   N26       1.0  0.32392  0.58946  0.22460  1.0000
  H   H51       1.0  0.32703  0.57885  0.18180  1.0000
  H   H52       1.0  0.33250  0.60119  0.22299  1.0000
  O   O25       1.0  0.32676  0.65821  0.13035  1.0000
  O   O26       1.0  0.29913  0.66813  0.16953  1.0000
  C   C76       1.0  0.70473  0.40804  0.35511  1.0000
  C   C77       1.0  0.70032  0.42315  0.28988  1.0000
  C   C78       1.0  0.71065  0.44177  0.29333  1.0000
  H   H53       1.0  0.70802  0.45218  0.24401  1.0000
  C   C79       1.0  0.69665  0.38798  0.35289  1.0000
  C   C80       1.0  0.68268  0.34710  0.35190  1.0000
  C   C81       1.0  0.69155  0.35569  0.27376  1.0000
  C   C82       1.0  0.69860  0.37574  0.27577  1.0000
  H   H54       1.0  0.70537  0.38143  0.21947  1.0000
  N   N27       1.0  0.69304  0.34413  0.19392  1.0000
  N   N28       1.0  0.68623  0.42059  0.22458  1.0000
  H   H55       1.0  0.68310  0.43124  0.18201  1.0000
  H   H56       1.0  0.67760  0.40891  0.22314  1.0000
  O   O27       1.0  0.68332  0.35188  0.13038  1.0000
  O   O28       1.0  0.71093  0.34194  0.16958  1.0000
  C   C83       1.0  0.60201  0.70469  0.35493  1.0000
  C   C84       1.0  0.58691  0.70026  0.28973  1.0000
  C   C85       1.0  0.56828  0.71058  0.29310  1.0000
  H   H57       1.0  0.55788  0.70794  0.24377  1.0000
  C   C86       1.0  0.62208  0.69663  0.35275  1.0000
  C   C87       1.0  0.66296  0.68269  0.35188  1.0000
  C   C88       1.0  0.65438  0.69155  0.27371  1.0000
  C   C89       1.0  0.63433  0.69858  0.27568  1.0000
  H   H58       1.0  0.62864  0.70535  0.21936  1.0000
  N   N29       1.0  0.66595  0.69305  0.19390  1.0000
  N   N30       1.0  0.58947  0.68615  0.22452  1.0000
  H   H59       1.0  0.57886  0.68305  0.18172  1.0000
  H   H60       1.0  0.60120  0.67758  0.22290  1.0000
  O   O29       1.0  0.65821  0.68332  0.13034  1.0000
  O   O30       1.0  0.66814  0.71094  0.16956  1.0000
  C   C90       1.0  0.40804  0.30534  0.35510  1.0000
  C   C91       1.0  0.42314  0.30974  0.28986  1.0000
  C   C92       1.0  0.44177  0.29941  0.29329  1.0000
  H   H61       1.0  0.45217  0.30205  0.24396  1.0000
  C   C93       1.0  0.38798  0.31341  0.35289  1.0000
  C   C94       1.0  0.34710  0.32738  0.35192  1.0000
  C   C95       1.0  0.35569  0.31851  0.27377  1.0000
  C   C96       1.0  0.37573  0.31146  0.27577  1.0000
  H   H62       1.0  0.38143  0.30469  0.21947  1.0000
  N   N31       1.0  0.34412  0.31702  0.19393  1.0000
  N   N32       1.0  0.42059  0.32383  0.22455  1.0000
  H   H63       1.0  0.43123  0.32696  0.18197  1.0000
  H   H64       1.0  0.40890  0.33246  0.22312  1.0000
  O   O31       1.0  0.35187  0.32674  0.13039  1.0000
  O   O32       1.0  0.34193  0.29912  0.16959  1.0000
  C   C97       1.0  0.22208  0.92527  0.34147  1.0000
  C   C98       1.0  0.23168  0.91173  0.28080  1.0000
  C   C99       1.0  0.22640  0.89110  0.28243  1.0000
  H   H65       1.0  0.23317  0.88162  0.23750  1.0000
  C   C100      1.0  0.22601  0.94654  0.34401  1.0000
  C   C101      1.0  0.23487  0.98884  0.34923  1.0000
  C   C102      1.0  0.22838  0.97954  0.26809  1.0000
  C   C103      1.0  0.22373  0.95878  0.26705  1.0000
  H   H66       1.0  0.21912  0.95240  0.20790  1.0000
  N   N33       1.0  0.22735  0.99104  0.18796  1.0000
  N   N34       1.0  0.24638  0.91760  0.22292  1.0000
  H   H67       1.0  0.25308  0.90803  0.18363  1.0000
  H   H68       1.0  0.25178  0.93108  0.22346  1.0000
  O   O33       1.0  0.23916  0.98452  0.12891  1.0000
  O   O34       1.0  0.20992  0.99126  0.15609  1.0000
  C   C104      1.0  0.78803  0.08482  0.34159  1.0000
  C   C105      1.0  0.77843  0.09835  0.28088  1.0000
  C   C106      1.0  0.78370  0.11899  0.28248  1.0000
  H   H69       1.0  0.77693  0.12846  0.23751  1.0000
  C   C107      1.0  0.78410  0.06355  0.34418  1.0000
  C   C108      1.0  0.77525  0.02126  0.34957  1.0000
  C   C109      1.0  0.78171  0.03054  0.26835  1.0000
  C   C110      1.0  0.78635  0.05130  0.26724  1.0000
  H   H70       1.0  0.79095  0.05767  0.20805  1.0000
  N   N35       1.0  0.78271  0.01904  0.18823  1.0000
  N   N36       1.0  0.76373  0.09248  0.22301  1.0000
  H   H71       1.0  0.75698  0.10206  0.18395  1.0000
  H   H72       1.0  0.75828  0.07901  0.22384  1.0000
  O   O35       1.0  0.77088  0.02555  0.12924  1.0000
  O   O36       1.0  0.80014  0.01881  0.15626  1.0000
  C   C111      1.0  0.08480  0.22207  0.34146  1.0000
  C   C112      1.0  0.09834  0.23167  0.28078  1.0000
  C   C113      1.0  0.11898  0.22640  0.28243  1.0000
  H   H73       1.0  0.12845  0.23317  0.23749  1.0000
  C   C114      1.0  0.06353  0.22601  0.34399  1.0000
  C   C115      1.0  0.02124  0.23488  0.34923  1.0000
  C   C116      1.0  0.03053  0.22838  0.26808  1.0000
  C   C117      1.0  0.05129  0.22373  0.26705  1.0000
  H   H74       1.0  0.05767  0.21912  0.20790  1.0000
  N   N37       1.0  0.01904  0.22735  0.18795  1.0000
  N   N38       1.0  0.09248  0.24638  0.22291  1.0000
  H   H75       1.0  0.10205  0.25308  0.18361  1.0000
  H   H76       1.0  0.07899  0.25177  0.22344  1.0000
  O   O37       1.0  0.02556  0.23916  0.12889  1.0000
  O   O38       1.0  0.01881  0.20992  0.15610  1.0000
  C   C118      1.0  0.92525  0.78803  0.34161  1.0000
  C   C119      1.0  0.91173  0.77843  0.28090  1.0000
  C   C120      1.0  0.89109  0.78369  0.28250  1.0000
  H   H77       1.0  0.88162  0.77692  0.23753  1.0000
  C   C121      1.0  0.94652  0.78410  0.34420  1.0000
  C   C122      1.0  0.98883  0.77527  0.34960  1.0000
  C   C123      1.0  0.97954  0.78171  0.26837  1.0000
  C   C124      1.0  0.95877  0.78635  0.26725  1.0000
  H   H78       1.0  0.95240  0.79094  0.20805  1.0000
  N   N39       1.0  0.99104  0.78272  0.18824  1.0000
  N   N40       1.0  0.91760  0.76372  0.22303  1.0000
  H   H79       1.0  0.90802  0.75698  0.18397  1.0000
  H   H80       1.0  0.93107  0.75828  0.22387  1.0000
  O   O39       1.0  0.98453  0.77088  0.12927  1.0000
  O   O40       1.0  0.99125  0.80014  0.15624  1.0000
  C   C125      1.0  0.29773  0.38324  0.34303  1.0000
  C   C126      1.0  0.30701  0.39671  0.28170  1.0000
  C   C127      1.0  0.30222  0.41742  0.28424  1.0000
  C   C128      1.0  0.27824  0.45642  0.26248  1.0000
  C   C129      1.0  0.27378  0.47720  0.25825  1.0000
  H   H81       1.0  0.27660  0.44789  0.20559  1.0000
  H   H82       1.0  0.30932  0.42676  0.23977  1.0000
  N   N41       1.0  0.26811  0.48500  0.17735  1.0000
  H   H83       1.0  0.26734  0.47670  0.12353  1.0000
  H   H84       1.0  0.26568  0.49922  0.16929  1.0000
  N   N42       1.0  0.32043  0.38922  0.21591  1.0000
  O   O41       1.0  0.33749  0.39704  0.22294  1.0000
  O   O42       1.0  0.31401  0.39216  0.13747  1.0000
  C   C130      1.0  0.71233  0.62683  0.34310  1.0000
  C   C131      1.0  0.70307  0.61336  0.28177  1.0000
  C   C132      1.0  0.70786  0.59265  0.28433  1.0000
  C   C133      1.0  0.73184  0.55364  0.26270  1.0000
  C   C134      1.0  0.73629  0.53285  0.25853  1.0000
  H   H85       1.0  0.73346  0.56215  0.20576  1.0000
  H   H86       1.0  0.70076  0.58330  0.23986  1.0000
  N   N43       1.0  0.74196  0.52504  0.17768  1.0000
  H   H87       1.0  0.74277  0.53334  0.12385  1.0000
  H   H88       1.0  0.74443  0.51082  0.16969  1.0000
  N   N44       1.0  0.68964  0.62084  0.21595  1.0000
  O   O43       1.0  0.67259  0.61303  0.22296  1.0000
  O   O44       1.0  0.69607  0.61790  0.13752  1.0000
  C   C135      1.0  0.38323  0.71233  0.34307  1.0000
  C   C136      1.0  0.39670  0.70306  0.28173  1.0000
  C   C137      1.0  0.41741  0.70785  0.28427  1.0000
  C   C138      1.0  0.45641  0.73183  0.26251  1.0000
  C   C139      1.0  0.47719  0.73628  0.25827  1.0000
  H   H89       1.0  0.44789  0.73347  0.20562  1.0000
  H   H90       1.0  0.42675  0.70075  0.23980  1.0000
  N   N45       1.0  0.48499  0.74195  0.17738  1.0000
  H   H91       1.0  0.47669  0.74273  0.12355  1.0000
  H   H92       1.0  0.49922  0.74439  0.16931  1.0000
  N   N46       1.0  0.38921  0.68963  0.21594  1.0000
  O   O45       1.0  0.39703  0.67257  0.22297  1.0000
  O   O46       1.0  0.39215  0.69606  0.13750  1.0000
  C   C140      1.0  0.62682  0.29773  0.34308  1.0000
  C   C141      1.0  0.61335  0.30700  0.28174  1.0000
  C   C142      1.0  0.59264  0.30221  0.28430  1.0000
  C   C143      1.0  0.55363  0.27823  0.26268  1.0000
  C   C144      1.0  0.53285  0.27377  0.25851  1.0000
  H   H93       1.0  0.56214  0.27660  0.20574  1.0000
  H   H94       1.0  0.58330  0.30930  0.23984  1.0000
  N   N47       1.0  0.52504  0.26811  0.17765  1.0000
  H   H95       1.0  0.53333  0.26729  0.12383  1.0000
  H   H96       1.0  0.51081  0.26562  0.16967  1.0000
  N   N48       1.0  0.62084  0.32042  0.21592  1.0000
  O   O47       1.0  0.61302  0.33748  0.22293  1.0000
  O   O48       1.0  0.61790  0.31399  0.13750  1.0000
  C   C145      1.0  0.19853  0.23526  0.34024  1.0000
  C   C146      1.0  0.21452  0.23595  0.27705  1.0000
  C   C147      1.0  0.22868  0.25179  0.28039  1.0000
  C   C148      1.0  0.24778  0.29357  0.26534  1.0000
  C   C149      1.0  0.26330  0.30812  0.26270  1.0000
  H   H97       1.0  0.23967  0.29084  0.20807  1.0000
  H   H98       1.0  0.24021  0.25166  0.23491  1.0000
  N   N49       1.0  0.26709  0.31743  0.18285  1.0000
  H   H99       1.0  0.25945  0.31426  0.12882  1.0000
  H   H100      1.0  0.27788  0.32706  0.17603  1.0000
  N   N50       1.0  0.21585  0.22113  0.20897  1.0000
  O   O49       1.0  0.23211  0.21167  0.21312  1.0000
  O   O50       1.0  0.21417  0.22860  0.13167  1.0000
  C   C150      1.0  0.81153  0.77481  0.34019  1.0000
  C   C151      1.0  0.79554  0.77412  0.27698  1.0000
  C   C152      1.0  0.78139  0.75828  0.28033  1.0000
  C   C153      1.0  0.76228  0.71651  0.26530  1.0000
  C   C154      1.0  0.74675  0.70196  0.26268  1.0000
  H   H101      1.0  0.77037  0.71925  0.20801  1.0000
  H   H102      1.0  0.76985  0.75840  0.23483  1.0000
  N   N51       1.0  0.74295  0.69266  0.18283  1.0000
  H   H103      1.0  0.75060  0.69581  0.12881  1.0000
  H   H104      1.0  0.73218  0.68300  0.17604  1.0000
  N   N52       1.0  0.79422  0.78894  0.20888  1.0000
  O   O51       1.0  0.77796  0.79840  0.21298  1.0000
  O   O52       1.0  0.79590  0.78146  0.13159  1.0000
  C   C155      1.0  0.77481  0.19854  0.34021  1.0000
  C   C156      1.0  0.77412  0.21454  0.27703  1.0000
  C   C157      1.0  0.75827  0.22869  0.28037  1.0000
  C   C158      1.0  0.71650  0.24778  0.26533  1.0000
  C   C159      1.0  0.70194  0.26331  0.26270  1.0000
  H   H105      1.0  0.71923  0.23967  0.20806  1.0000
  H   H106      1.0  0.75840  0.24022  0.23489  1.0000
  N   N53       1.0  0.69263  0.26710  0.18285  1.0000
  H   H107      1.0  0.69580  0.25945  0.12882  1.0000
  H   H108      1.0  0.68300  0.27788  0.17603  1.0000
  N   N54       1.0  0.78894  0.21587  0.20895  1.0000
  O   O53       1.0  0.79839  0.23213  0.21308  1.0000
  O   O54       1.0  0.78147  0.21419  0.13165  1.0000
  C   C160      1.0  0.23526  0.81155  0.34021  1.0000
  C   C161      1.0  0.23595  0.79556  0.27701  1.0000
  C   C162      1.0  0.25179  0.78140  0.28034  1.0000
  C   C163      1.0  0.29355  0.76228  0.26530  1.0000
  C   C164      1.0  0.30811  0.74676  0.26268  1.0000
  H   H109      1.0  0.29082  0.77038  0.20802  1.0000
  H   H110      1.0  0.25166  0.76986  0.23485  1.0000
  N   N55       1.0  0.31741  0.74296  0.18282  1.0000
  H   H111      1.0  0.31425  0.75060  0.12881  1.0000
  H   H112      1.0  0.32706  0.73219  0.17604  1.0000
  N   N56       1.0  0.22113  0.79423  0.20891  1.0000
  O   O55       1.0  0.21167  0.77798  0.21301  1.0000
  O   O56       1.0  0.22861  0.79592  0.13162  1.0000
  C   C165      1.0  0.54265  0.96726  0.34301  1.0000
  C   C166      1.0  0.54282  0.98331  0.28039  1.0000
  C   C167      1.0  0.52729  0.99771  0.28305  1.0000
  C   C168      1.0  0.48547  0.01591  0.26488  1.0000
  C   C169      1.0  0.47087  0.03127  0.26134  1.0000
  H   H113      1.0  0.48808  0.00742  0.20862  1.0000
  H   H114      1.0  0.52778  0.00936  0.23817  1.0000
  N   N57       1.0  0.46119  0.03451  0.18186  1.0000
  H   H115      1.0  0.46421  0.02660  0.12847  1.0000
  H   H116      1.0  0.45145  0.04519  0.17459  1.0000
  N   N58       1.0  0.55805  0.98444  0.21409  1.0000
  O   O57       1.0  0.56785  0.00046  0.22019  1.0000
  O   O58       1.0  0.55097  0.98315  0.13591  1.0000
  C   C170      1.0  0.04279  0.54266  0.34303  1.0000
  C   C171      1.0  0.02675  0.54282  0.28038  1.0000
  C   C172      1.0  0.01235  0.52730  0.28303  1.0000
  C   C173      1.0  0.99413  0.48548  0.26486  1.0000
  C   C174      1.0  0.97878  0.47088  0.26132  1.0000
  H   H117      1.0  0.00262  0.48810  0.20858  1.0000
  H   H118      1.0  0.00070  0.52778  0.23812  1.0000
  N   N59       1.0  0.97553  0.46121  0.18182  1.0000
  H   H119      1.0  0.98345  0.46422  0.12845  1.0000
  H   H120      1.0  0.96486  0.45146  0.17459  1.0000
  N   N60       1.0  0.02562  0.55805  0.21407  1.0000
  O   O59       1.0  0.00961  0.56786  0.22015  1.0000
  O   O60       1.0  0.02693  0.55097  0.13589  1.0000
  C   C175      1.0  0.27143  0.03180  0.35149  1.0000
  C   C176      1.0  0.25824  0.04823  0.34290  1.0000
  C   C177      1.0  0.23725  0.04582  0.33544  1.0000
  C   C178      1.0  0.22944  0.02603  0.33893  1.0000
  C   C179      1.0  0.24221  0.00909  0.34714  1.0000
  C   C180      1.0  0.26315  0.01232  0.35216  1.0000
  H   H121      1.0  0.21429  0.02391  0.33450  1.0000
  H   H122      1.0  0.27255  0.00024  0.35803  1.0000
  H   H123      1.0  0.26415  0.06239  0.34161  1.0000
  C   C181      1.0  0.73869  0.97830  0.35224  1.0000
  C   C182      1.0  0.75186  0.96187  0.34335  1.0000
  C   C183      1.0  0.77285  0.96427  0.33564  1.0000
  C   C184      1.0  0.78067  0.98406  0.33912  1.0000
  C   C185      1.0  0.76790  0.00100  0.34753  1.0000
  C   C186      1.0  0.74697  0.99779  0.35285  1.0000
  H   H124      1.0  0.79582  0.98618  0.33448  1.0000
  H   H125      1.0  0.73758  0.00986  0.35892  1.0000
  H   H126      1.0  0.74595  0.94771  0.34206  1.0000
  C   C187      1.0  0.97828  0.27144  0.35149  1.0000
  C   C188      1.0  0.96185  0.25825  0.34290  1.0000
  C   C189      1.0  0.96426  0.23726  0.33543  1.0000
  C   C190      1.0  0.98405  0.22945  0.33894  1.0000
  C   C191      1.0  0.00099  0.24222  0.34712  1.0000
  C   C192      1.0  0.99777  0.26316  0.35215  1.0000
  H   H127      1.0  0.98617  0.21430  0.33448  1.0000
  H   H128      1.0  0.00983  0.27256  0.35803  1.0000
  H   H129      1.0  0.94769  0.26416  0.34160  1.0000
  C   C193      1.0  0.03178  0.73869  0.35222  1.0000
  C   C194      1.0  0.04821  0.75187  0.34337  1.0000
  C   C195      1.0  0.04581  0.77285  0.33567  1.0000
  C   C196      1.0  0.02602  0.78068  0.33914  1.0000
  C   C197      1.0  0.00908  0.76792  0.34753  1.0000
  C   C198      1.0  0.01230  0.74698  0.35286  1.0000
  H   H130      1.0  0.02391  0.79583  0.33453  1.0000
  H   H131      1.0  0.00022  0.73759  0.35889  1.0000
  H   H132      1.0  0.06237  0.74595  0.34207  1.0000
  C   C199      1.0  0.23876  0.53204  0.33545  1.0000
  C   C200      1.0  0.25191  0.54848  0.34445  1.0000
  C   C201      1.0  0.27290  0.54610  0.35223  1.0000
  C   C202      1.0  0.28075  0.52633  0.34859  1.0000
  C   C203      1.0  0.26800  0.50937  0.33999  1.0000
  C   C204      1.0  0.24707  0.51256  0.33467  1.0000
  H   H133      1.0  0.29590  0.52422  0.35325  1.0000
  H   H134      1.0  0.23769  0.50048  0.32857  1.0000
  H   H135      1.0  0.24598  0.56263  0.34586  1.0000
  C   C205      1.0  0.77133  0.47805  0.33628  1.0000
  C   C206      1.0  0.75818  0.46160  0.34518  1.0000
  C   C207      1.0  0.73719  0.46397  0.35269  1.0000
  C   C208      1.0  0.72934  0.48374  0.34893  1.0000
  C   C209      1.0  0.74207  0.50070  0.34041  1.0000
  C   C210      1.0  0.76301  0.49752  0.33533  1.0000
  H   H136      1.0  0.71418  0.48584  0.35341  1.0000
  H   H137      1.0  0.77239  0.50960  0.32929  1.0000
  H   H138      1.0  0.76412  0.44745  0.34669  1.0000
  C   C211      1.0  0.53203  0.77130  0.33549  1.0000
  C   C212      1.0  0.54848  0.75814  0.34446  1.0000
  C   C213      1.0  0.54610  0.73716  0.35221  1.0000
  C   C214      1.0  0.52632  0.72931  0.34861  1.0000
  C   C215      1.0  0.50936  0.74206  0.34001  1.0000
  C   C216      1.0  0.51256  0.76299  0.33469  1.0000
  H   H139      1.0  0.52421  0.71416  0.35326  1.0000
  H   H140      1.0  0.50048  0.77237  0.32858  1.0000
  H   H141      1.0  0.56263  0.76407  0.34586  1.0000
  C   C217      1.0  0.47804  0.23873  0.33629  1.0000
  C   C218      1.0  0.46159  0.25188  0.34516  1.0000
  C   C219      1.0  0.46396  0.27288  0.35263  1.0000
  C   C220      1.0  0.48374  0.28072  0.34890  1.0000
  C   C221      1.0  0.50070  0.26798  0.34040  1.0000
  C   C222      1.0  0.49751  0.24704  0.33530  1.0000
  H   H142      1.0  0.48584  0.29588  0.35339  1.0000
  H   H143      1.0  0.50959  0.23767  0.32929  1.0000
  H   H144      1.0  0.44745  0.24594  0.34667  1.0000
  C   C223      1.0  0.18386  0.21932  0.34129  1.0000
  C   C224      1.0  0.18991  0.19896  0.34191  1.0000
  C   C225      1.0  0.17592  0.18305  0.33989  1.0000
  C   C226      1.0  0.15526  0.18780  0.33958  1.0000
  C   C227      1.0  0.14830  0.20788  0.34249  1.0000
  C   C228      1.0  0.16296  0.22334  0.34252  1.0000
  H   H145      1.0  0.14510  0.17634  0.33652  1.0000
  H   H146      1.0  0.15827  0.23793  0.34328  1.0000
  H   H147      1.0  0.20487  0.19557  0.34354  1.0000
  C   C229      1.0  0.82619  0.79076  0.34125  1.0000
  C   C230      1.0  0.82014  0.81112  0.34184  1.0000
  C   C231      1.0  0.83413  0.82703  0.33984  1.0000
  C   C232      1.0  0.85479  0.82228  0.33958  1.0000
  C   C233      1.0  0.86175  0.80221  0.34250  1.0000
  C   C234      1.0  0.84710  0.78675  0.34250  1.0000
  H   H148      1.0  0.86495  0.83375  0.33651  1.0000
  H   H149      1.0  0.85179  0.77215  0.34328  1.0000
  H   H150      1.0  0.80519  0.81451  0.34346  1.0000
  C   C235      1.0  0.79076  0.18388  0.34127  1.0000
  C   C236      1.0  0.81112  0.18993  0.34188  1.0000
  C   C237      1.0  0.82703  0.17595  0.33987  1.0000
  C   C238      1.0  0.82228  0.15529  0.33959  1.0000
  C   C239      1.0  0.80221  0.14832  0.34250  1.0000
  C   C240      1.0  0.78675  0.16297  0.34251  1.0000
  H   H151      1.0  0.83375  0.14513  0.33652  1.0000
  H   H152      1.0  0.77215  0.15828  0.34327  1.0000
  H   H153      1.0  0.81450  0.20489  0.34350  1.0000
  C   C241      1.0  0.21932  0.82621  0.34127  1.0000
  C   C242      1.0  0.19896  0.82016  0.34188  1.0000
  C   C243      1.0  0.18305  0.83416  0.33986  1.0000
  C   C244      1.0  0.18781  0.85481  0.33958  1.0000
  C   C245      1.0  0.20788  0.86177  0.34248  1.0000
  C   C246      1.0  0.22334  0.84712  0.34250  1.0000
  H   H154      1.0  0.17634  0.86497  0.33650  1.0000
  H   H155      1.0  0.23794  0.85181  0.34327  1.0000
  H   H156      1.0  0.19557  0.80521  0.34350  1.0000
  C   C247      1.0  0.32665  0.71958  0.34364  1.0000
  C   C248      1.0  0.32028  0.69937  0.34680  1.0000
  C   C249      1.0  0.33418  0.68338  0.34944  1.0000
  C   C250      1.0  0.35489  0.68799  0.34874  1.0000
  C   C251      1.0  0.36201  0.70800  0.34436  1.0000
  C   C252      1.0  0.34751  0.72358  0.34246  1.0000
  H   H157      1.0  0.36497  0.67646  0.35235  1.0000
  H   H158      1.0  0.35219  0.73817  0.33917  1.0000
  H   H159      1.0  0.30525  0.69625  0.34754  1.0000
  C   C253      1.0  0.68341  0.29049  0.34362  1.0000
  C   C254      1.0  0.68978  0.31070  0.34679  1.0000
  C   C255      1.0  0.67588  0.32669  0.34943  1.0000
  C   C256      1.0  0.65517  0.32208  0.34873  1.0000
  C   C257      1.0  0.64804  0.30206  0.34434  1.0000
  C   C258      1.0  0.66255  0.28649  0.34244  1.0000
  H   H160      1.0  0.64509  0.33361  0.35232  1.0000
  H   H161      1.0  0.65787  0.27190  0.33916  1.0000
  H   H162      1.0  0.70480  0.31382  0.34753  1.0000
  C   C259      1.0  0.71958  0.68341  0.34364  1.0000
  C   C260      1.0  0.69937  0.68978  0.34680  1.0000
  C   C261      1.0  0.68337  0.67589  0.34943  1.0000
  C   C262      1.0  0.68799  0.65518  0.34875  1.0000
  C   C263      1.0  0.70800  0.64805  0.34436  1.0000
  C   C264      1.0  0.72358  0.66255  0.34247  1.0000
  H   H163      1.0  0.67646  0.64509  0.35233  1.0000
  H   H164      1.0  0.73817  0.65787  0.33918  1.0000
  H   H165      1.0  0.69625  0.70481  0.34753  1.0000
  C   C265      1.0  0.29048  0.32666  0.34363  1.0000
  C   C266      1.0  0.31069  0.32029  0.34681  1.0000
  C   C267      1.0  0.32669  0.33418  0.34943  1.0000
  C   C268      1.0  0.32208  0.35489  0.34873  1.0000
  C   C269      1.0  0.30206  0.36202  0.34432  1.0000
  C   C270      1.0  0.28648  0.34752  0.34242  1.0000
  H   H166      1.0  0.33361  0.36497  0.35232  1.0000
  H   H167      1.0  0.27189  0.35220  0.33914  1.0000
  H   H168      1.0  0.31382  0.30526  0.34755  1.0000
  C   C271      1.0  0.44271  0.09340  0.33959  1.0000
  C   C272      1.0  0.42230  0.08782  0.34388  1.0000
  C   C273      1.0  0.41666  0.06743  0.34726  1.0000
  C   C274      1.0  0.43169  0.05255  0.34561  1.0000
  C   C275      1.0  0.45214  0.05786  0.34153  1.0000
  C   C276      1.0  0.45753  0.07830  0.33915  1.0000
  H   H169      1.0  0.42772  0.03772  0.34746  1.0000
  H   H170      1.0  0.47237  0.08221  0.33638  1.0000
  H   H171      1.0  0.41147  0.09870  0.34448  1.0000
  C   C277      1.0  0.56756  0.91657  0.33923  1.0000
  C   C278      1.0  0.58792  0.92221  0.34457  1.0000
  C   C279      1.0  0.59347  0.94259  0.35010  1.0000
  C   C280      1.0  0.57834  0.95739  0.34997  1.0000
  C   C281      1.0  0.55785  0.95219  0.34374  1.0000
  C   C282      1.0  0.55271  0.93165  0.33906  1.0000
  H   H172      1.0  0.58235  0.97216  0.35500  1.0000
  H   H173      1.0  0.53794  0.92758  0.33442  1.0000
  H   H174      1.0  0.59880  0.91137  0.34454  1.0000
  C   C283      1.0  0.91665  0.44271  0.33959  1.0000
  C   C284      1.0  0.92224  0.42231  0.34388  1.0000
  C   C285      1.0  0.94263  0.41666  0.34727  1.0000
  C   C286      1.0  0.95751  0.43170  0.34562  1.0000
  C   C287      1.0  0.95220  0.45215  0.34153  1.0000
  C   C288      1.0  0.93176  0.45753  0.33915  1.0000
  H   H175      1.0  0.97233  0.42773  0.34747  1.0000
  H   H176      1.0  0.92785  0.47237  0.33638  1.0000
  H   H177      1.0  0.91136  0.41147  0.34449  1.0000
  C   C289      1.0  0.09348  0.56756  0.33925  1.0000
  C   C290      1.0  0.08785  0.58792  0.34459  1.0000
  C   C291      1.0  0.06747  0.59347  0.35012  1.0000
  C   C292      1.0  0.05267  0.57835  0.34999  1.0000
  C   C293      1.0  0.05787  0.55785  0.34376  1.0000
  C   C294      1.0  0.07841  0.55272  0.33908  1.0000
  H   H178      1.0  0.03790  0.58236  0.35500  1.0000
  H   H179      1.0  0.08247  0.53795  0.33446  1.0000
  H   H180      1.0  0.09869  0.59880  0.34456  1.0000
  C   C295      1.0  0.29258  0.03508  0.35621  1.0000
  C   C296      1.0  0.30125  0.04819  0.42060  1.0000
  C   C297      1.0  0.32205  0.05210  0.41742  1.0000
  C   C298      1.0  0.36739  0.04714  0.42899  1.0000
  C   C299      1.0  0.38762  0.05350  0.43057  1.0000
  H   H181      1.0  0.36125  0.04102  0.48594  1.0000
  H   H182      1.0  0.32792  0.06202  0.46297  1.0000
  N   N61       1.0  0.39800  0.05165  0.50915  1.0000
  H   H183      1.0  0.39176  0.04620  0.56312  1.0000
  H   H184      1.0  0.41167  0.05642  0.51540  1.0000
  N   N62       1.0  0.28911  0.05694  0.48836  1.0000
  O   O61       1.0  0.28951  0.07575  0.48480  1.0000
  O   O62       1.0  0.29451  0.05152  0.56567  1.0000
  C   C300      1.0  0.71753  0.97503  0.35733  1.0000
  C   C301      1.0  0.70892  0.96189  0.42170  1.0000
  C   C302      1.0  0.68811  0.95801  0.41889  1.0000
  C   C303      1.0  0.64280  0.96282  0.43158  1.0000
  C   C304      1.0  0.62259  0.95641  0.43343  1.0000
  H   H185      1.0  0.64900  0.96882  0.48867  1.0000
  H   H186      1.0  0.68228  0.94804  0.46437  1.0000
  N   N63       1.0  0.61231  0.95802  0.51239  1.0000
  H   H187      1.0  0.61861  0.96337  0.56643  1.0000
  H   H188      1.0  0.59867  0.95320  0.51878  1.0000
  N   N64       1.0  0.72111  0.95307  0.48909  1.0000
  O   O63       1.0  0.72069  0.93426  0.48528  1.0000
  O   O64       1.0  0.71579  0.95844  0.56659  1.0000
  C   C305      1.0  0.97499  0.29259  0.35621  1.0000
  C   C306      1.0  0.96189  0.30125  0.42062  1.0000
  C   C307      1.0  0.95798  0.32206  0.41744  1.0000
  C   C308      1.0  0.96292  0.36739  0.42901  1.0000
  C   C309      1.0  0.95657  0.38762  0.43060  1.0000
  H   H189      1.0  0.96905  0.36126  0.48596  1.0000
  H   H190      1.0  0.94806  0.32793  0.46300  1.0000
  N   N65       1.0  0.95841  0.39801  0.50917  1.0000
  H   H191      1.0  0.96386  0.39177  0.56314  1.0000
  H   H192      1.0  0.95364  0.41168  0.51541  1.0000
  N   N66       1.0  0.95314  0.28912  0.48838  1.0000
  O   O65       1.0  0.93433  0.28951  0.48483  1.0000
  O   O66       1.0  0.95856  0.29452  0.56569  1.0000
  C   C310      1.0  0.03505  0.71754  0.35731  1.0000
  C   C311      1.0  0.04819  0.70893  0.42169  1.0000
  C   C312      1.0  0.05206  0.68811  0.41889  1.0000
  C   C313      1.0  0.04724  0.64281  0.43157  1.0000
  C   C314      1.0  0.05365  0.62259  0.43343  1.0000
  H   H193      1.0  0.04124  0.64901  0.48866  1.0000
  H   H194      1.0  0.06202  0.68228  0.46437  1.0000
  N   N67       1.0  0.05204  0.61232  0.51240  1.0000
  H   H195      1.0  0.04668  0.61862  0.56643  1.0000
  H   H196      1.0  0.05686  0.59867  0.51879  1.0000
  N   N68       1.0  0.05700  0.72111  0.48909  1.0000
  O   O67       1.0  0.07581  0.72069  0.48530  1.0000
  O   O68       1.0  0.05162  0.71579  0.56658  1.0000
  C   C315      1.0  0.17546  0.54328  0.33389  1.0000
  C   C316      1.0  0.18394  0.52948  0.39644  1.0000
  C   C317      1.0  0.20487  0.52594  0.39405  1.0000
  H   H197      1.0  0.21104  0.51647  0.44073  1.0000
  C   C318      1.0  0.15484  0.54909  0.33503  1.0000
  C   C319      1.0  0.11405  0.56194  0.33568  1.0000
  C   C320      1.0  0.12598  0.56392  0.41447  1.0000
  C   C321      1.0  0.14626  0.55778  0.41256  1.0000
  H   H198      1.0  0.15480  0.55954  0.46929  1.0000
  N   N69       1.0  0.11741  0.57167  0.49465  1.0000
  N   N70       1.0  0.17276  0.51914  0.45745  1.0000
  H   H199      1.0  0.17885  0.50949  0.49830  1.0000
  H   H200      1.0  0.15824  0.51987  0.45802  1.0000
  O   O69       1.0  0.11788  0.55906  0.55745  1.0000
  O   O70       1.0  0.12613  0.58735  0.52014  1.0000
  C   C322      1.0  0.83465  0.46688  0.33521  1.0000
  C   C323      1.0  0.82613  0.48070  0.39759  1.0000
  C   C324      1.0  0.80519  0.48419  0.39509  1.0000
  H   H201      1.0  0.79900  0.49368  0.44165  1.0000
  C   C325      1.0  0.85530  0.46115  0.33628  1.0000
  C   C326      1.0  0.89611  0.44841  0.33655  1.0000
  C   C327      1.0  0.88426  0.44648  0.41559  1.0000
  C   C328      1.0  0.86397  0.45258  0.41388  1.0000
  H   H202      1.0  0.85547  0.45084  0.47076  1.0000
  N   N71       1.0  0.89293  0.43881  0.49570  1.0000
  N   N72       1.0  0.83729  0.49110  0.45851  1.0000
  H   H203      1.0  0.83117  0.50081  0.49899  1.0000
  H   H204      1.0  0.85181  0.49046  0.45887  1.0000
  O   O71       1.0  0.89252  0.45149  0.55825  1.0000
  O   O72       1.0  0.88425  0.42315  0.52170  1.0000
  C   C329      1.0  0.54328  0.83459  0.33389  1.0000
  C   C330      1.0  0.52948  0.82611  0.39644  1.0000
  C   C331      1.0  0.52594  0.80518  0.39406  1.0000
  H   H205      1.0  0.51647  0.79902  0.44074  1.0000
  C   C332      1.0  0.54909  0.85522  0.33502  1.0000
  C   C333      1.0  0.56193  0.89601  0.33566  1.0000
  C   C334      1.0  0.56392  0.88407  0.41445  1.0000
  C   C335      1.0  0.55778  0.86380  0.41255  1.0000
  H   H206      1.0  0.55954  0.85526  0.46928  1.0000
  N   N73       1.0  0.57167  0.89265  0.49463  1.0000
  N   N74       1.0  0.51914  0.83730  0.45744  1.0000
  H   H207      1.0  0.50949  0.83120  0.49830  1.0000
  H   H208      1.0  0.51987  0.85182  0.45800  1.0000
  O   O73       1.0  0.55905  0.89218  0.55743  1.0000
  O   O74       1.0  0.58735  0.88393  0.52012  1.0000
  C   C336      1.0  0.46687  0.17541  0.33522  1.0000
  C   C337      1.0  0.48069  0.18393  0.39761  1.0000
  C   C338      1.0  0.48418  0.20487  0.39510  1.0000
  H   H209      1.0  0.49367  0.21106  0.44165  1.0000
  C   C339      1.0  0.46115  0.15476  0.33630  1.0000
  C   C340      1.0  0.44840  0.11395  0.33656  1.0000
  C   C341      1.0  0.44647  0.12580  0.41559  1.0000
  C   C342      1.0  0.45257  0.14609  0.41390  1.0000
  H   H210      1.0  0.45083  0.15459  0.47078  1.0000
  N   N75       1.0  0.43881  0.11713  0.49570  1.0000
  N   N76       1.0  0.49109  0.17277  0.45853  1.0000
  H   H211      1.0  0.50079  0.17890  0.49901  1.0000
  H   H212      1.0  0.49045  0.15825  0.45890  1.0000
  O   O75       1.0  0.45148  0.11754  0.55825  1.0000
  O   O76       1.0  0.42314  0.12581  0.52170  1.0000
  C   C343      1.0  0.20468  0.10168  0.33389  1.0000
  C   C344      1.0  0.20029  0.08651  0.39886  1.0000
  C   C345      1.0  0.21065  0.06791  0.39513  1.0000
  H   H213      1.0  0.20804  0.05746  0.44428  1.0000
  C   C346      1.0  0.19656  0.12172  0.33638  1.0000
  C   C347      1.0  0.18260  0.16259  0.33766  1.0000
  C   C348      1.0  0.19143  0.15397  0.41579  1.0000
  C   C349      1.0  0.19847  0.13392  0.41365  1.0000
  H   H214      1.0  0.20524  0.12820  0.46991  1.0000
  N   N77       1.0  0.19292  0.16551  0.49568  1.0000
  N   N78       1.0  0.18618  0.08898  0.46414  1.0000
  H   H215      1.0  0.18311  0.07833  0.50677  1.0000
  H   H216      1.0  0.17758  0.10069  0.46597  1.0000
  O   O77       1.0  0.18318  0.15775  0.55914  1.0000
  O   O78       1.0  0.21081  0.16768  0.52009  1.0000
  C   C350      1.0  0.80537  0.90840  0.33387  1.0000
  C   C351      1.0  0.80978  0.92356  0.39883  1.0000
  C   C352      1.0  0.79943  0.94217  0.39517  1.0000
  H   H217      1.0  0.80206  0.95261  0.44432  1.0000
  C   C353      1.0  0.81348  0.88836  0.33632  1.0000
  C   C354      1.0  0.82745  0.84749  0.33761  1.0000
  C   C355      1.0  0.81863  0.85611  0.41576  1.0000
  C   C356      1.0  0.81159  0.87616  0.41361  1.0000
  H   H218      1.0  0.80484  0.88188  0.46991  1.0000
  N   N79       1.0  0.81716  0.84457  0.49566  1.0000
  N   N80       1.0  0.82389  0.92107  0.46408  1.0000
  H   H219      1.0  0.82703  0.93175  0.50647  1.0000
  H   H220      1.0  0.83254  0.90940  0.46564  1.0000
  O   O79       1.0  0.82691  0.85234  0.55908  1.0000
  O   O80       1.0  0.79927  0.84241  0.52013  1.0000
  C   C357      1.0  0.90841  0.20470  0.33386  1.0000
  C   C358      1.0  0.92357  0.20031  0.39884  1.0000
  C   C359      1.0  0.94217  0.21066  0.39512  1.0000
  H   H221      1.0  0.95262  0.20805  0.44428  1.0000
  C   C360      1.0  0.88836  0.19658  0.33636  1.0000
  C   C361      1.0  0.84749  0.18263  0.33764  1.0000
  C   C362      1.0  0.85611  0.19146  0.41576  1.0000
  C   C363      1.0  0.87616  0.19850  0.41361  1.0000
  H   H222      1.0  0.88187  0.20527  0.46989  1.0000
  N   N81       1.0  0.84456  0.19295  0.49564  1.0000
  N   N82       1.0  0.92109  0.18620  0.46413  1.0000
  H   H223      1.0  0.93174  0.18313  0.50677  1.0000
  H   H224      1.0  0.90939  0.17760  0.46596  1.0000
  O   O81       1.0  0.85233  0.18321  0.55911  1.0000
  O   O82       1.0  0.84240  0.21084  0.52005  1.0000
  C   C364      1.0  0.10168  0.80539  0.33389  1.0000
  C   C365      1.0  0.08652  0.80980  0.39885  1.0000
  C   C366      1.0  0.06791  0.79945  0.39520  1.0000
  H   H225      1.0  0.05746  0.80208  0.44433  1.0000
  C   C367      1.0  0.12172  0.81351  0.33634  1.0000
  C   C368      1.0  0.16259  0.82748  0.33764  1.0000
  C   C369      1.0  0.15397  0.81866  0.41579  1.0000
  C   C370      1.0  0.13392  0.81162  0.41365  1.0000
  H   H226      1.0  0.12820  0.80487  0.46995  1.0000
  N   N83       1.0  0.16550  0.81720  0.49570  1.0000
  N   N84       1.0  0.08900  0.82392  0.46407  1.0000
  H   H227      1.0  0.07832  0.82706  0.50644  1.0000
  H   H228      1.0  0.10067  0.83257  0.46561  1.0000
  O   O83       1.0  0.15773  0.82695  0.55911  1.0000
  O   O84       1.0  0.16767  0.79931  0.52019  1.0000
  C   C371      1.0  0.28508  0.56381  0.36005  1.0000
  C   C372      1.0  0.28141  0.57851  0.42728  1.0000
  C   C373      1.0  0.29146  0.59719  0.42362  1.0000
  C   C374      1.0  0.32227  0.63089  0.42976  1.0000
  C   C375      1.0  0.32912  0.65103  0.43128  1.0000
  H   H229      1.0  0.32362  0.62238  0.48685  1.0000
  H   H230      1.0  0.28791  0.60773  0.47113  1.0000
  N   N85       1.0  0.33675  0.65828  0.50989  1.0000
  H   H231      1.0  0.33752  0.64999  0.56373  1.0000
  H   H232      1.0  0.34101  0.67211  0.51622  1.0000
  N   N86       1.0  0.26769  0.57433  0.49771  1.0000
  O   O85       1.0  0.25338  0.58658  0.49885  1.0000
  O   O86       1.0  0.27614  0.57462  0.57328  1.0000
  C   C376      1.0  0.72500  0.44626  0.36045  1.0000
  C   C377      1.0  0.72865  0.43155  0.42767  1.0000
  C   C378      1.0  0.71860  0.41287  0.42392  1.0000
  C   C379      1.0  0.68780  0.37917  0.42984  1.0000
  C   C380      1.0  0.68093  0.35904  0.43131  1.0000
  H   H233      1.0  0.68644  0.38768  0.48694  1.0000
  H   H234      1.0  0.72214  0.40233  0.47144  1.0000
  N   N87       1.0  0.67329  0.35178  0.50989  1.0000
  H   H235      1.0  0.67250  0.36008  0.56371  1.0000
  H   H236      1.0  0.66900  0.33796  0.51617  1.0000
  N   N88       1.0  0.74234  0.43573  0.49822  1.0000
  O   O87       1.0  0.75664  0.42348  0.49948  1.0000
  O   O88       1.0  0.73385  0.43544  0.57371  1.0000
  C   C381      1.0  0.56380  0.72496  0.36008  1.0000
  C   C382      1.0  0.57850  0.72864  0.42729  1.0000
  C   C383      1.0  0.59718  0.71859  0.42362  1.0000
  C   C384      1.0  0.63088  0.68779  0.42974  1.0000
  C   C385      1.0  0.65102  0.68093  0.43126  1.0000
  H   H237      1.0  0.62238  0.68643  0.48682  1.0000
  H   H238      1.0  0.60772  0.72215  0.47114  1.0000
  N   N89       1.0  0.65828  0.67330  0.50986  1.0000
  H   H239      1.0  0.64998  0.67253  0.56369  1.0000
  H   H240      1.0  0.67211  0.66904  0.51620  1.0000
  N   N90       1.0  0.57432  0.74236  0.49773  1.0000
  O   O89       1.0  0.58657  0.75666  0.49888  1.0000
  O   O90       1.0  0.57461  0.73390  0.57329  1.0000
  C   C386      1.0  0.44626  0.28507  0.36042  1.0000
  C   C387      1.0  0.43155  0.28142  0.42765  1.0000
  C   C388      1.0  0.41287  0.29147  0.42391  1.0000
  C   C389      1.0  0.37917  0.32226  0.42984  1.0000
  C   C390      1.0  0.35904  0.32913  0.43132  1.0000
  H   H241      1.0  0.38767  0.32362  0.48693  1.0000
  H   H242      1.0  0.40233  0.28793  0.47144  1.0000
  N   N91       1.0  0.35178  0.33677  0.50990  1.0000
  H   H243      1.0  0.36008  0.33756  0.56371  1.0000
  H   H244      1.0  0.33796  0.34106  0.51618  1.0000
  N   N92       1.0  0.43574  0.26773  0.49821  1.0000
  O   O91       1.0  0.42349  0.25343  0.49949  1.0000
  O   O92       1.0  0.43545  0.27622  0.57370  1.0000
  C   C391      1.0  0.21233  0.88298  0.34380  1.0000
  C   C392      1.0  0.20327  0.89645  0.40582  1.0000
  C   C393      1.0  0.20811  0.91714  0.40327  1.0000
  C   C394      1.0  0.23209  0.95611  0.42442  1.0000
  C   C395      1.0  0.23653  0.97689  0.42873  1.0000
  H   H245      1.0  0.23379  0.94757  0.48123  1.0000
  H   H246      1.0  0.20115  0.92648  0.44820  1.0000
  N   N93       1.0  0.24227  0.98466  0.50958  1.0000
  H   H247      1.0  0.24309  0.97635  0.56334  1.0000
  H   H248      1.0  0.24469  0.99889  0.51770  1.0000
  N   N94       1.0  0.18999  0.88898  0.47230  1.0000
  O   O93       1.0  0.17294  0.89686  0.46629  1.0000
  O   O94       1.0  0.19664  0.89186  0.55042  1.0000
  C   C396      1.0  0.79777  0.12712  0.34384  1.0000
  C   C397      1.0  0.80683  0.11366  0.40588  1.0000
  C   C398      1.0  0.80200  0.09296  0.40337  1.0000
  C   C399      1.0  0.77804  0.05400  0.42466  1.0000
  C   C400      1.0  0.77361  0.03321  0.42905  1.0000
  H   H249      1.0  0.77637  0.06254  0.48147  1.0000
  H   H250      1.0  0.80896  0.08363  0.44831  1.0000
  N   N95       1.0  0.76791  0.02544  0.50997  1.0000
  H   H251      1.0  0.76707  0.03377  0.56368  1.0000
  H   H252      1.0  0.76546  0.01122  0.51813  1.0000
  N   N96       1.0  0.82010  0.12114  0.47236  1.0000
  O   O95       1.0  0.83715  0.11326  0.46636  1.0000
  O   O96       1.0  0.81346  0.11826  0.55048  1.0000
  C   C401      1.0  0.12710  0.21232  0.34380  1.0000
  C   C402      1.0  0.11363  0.20326  0.40582  1.0000
  C   C403      1.0  0.09293  0.20811  0.40326  1.0000
  C   C404      1.0  0.05397  0.23209  0.42441  1.0000
  C   C405      1.0  0.03319  0.23654  0.42873  1.0000
  H   H253      1.0  0.06251  0.23379  0.48122  1.0000
  H   H254      1.0  0.08360  0.20114  0.44818  1.0000
  N   N97       1.0  0.02542  0.24228  0.50958  1.0000
  H   H255      1.0  0.03373  0.24310  0.56334  1.0000
  H   H256      1.0  0.01119  0.24471  0.51770  1.0000
  N   N98       1.0  0.12110  0.18999  0.47229  1.0000
  O   O97       1.0  0.11322  0.17294  0.46627  1.0000
  O   O98       1.0  0.11821  0.19663  0.55040  1.0000
  C   C406      1.0  0.88296  0.79776  0.34385  1.0000
  C   C407      1.0  0.89641  0.80683  0.40590  1.0000
  C   C408      1.0  0.91711  0.80199  0.40338  1.0000
  C   C409      1.0  0.95608  0.77804  0.42467  1.0000
  C   C410      1.0  0.97687  0.77362  0.42906  1.0000
  H   H257      1.0  0.94754  0.77637  0.48149  1.0000
  H   H258      1.0  0.92644  0.80896  0.44833  1.0000
  N   N99       1.0  0.98464  0.76793  0.50997  1.0000
  H   H259      1.0  0.97631  0.76708  0.56368  1.0000
  H   H260      1.0  0.99886  0.76548  0.51814  1.0000
  N   N100      1.0  0.88894  0.82010  0.47237  1.0000
  O   O99       1.0  0.89681  0.83715  0.46638  1.0000
  O   O100      1.0  0.89182  0.81345  0.55048  1.0000
  C   C411      1.0  0.28813  0.42555  0.34545  1.0000
  C   C412      1.0  0.27834  0.41201  0.40550  1.0000
  C   C413      1.0  0.28353  0.39136  0.40380  1.0000
  H   H261      1.0  0.27661  0.38187  0.44822  1.0000
  C   C414      1.0  0.28424  0.44683  0.34296  1.0000
  C   C415      1.0  0.27538  0.48912  0.33786  1.0000
  C   C416      1.0  0.28179  0.47980  0.41906  1.0000
  C   C417      1.0  0.28643  0.45904  0.42004  1.0000
  H   H262      1.0  0.29097  0.45263  0.47926  1.0000
  N   N101      1.0  0.28274  0.49127  0.49929  1.0000
  N   N102      1.0  0.26353  0.41789  0.46281  1.0000
  H   H263      1.0  0.25671  0.40833  0.50169  1.0000
  H   H264      1.0  0.25820  0.43141  0.46230  1.0000
  O   O101      1.0  0.27088  0.48473  0.55808  1.0000
  O   O102      1.0  0.30014  0.49149  0.53148  1.0000
  C   C418      1.0  0.72194  0.58452  0.34558  1.0000
  C   C419      1.0  0.73173  0.59806  0.40563  1.0000
  C   C420      1.0  0.72653  0.61871  0.40390  1.0000
  H   H265      1.0  0.73345  0.62820  0.44833  1.0000
  C   C421      1.0  0.72583  0.56324  0.34314  1.0000
  C   C422      1.0  0.73469  0.52094  0.33818  1.0000
  C   C423      1.0  0.72829  0.53028  0.41936  1.0000
  C   C424      1.0  0.72365  0.55104  0.42028  1.0000
  H   H266      1.0  0.71910  0.55746  0.47948  1.0000
  N   N103      1.0  0.72734  0.51883  0.49963  1.0000
  N   N104      1.0  0.74653  0.59218  0.46297  1.0000
  H   H267      1.0  0.75339  0.60177  0.50160  1.0000
  H   H268      1.0  0.75191  0.57869  0.46223  1.0000
  O   O103      1.0  0.73921  0.52538  0.55839  1.0000
  O   O104      1.0  0.70994  0.51862  0.53183  1.0000
  C   C425      1.0  0.42554  0.72194  0.34549  1.0000
  C   C426      1.0  0.41201  0.73173  0.40553  1.0000
  C   C427      1.0  0.39135  0.72654  0.40384  1.0000
  H   H269      1.0  0.38187  0.73346  0.44825  1.0000
  C   C428      1.0  0.44682  0.72583  0.34298  1.0000
  C   C429      1.0  0.48912  0.73469  0.33788  1.0000
  C   C430      1.0  0.47979  0.72828  0.41908  1.0000
  C   C431      1.0  0.45903  0.72363  0.42007  1.0000
  H   H270      1.0  0.45263  0.71909  0.47929  1.0000
  N   N105      1.0  0.49126  0.72732  0.49931  1.0000
  N   N106      1.0  0.41789  0.74654  0.46284  1.0000
  H   H271      1.0  0.40832  0.75336  0.50172  1.0000
  H   H272      1.0  0.43140  0.75187  0.46234  1.0000
  O   O105      1.0  0.48472  0.73918  0.55811  1.0000
  O   O106      1.0  0.49148  0.70992  0.53149  1.0000
  C   C432      1.0  0.58451  0.28812  0.34555  1.0000
  C   C433      1.0  0.59805  0.27834  0.40561  1.0000
  C   C434      1.0  0.61870  0.28353  0.40388  1.0000
  H   H273      1.0  0.62820  0.27662  0.44830  1.0000
  C   C435      1.0  0.56323  0.28423  0.34312  1.0000
  C   C436      1.0  0.52094  0.27536  0.33817  1.0000
  C   C437      1.0  0.53028  0.28177  0.41935  1.0000
  C   C438      1.0  0.55104  0.28642  0.42027  1.0000
  H   H274      1.0  0.55745  0.29096  0.47945  1.0000
  N   N107      1.0  0.51882  0.28272  0.49962  1.0000
  N   N108      1.0  0.59218  0.26353  0.46295  1.0000
  H   H275      1.0  0.60176  0.25668  0.50158  1.0000
  H   H276      1.0  0.57868  0.25816  0.46221  1.0000
  O   O107      1.0  0.52537  0.27086  0.55839  1.0000
  O   O108      1.0  0.51861  0.30013  0.53180  1.0000
  C   C439      1.0  0.22753  0.26751  0.34423  1.0000
  C   C440      1.0  0.21116  0.26724  0.40609  1.0000
  C   C441      1.0  0.19726  0.25111  0.40342  1.0000
  H   H277      1.0  0.18579  0.25093  0.44925  1.0000
  C   C442      1.0  0.24299  0.28264  0.34405  1.0000
  C   C443      1.0  0.27454  0.31218  0.34250  1.0000
  C   C444      1.0  0.27004  0.30120  0.42216  1.0000
  C   C445      1.0  0.25461  0.28658  0.42153  1.0000
  H   H278      1.0  0.25184  0.27867  0.47927  1.0000
  N   N109      1.0  0.28093  0.30521  0.50214  1.0000
  N   N110      1.0  0.20783  0.28225  0.46638  1.0000
  H   H279      1.0  0.19632  0.28202  0.50663  1.0000
  H   H280      1.0  0.21585  0.29437  0.46689  1.0000
  O   O109      1.0  0.26967  0.31139  0.56402  1.0000
  O   O110      1.0  0.29016  0.28997  0.52947  1.0000
  C   C446      1.0  0.78253  0.74256  0.34419  1.0000
  C   C447      1.0  0.79889  0.74284  0.40607  1.0000
  C   C448      1.0  0.81280  0.75897  0.40339  1.0000
  H   H281      1.0  0.82426  0.75916  0.44925  1.0000
  C   C449      1.0  0.76707  0.72743  0.34401  1.0000
  C   C450      1.0  0.73553  0.69789  0.34250  1.0000
  C   C451      1.0  0.74003  0.70886  0.42216  1.0000
  C   C452      1.0  0.75546  0.72348  0.42152  1.0000
  H   H282      1.0  0.75824  0.73139  0.47927  1.0000
  N   N111      1.0  0.72915  0.70485  0.50217  1.0000
  N   N112      1.0  0.80221  0.72783  0.46638  1.0000
  H   H283      1.0  0.81377  0.72804  0.50640  1.0000
  H   H284      1.0  0.79424  0.71569  0.46665  1.0000
  O   O111      1.0  0.74041  0.69866  0.56401  1.0000
  O   O112      1.0  0.71993  0.72009  0.52955  1.0000
  C   C453      1.0  0.74255  0.22754  0.34421  1.0000
  C   C454      1.0  0.74284  0.21117  0.40608  1.0000
  C   C455      1.0  0.75896  0.19727  0.40340  1.0000
  H   H285      1.0  0.75915  0.18580  0.44924  1.0000
  C   C456      1.0  0.72742  0.24300  0.34404  1.0000
  C   C457      1.0  0.69789  0.27454  0.34249  1.0000
  C   C458      1.0  0.70886  0.27005  0.42215  1.0000
  C   C459      1.0  0.72348  0.25462  0.42152  1.0000
  H   H286      1.0  0.73139  0.25184  0.47925  1.0000
  N   N113      1.0  0.70486  0.28094  0.50213  1.0000
  N   N114      1.0  0.72782  0.20784  0.46637  1.0000
  H   H287      1.0  0.72806  0.19633  0.50663  1.0000
  H   H288      1.0  0.71571  0.21586  0.46688  1.0000
  O   O113      1.0  0.69868  0.26968  0.56402  1.0000
  O   O114      1.0  0.72010  0.29016  0.52947  1.0000
  C   C460      1.0  0.26751  0.78254  0.34420  1.0000
  C   C461      1.0  0.26723  0.79890  0.40608  1.0000
  C   C462      1.0  0.25111  0.81281  0.40341  1.0000
  H   H289      1.0  0.25092  0.82427  0.44927  1.0000
  C   C463      1.0  0.28264  0.76708  0.34402  1.0000
  C   C464      1.0  0.31217  0.73553  0.34249  1.0000
  C   C465      1.0  0.30121  0.74004  0.42217  1.0000
  C   C466      1.0  0.28658  0.75547  0.42153  1.0000
  H   H290      1.0  0.27868  0.75825  0.47927  1.0000
  N   N115      1.0  0.30522  0.72915  0.50217  1.0000
  N   N116      1.0  0.28224  0.80222  0.46639  1.0000
  H   H291      1.0  0.28204  0.81378  0.50641  1.0000
  H   H292      1.0  0.29439  0.79425  0.46665  1.0000
  O   O115      1.0  0.31140  0.74042  0.56401  1.0000
  O   O116      1.0  0.28998  0.71993  0.52955  1.0000
  C   C467      1.0  0.51131  0.99643  0.34531  1.0000
  C   C468      1.0  0.51079  0.98007  0.40683  1.0000
  C   C469      1.0  0.52665  0.96599  0.40520  1.0000
  H   H293      1.0  0.52642  0.95437  0.45026  1.0000
  C   C470      1.0  0.49648  0.01183  0.34391  1.0000
  C   C471      1.0  0.46713  0.04275  0.34053  1.0000
  C   C472      1.0  0.47819  0.03896  0.42050  1.0000
  C   C473      1.0  0.49291  0.02374  0.42066  1.0000
  H   H294      1.0  0.50094  0.02120  0.47830  1.0000
  N   N117      1.0  0.47414  0.05018  0.49956  1.0000
  N   N118      1.0  0.49541  0.97692  0.46544  1.0000
  H   H295      1.0  0.49523  0.96535  0.50539  1.0000
  H   H296      1.0  0.48348  0.98521  0.46526  1.0000
  O   O117      1.0  0.46814  0.03914  0.56258  1.0000
  O   O118      1.0  0.48931  0.05969  0.52572  1.0000
  C   C474      1.0  0.01362  0.51131  0.34530  1.0000
  C   C475      1.0  0.02999  0.51079  0.40684  1.0000
  C   C476      1.0  0.04406  0.52665  0.40521  1.0000
  H   H297      1.0  0.05568  0.52643  0.45030  1.0000
  C   C477      1.0  0.99823  0.49649  0.34390  1.0000
  C   C478      1.0  0.96731  0.46713  0.34053  1.0000
  C   C479      1.0  0.97110  0.47818  0.42051  1.0000
  C   C480      1.0  0.98633  0.49290  0.42068  1.0000
  H   H298      1.0  0.98888  0.50092  0.47832  1.0000
  N   N119      1.0  0.95990  0.47413  0.49960  1.0000
  N   N120      1.0  0.03313  0.49541  0.46545  1.0000
  H   H299      1.0  0.04474  0.49522  0.50518  1.0000
  H   H300      1.0  0.02488  0.48345  0.46502  1.0000
  O   O119      1.0  0.97094  0.46812  0.56258  1.0000
  O   O120      1.0  0.95039  0.48929  0.52581  1.0000
