data_image0
_chemical_formula_structural       C3HNO2CHC3HNO2CHC3HNO2CHC3HNO2CHC3HNO2CHC3HNO2CHC3HNO2CHC3HNO2CHC3HNO2CHC3HNO2CHC3HNO2CHC3HNO2CHC3HNO2CHC3HNO2CHC3HNO2CHC3HNO2CHC3HNO2CHC3HNO2CHC3HNO2CHC3HNO2CHC3HNO2CHC3HNO2CHC3HNO2CHC3HNO2CHC3HNO2CHC3HNO2CHC3HNO2CHC3HNO2CHC3HNO2CHC3HNO2CHC6H3N3C6H3N3C6H3N3C6H3N3C6H3N3C6H3N3C6H3N3C6H3N3C6H3N3C6H3N3C6H3N3C6H3N3C6H3N3C6H3N3C6H3N3C6H3N3C6H3N3C6H3N3C6H3N3C6H3N3C3HNO2CHC3HNO2CHC3HNO2CHC3HNO2CHC3HNO2CHC3HNO2CHC3HNO2CHC3HNO2CHC3HNO2CHC3HNO2CHC3HNO2CHC3HNO2CHC3HNO2CHC3HNO2CHC3HNO2CHC3HNO2CHC3HNO2CHC3HNO2CHC3HNO2CHC3HNO2CHC3HNO2CHC3HNO2CHC3HNO2CHC3HNO2CHC3HNO2CHC3HNO2CHC3HNO2CHC3HNO2CHC3HNO2CHC3HNO2CH
_chemical_formula_sum              "C360 H180 N120 O120"
_cell_length_a       67.4255
_cell_length_b       67.4255
_cell_length_c       14.6498
_cell_angle_alpha    90
_cell_angle_beta     90
_cell_angle_gamma    90

_space_group_name_H-M_alt    "P 1"
_space_group_IT_number       1

loop_
  _space_group_symop_operation_xyz
  'x, y, z'

loop_
  _atom_site_type_symbol
  _atom_site_label
  _atom_site_symmetry_multiplicity
  _atom_site_fract_x
  _atom_site_fract_y
  _atom_site_fract_z
  _atom_site_occupancy
  C   C1        1.0  0.37085  0.06473  0.34756  1.0000
  C   C2        1.0  0.35809  0.06016  0.27305  1.0000
  C   C3        1.0  0.33813  0.05455  0.28974  1.0000
  H   H1        1.0  0.32897  0.05213  0.23509  1.0000
  N   N1        1.0  0.36537  0.06164  0.18243  1.0000
  O   O1        1.0  0.36449  0.04528  0.14154  1.0000
  O   O2        1.0  0.35602  0.07435  0.13682  1.0000
  C   C4        1.0  0.38946  0.07306  0.33098  1.0000
  H   H2        1.0  0.39013  0.08470  0.28929  1.0000
  C   C5        1.0  0.65316  0.95900  0.34971  1.0000
  C   C6        1.0  0.66589  0.96367  0.27521  1.0000
  C   C7        1.0  0.68583  0.96932  0.29187  1.0000
  H   H3        1.0  0.69497  0.97181  0.23720  1.0000
  N   N2        1.0  0.65857  0.96227  0.18461  1.0000
  O   O3        1.0  0.65940  0.97867  0.14408  1.0000
  O   O4        1.0  0.66794  0.94963  0.13865  1.0000
  C   C8        1.0  0.63458  0.95062  0.33302  1.0000
  H   H4        1.0  0.63396  0.93898  0.29133  1.0000
  C   C9        1.0  0.95917  0.37080  0.34746  1.0000
  C   C10       1.0  0.96374  0.35805  0.27295  1.0000
  C   C11       1.0  0.96935  0.33809  0.28963  1.0000
  H   H5        1.0  0.97179  0.32893  0.23498  1.0000
  N   N3        1.0  0.96227  0.36534  0.18234  1.0000
  O   O5        1.0  0.97863  0.36445  0.14144  1.0000
  O   O6        1.0  0.94955  0.35598  0.13672  1.0000
  C   C12       1.0  0.95084  0.38941  0.33094  1.0000
  H   H6        1.0  0.93920  0.39009  0.28925  1.0000
  C   C13       1.0  0.06492  0.65312  0.34971  1.0000
  C   C14       1.0  0.06023  0.66585  0.27522  1.0000
  C   C15       1.0  0.05459  0.68579  0.29191  1.0000
  H   H7        1.0  0.05207  0.69493  0.23726  1.0000
  N   N4        1.0  0.06162  0.65853  0.18461  1.0000
  O   O7        1.0  0.04521  0.65936  0.14412  1.0000
  O   O8        1.0  0.07426  0.66791  0.13861  1.0000
  C   C16       1.0  0.07328  0.63454  0.33299  1.0000
  H   H8        1.0  0.08491  0.63391  0.29124  1.0000
  C   C17       1.0  0.19321  0.55358  0.33600  1.0000
  C   C18       1.0  0.18061  0.55855  0.26238  1.0000
  C   C19       1.0  0.15974  0.55984  0.27266  1.0000
  H   H9        1.0  0.18663  0.56112  0.19921  1.0000
  N   N5        1.0  0.14750  0.56426  0.19663  1.0000
  O   O9        1.0  0.15148  0.58100  0.16361  1.0000
  O   O10       1.0  0.14915  0.55144  0.13483  1.0000
  C   C20       1.0  0.21370  0.55334  0.32366  1.0000
  H   H10       1.0  0.21954  0.56338  0.28165  1.0000
  C   C21       1.0  0.83077  0.47022  0.33868  1.0000
  C   C22       1.0  0.84344  0.46525  0.26536  1.0000
  C   C23       1.0  0.86430  0.46396  0.27612  1.0000
  H   H11       1.0  0.83749  0.46270  0.20204  1.0000
  N   N6        1.0  0.87662  0.45955  0.20032  1.0000
  O   O11       1.0  0.87268  0.44282  0.16715  1.0000
  O   O12       1.0  0.87503  0.47238  0.13853  1.0000
  C   C24       1.0  0.81029  0.47048  0.32584  1.0000
  H   H12       1.0  0.80450  0.46044  0.28372  1.0000
  C   C25       1.0  0.55362  0.83070  0.33604  1.0000
  C   C26       1.0  0.55859  0.84329  0.26243  1.0000
  C   C27       1.0  0.55987  0.86416  0.27271  1.0000
  H   H13       1.0  0.56115  0.83727  0.19925  1.0000
  N   N7        1.0  0.56429  0.87640  0.19668  1.0000
  O   O13       1.0  0.58103  0.87243  0.16364  1.0000
  O   O14       1.0  0.55147  0.87475  0.13489  1.0000
  C   C28       1.0  0.55339  0.81020  0.32370  1.0000
  H   H14       1.0  0.56343  0.80437  0.28173  1.0000
  C   C29       1.0  0.47028  0.19312  0.33864  1.0000
  C   C30       1.0  0.46530  0.18045  0.26533  1.0000
  C   C31       1.0  0.46401  0.15959  0.27609  1.0000
  H   H15       1.0  0.46275  0.18640  0.20201  1.0000
  N   N8        1.0  0.45959  0.14727  0.20031  1.0000
  O   O15       1.0  0.44286  0.15122  0.16715  1.0000
  O   O16       1.0  0.47242  0.14886  0.13850  1.0000
  C   C32       1.0  0.47054  0.21360  0.32581  1.0000
  H   H16       1.0  0.46051  0.21940  0.28365  1.0000
  C   C33       1.0  0.22229  0.10215  0.33966  1.0000
  C   C34       1.0  0.21911  0.11554  0.26671  1.0000
  C   C35       1.0  0.20788  0.13324  0.27675  1.0000
  H   H17       1.0  0.22506  0.11241  0.20394  1.0000
  N   N9        1.0  0.20470  0.14591  0.20094  1.0000
  O   O17       1.0  0.22077  0.15252  0.16992  1.0000
  O   O18       1.0  0.19560  0.13719  0.13775  1.0000
  C   C36       1.0  0.23496  0.08584  0.32770  1.0000
  H   H18       1.0  0.24647  0.08790  0.28616  1.0000
  C   C37       1.0  0.80169  0.92170  0.34036  1.0000
  C   C38       1.0  0.80484  0.90832  0.26734  1.0000
  C   C39       1.0  0.81607  0.89062  0.27724  1.0000
  H   H19       1.0  0.79887  0.91146  0.20463  1.0000
  N   N10       1.0  0.81922  0.87795  0.20138  1.0000
  O   O19       1.0  0.80313  0.87135  0.17045  1.0000
  O   O20       1.0  0.82830  0.88668  0.13816  1.0000
  C   C40       1.0  0.78902  0.93801  0.32854  1.0000
  H   H20       1.0  0.77749  0.93595  0.28712  1.0000
  C   C41       1.0  0.92174  0.22224  0.33978  1.0000
  C   C42       1.0  0.90834  0.21908  0.26683  1.0000
  C   C43       1.0  0.89065  0.20786  0.27685  1.0000
  H   H21       1.0  0.91148  0.22504  0.20407  1.0000
  N   N11       1.0  0.87796  0.20468  0.20104  1.0000
  O   O21       1.0  0.87136  0.22076  0.17006  1.0000
  O   O22       1.0  0.88669  0.19559  0.13783  1.0000
  C   C44       1.0  0.93804  0.23493  0.32782  1.0000
  H   H22       1.0  0.93596  0.24645  0.28634  1.0000
  C   C45       1.0  0.10219  0.80164  0.34032  1.0000
  C   C46       1.0  0.11557  0.80478  0.26731  1.0000
  C   C47       1.0  0.13327  0.81602  0.27722  1.0000
  H   H23       1.0  0.11244  0.79880  0.20460  1.0000
  N   N12       1.0  0.14595  0.81917  0.20137  1.0000
  O   O23       1.0  0.15255  0.80308  0.17050  1.0000
  O   O24       1.0  0.13721  0.82824  0.13811  1.0000
  C   C48       1.0  0.08588  0.78896  0.32849  1.0000
  H   H24       1.0  0.08793  0.77744  0.28705  1.0000
  C   C49       1.0  0.32446  0.63850  0.35118  1.0000
  C   C50       1.0  0.32115  0.62532  0.27658  1.0000
  C   C51       1.0  0.30994  0.60763  0.28901  1.0000
  H   H25       1.0  0.30735  0.59868  0.23379  1.0000
  N   N13       1.0  0.32869  0.63035  0.18922  1.0000
  O   O25       1.0  0.31499  0.63265  0.13201  1.0000
  O   O26       1.0  0.34046  0.61739  0.15983  1.0000
  C   C52       1.0  0.33670  0.65523  0.34053  1.0000
  H   H26       1.0  0.35010  0.65317  0.31385  1.0000
  C   C53       1.0  0.69946  0.38538  0.35152  1.0000
  C   C54       1.0  0.70276  0.39857  0.27698  1.0000
  C   C55       1.0  0.71398  0.41625  0.28951  1.0000
  H   H27       1.0  0.71657  0.42521  0.23434  1.0000
  N   N14       1.0  0.69522  0.39356  0.18960  1.0000
  O   O27       1.0  0.70893  0.39127  0.13238  1.0000
  O   O28       1.0  0.68346  0.40653  0.16029  1.0000
  C   C56       1.0  0.68721  0.36865  0.34079  1.0000
  H   H28       1.0  0.67382  0.37071  0.31406  1.0000
  C   C57       1.0  0.63852  0.69941  0.35108  1.0000
  C   C58       1.0  0.62534  0.70271  0.27648  1.0000
  C   C59       1.0  0.60766  0.71393  0.28889  1.0000
  H   H29       1.0  0.59870  0.71650  0.23368  1.0000
  N   N15       1.0  0.63036  0.69514  0.18915  1.0000
  O   O29       1.0  0.63267  0.70883  0.13188  1.0000
  O   O30       1.0  0.61739  0.68338  0.15984  1.0000
  C   C60       1.0  0.65525  0.68716  0.34045  1.0000
  H   H30       1.0  0.65319  0.67376  0.31389  1.0000
  C   C61       1.0  0.38543  0.32442  0.35158  1.0000
  C   C62       1.0  0.39863  0.32112  0.27706  1.0000
  C   C63       1.0  0.41631  0.30990  0.28961  1.0000
  H   H31       1.0  0.42529  0.30733  0.23447  1.0000
  N   N16       1.0  0.39364  0.32867  0.18969  1.0000
  O   O31       1.0  0.39135  0.31498  0.13242  1.0000
  O   O32       1.0  0.40662  0.34044  0.16044  1.0000
  C   C64       1.0  0.36870  0.33666  0.34082  1.0000
  H   H32       1.0  0.37076  0.35004  0.31400  1.0000
  C   C65       1.0  0.22995  0.92074  0.35178  1.0000
  C   C66       1.0  0.23188  0.93368  0.27524  1.0000
  C   C67       1.0  0.23617  0.95418  0.28802  1.0000
  H   H33       1.0  0.23842  0.96290  0.23169  1.0000
  N   N17       1.0  0.23001  0.92573  0.18601  1.0000
  O   O33       1.0  0.21603  0.93372  0.14287  1.0000
  O   O34       1.0  0.24572  0.92770  0.14075  1.0000
  C   C68       1.0  0.22930  0.90006  0.33871  1.0000
  H   H34       1.0  0.24008  0.89416  0.30110  1.0000
  C   C69       1.0  0.79402  0.10310  0.35217  1.0000
  C   C70       1.0  0.79213  0.09013  0.27571  1.0000
  C   C71       1.0  0.78783  0.06964  0.28858  1.0000
  H   H35       1.0  0.78560  0.06090  0.23232  1.0000
  N   N18       1.0  0.79402  0.09806  0.18644  1.0000
  O   O35       1.0  0.80802  0.09006  0.14345  1.0000
  O   O36       1.0  0.77832  0.09606  0.14108  1.0000
  C   C72       1.0  0.79467  0.12378  0.33895  1.0000
  H   H36       1.0  0.78389  0.12966  0.30130  1.0000
  C   C73       1.0  0.10317  0.22991  0.35157  1.0000
  C   C74       1.0  0.09023  0.23181  0.27502  1.0000
  C   C75       1.0  0.06974  0.23611  0.28777  1.0000
  H   H37       1.0  0.06101  0.23834  0.23146  1.0000
  N   N19       1.0  0.09820  0.22995  0.18580  1.0000
  O   O37       1.0  0.09021  0.21596  0.14268  1.0000
  O   O38       1.0  0.09622  0.24565  0.14052  1.0000
  C   C76       1.0  0.12386  0.22926  0.33858  1.0000
  H   H38       1.0  0.12976  0.24005  0.30105  1.0000
  C   C77       1.0  0.92081  0.79395  0.35208  1.0000
  C   C78       1.0  0.93378  0.79204  0.27564  1.0000
  C   C79       1.0  0.95426  0.78774  0.28860  1.0000
  H   H39       1.0  0.96302  0.78553  0.23238  1.0000
  N   N20       1.0  0.92586  0.79394  0.18634  1.0000
  O   O39       1.0  0.93388  0.80793  0.14339  1.0000
  O   O40       1.0  0.92787  0.77824  0.14099  1.0000
  C   C80       1.0  0.90012  0.79463  0.33880  1.0000
  H   H40       1.0  0.89423  0.78389  0.30094  1.0000
  C   C81       1.0  0.28483  0.46272  0.33800  1.0000
  C   C82       1.0  0.28720  0.44973  0.26292  1.0000
  C   C83       1.0  0.29168  0.42924  0.27368  1.0000
  H   H41       1.0  0.28479  0.45503  0.19827  1.0000
  N   N21       1.0  0.29295  0.41664  0.19643  1.0000
  O   O41       1.0  0.27693  0.41619  0.15261  1.0000
  O   O42       1.0  0.30657  0.42204  0.14341  1.0000
  C   C84       1.0  0.27679  0.48174  0.32460  1.0000
  H   H42       1.0  0.26582  0.48274  0.27927  1.0000
  C   C85       1.0  0.73916  0.56112  0.33867  1.0000
  C   C86       1.0  0.73683  0.57410  0.26347  1.0000
  C   C87       1.0  0.73236  0.59459  0.27410  1.0000
  H   H43       1.0  0.73930  0.56879  0.19889  1.0000
  N   N22       1.0  0.73115  0.60717  0.19679  1.0000
  O   O43       1.0  0.74721  0.60761  0.15322  1.0000
  O   O44       1.0  0.71757  0.60178  0.14356  1.0000
  C   C88       1.0  0.74721  0.54210  0.32539  1.0000
  H   H44       1.0  0.75820  0.54109  0.28021  1.0000
  C   C89       1.0  0.46276  0.73906  0.33809  1.0000
  C   C90       1.0  0.44976  0.73673  0.26298  1.0000
  C   C91       1.0  0.42927  0.73229  0.27373  1.0000
  H   H45       1.0  0.45505  0.73918  0.19835  1.0000
  N   N23       1.0  0.41667  0.73107  0.19647  1.0000
  O   O45       1.0  0.41624  0.74711  0.15280  1.0000
  O   O46       1.0  0.42204  0.71746  0.14332  1.0000
  C   C92       1.0  0.48178  0.74711  0.32462  1.0000
  H   H46       1.0  0.48277  0.75809  0.27934  1.0000
  C   C93       1.0  0.56118  0.28474  0.33867  1.0000
  C   C94       1.0  0.57416  0.28709  0.26352  1.0000
  C   C95       1.0  0.59465  0.29156  0.27422  1.0000
  H   H47       1.0  0.56886  0.28466  0.19890  1.0000
  N   N24       1.0  0.60725  0.29282  0.19694  1.0000
  O   O47       1.0  0.60769  0.27679  0.15319  1.0000
  O   O48       1.0  0.60185  0.30644  0.14387  1.0000
  C   C96       1.0  0.54215  0.27671  0.32533  1.0000
  H   H48       1.0  0.54113  0.26575  0.27999  1.0000
  C   C97       1.0  0.22991  0.26384  0.33829  1.0000
  C   C98       1.0  0.24035  0.27253  0.26468  1.0000
  C   C99       1.0  0.25518  0.28724  0.27765  1.0000
  H   H49       1.0  0.23773  0.26754  0.19969  1.0000
  N   N25       1.0  0.26593  0.29478  0.20203  1.0000
  O   O49       1.0  0.25467  0.30330  0.14602  1.0000
  O   O50       1.0  0.27526  0.28133  0.16102  1.0000
  C   C100      1.0  0.21774  0.24725  0.32324  1.0000
  H   H50       1.0  0.22188  0.23790  0.27419  1.0000
  C   C101      1.0  0.79413  0.75996  0.33851  1.0000
  C   C102      1.0  0.78403  0.75096  0.26469  1.0000
  C   C103      1.0  0.76915  0.73629  0.27759  1.0000
  H   H51       1.0  0.78691  0.75571  0.19956  1.0000
  N   N26       1.0  0.75873  0.72843  0.20167  1.0000
  O   O51       1.0  0.74958  0.74171  0.15859  1.0000
  O   O52       1.0  0.77024  0.71968  0.14749  1.0000
  C   C104      1.0  0.80632  0.77651  0.32320  1.0000
  H   H52       1.0  0.80224  0.78579  0.27368  1.0000
  C   C105      1.0  0.75999  0.22977  0.33856  1.0000
  C   C106      1.0  0.75099  0.23990  0.26480  1.0000
  C   C107      1.0  0.73633  0.25478  0.27777  1.0000
  H   H53       1.0  0.75574  0.23703  0.19965  1.0000
  N   N27       1.0  0.72848  0.26521  0.20188  1.0000
  O   O53       1.0  0.74175  0.27437  0.15884  1.0000
  O   O54       1.0  0.71972  0.25372  0.14767  1.0000
  C   C108      1.0  0.77654  0.21758  0.32318  1.0000
  H   H54       1.0  0.78580  0.22164  0.27357  1.0000
  C   C109      1.0  0.26388  0.79400  0.33828  1.0000
  C   C110      1.0  0.27257  0.78357  0.26464  1.0000
  C   C111      1.0  0.28727  0.76873  0.27762  1.0000
  H   H55       1.0  0.26758  0.78620  0.19966  1.0000
  N   N28       1.0  0.29481  0.75799  0.20199  1.0000
  O   O55       1.0  0.30335  0.76924  0.14601  1.0000
  O   O56       1.0  0.28136  0.74866  0.16095  1.0000
  C   C112      1.0  0.24730  0.80619  0.32320  1.0000
  H   H56       1.0  0.23795  0.80206  0.27410  1.0000
  C   C113      1.0  0.49423  0.02371  0.34832  1.0000
  C   C114      1.0  0.50227  0.01306  0.27404  1.0000
  C   C115      1.0  0.51969  0.00146  0.28302  1.0000
  H   H57       1.0  0.49557  0.01394  0.21135  1.0000
  N   N29       1.0  0.52781  0.99154  0.20627  1.0000
  O   O57       1.0  0.51585  0.97912  0.17371  1.0000
  O   O58       1.0  0.53268  0.00350  0.14442  1.0000
  C   C116      1.0  0.47693  0.03467  0.33721  1.0000
  H   H58       1.0  0.46616  0.02900  0.29871  1.0000
  C   C117      1.0  0.00019  0.49419  0.34839  1.0000
  C   C118      1.0  0.01085  0.50222  0.27411  1.0000
  C   C119      1.0  0.02244  0.51965  0.28307  1.0000
  H   H59       1.0  0.00996  0.49552  0.21141  1.0000
  N   N30       1.0  0.03236  0.52777  0.20630  1.0000
  O   O59       1.0  0.04478  0.51580  0.17376  1.0000
  O   O60       1.0  0.02039  0.53262  0.14445  1.0000
  C   C120      1.0  0.98923  0.47688  0.33729  1.0000
  H   H60       1.0  0.99490  0.46612  0.29874  1.0000
  C   C121      1.0  0.27883  0.03810  0.35330  1.0000
  C   C122      1.0  0.27041  0.01895  0.34825  1.0000
  C   C123      1.0  0.24961  0.01592  0.35290  1.0000
  C   C124      1.0  0.23722  0.03296  0.35753  1.0000
  C   C125      1.0  0.24507  0.05253  0.35941  1.0000
  C   C126      1.0  0.26598  0.05462  0.35884  1.0000
  H   H61       1.0  0.22215  0.03109  0.35892  1.0000
  H   H62       1.0  0.27205  0.06853  0.36134  1.0000
  H   H63       1.0  0.27964  0.00698  0.34144  1.0000
  N   N31       1.0  0.29850  0.04039  0.34609  1.0000
  N   N32       1.0  0.24174  0.99750  0.34677  1.0000
  N   N33       1.0  0.23303  0.06856  0.36536  1.0000
  C   C127      1.0  0.74514  0.98573  0.35490  1.0000
  C   C128      1.0  0.75355  0.00488  0.34959  1.0000
  C   C129      1.0  0.77436  0.00792  0.35383  1.0000
  C   C130      1.0  0.78676  0.99088  0.35834  1.0000
  C   C131      1.0  0.77892  0.97131  0.36044  1.0000
  C   C132      1.0  0.75801  0.96921  0.36024  1.0000
  H   H64       1.0  0.80182  0.99276  0.35945  1.0000
  H   H65       1.0  0.75194  0.95531  0.36288  1.0000
  H   H66       1.0  0.74432  0.01685  0.34289  1.0000
  N   N34       1.0  0.72547  0.98343  0.34791  1.0000
  N   N35       1.0  0.78221  0.02635  0.34753  1.0000
  N   N36       1.0  0.79096  0.95529  0.36622  1.0000
  C   C133      1.0  0.98581  0.27878  0.35327  1.0000
  C   C134      1.0  0.00495  0.27035  0.34821  1.0000
  C   C135      1.0  0.00798  0.24955  0.35286  1.0000
  C   C136      1.0  0.99093  0.23717  0.35751  1.0000
  C   C137      1.0  0.97137  0.24503  0.35940  1.0000
  C   C138      1.0  0.96928  0.26593  0.35883  1.0000
  H   H67       1.0  0.99279  0.22210  0.35890  1.0000
  H   H68       1.0  0.95538  0.27201  0.36133  1.0000
  H   H69       1.0  0.01693  0.27958  0.34139  1.0000
  N   N37       1.0  0.98353  0.29845  0.34605  1.0000
  N   N38       1.0  0.02640  0.24167  0.34673  1.0000
  N   N39       1.0  0.95534  0.23299  0.36536  1.0000
  C   C139      1.0  0.03816  0.74509  0.35490  1.0000
  C   C140      1.0  0.01901  0.75350  0.34959  1.0000
  C   C141      1.0  0.01597  0.77430  0.35382  1.0000
  C   C142      1.0  0.03301  0.78671  0.35832  1.0000
  C   C143      1.0  0.05257  0.77886  0.36043  1.0000
  C   C144      1.0  0.05468  0.75795  0.36024  1.0000
  H   H70       1.0  0.03113  0.80177  0.35942  1.0000
  H   H71       1.0  0.06858  0.75189  0.36290  1.0000
  H   H72       1.0  0.00704  0.74426  0.34289  1.0000
  N   N40       1.0  0.04046  0.72542  0.34792  1.0000
  N   N41       1.0  0.99754  0.78215  0.34748  1.0000
  N   N42       1.0  0.06860  0.79090  0.36621  1.0000
  C   C145      1.0  0.24504  0.53857  0.35746  1.0000
  C   C146      1.0  0.25342  0.51939  0.36266  1.0000
  C   C147      1.0  0.27422  0.51627  0.36000  1.0000
  C   C148      1.0  0.28668  0.53327  0.35660  1.0000
  C   C149      1.0  0.27890  0.55285  0.35428  1.0000
  C   C150      1.0  0.25800  0.55504  0.35327  1.0000
  H   H73       1.0  0.30174  0.53135  0.35634  1.0000
  H   H74       1.0  0.25206  0.56898  0.35054  1.0000
  H   H75       1.0  0.24415  0.50742  0.36822  1.0000
  N   N43       1.0  0.22526  0.54054  0.36178  1.0000
  N   N44       1.0  0.28203  0.49781  0.36659  1.0000
  N   N45       1.0  0.29101  0.56883  0.34885  1.0000
  C   C151      1.0  0.77893  0.48527  0.35888  1.0000
  C   C152      1.0  0.77055  0.50445  0.36395  1.0000
  C   C153      1.0  0.74974  0.50758  0.36093  1.0000
  C   C154      1.0  0.73728  0.49058  0.35728  1.0000
  C   C155      1.0  0.74506  0.47099  0.35510  1.0000
  C   C156      1.0  0.76596  0.46881  0.35451  1.0000
  H   H76       1.0  0.72222  0.49251  0.35676  1.0000
  H   H77       1.0  0.77190  0.45486  0.35189  1.0000
  H   H78       1.0  0.77982  0.51642  0.36968  1.0000
  N   N46       1.0  0.79870  0.48329  0.36367  1.0000
  N   N47       1.0  0.74194  0.52604  0.36736  1.0000
  N   N48       1.0  0.73295  0.45502  0.34952  1.0000
  C   C157      1.0  0.53861  0.77886  0.35743  1.0000
  C   C158      1.0  0.51943  0.77048  0.36262  1.0000
  C   C159      1.0  0.51631  0.74967  0.35994  1.0000
  C   C160      1.0  0.53331  0.73721  0.35653  1.0000
  C   C161      1.0  0.55290  0.74499  0.35421  1.0000
  C   C162      1.0  0.55508  0.76589  0.35322  1.0000
  H   H79       1.0  0.53139  0.72215  0.35626  1.0000
  H   H80       1.0  0.56902  0.77184  0.35047  1.0000
  H   H81       1.0  0.50746  0.77975  0.36819  1.0000
  N   N49       1.0  0.54058  0.79864  0.36175  1.0000
  N   N50       1.0  0.49786  0.74186  0.36654  1.0000
  N   N51       1.0  0.56887  0.73289  0.34876  1.0000
  C   C163      1.0  0.48533  0.24497  0.35888  1.0000
  C   C164      1.0  0.50451  0.25335  0.36396  1.0000
  C   C165      1.0  0.50764  0.27415  0.36097  1.0000
  C   C166      1.0  0.49064  0.28662  0.35733  1.0000
  C   C167      1.0  0.47106  0.27884  0.35514  1.0000
  C   C168      1.0  0.46887  0.25794  0.35452  1.0000
  H   H82       1.0  0.49257  0.30168  0.35685  1.0000
  H   H83       1.0  0.45492  0.25199  0.35189  1.0000
  H   H84       1.0  0.51648  0.24408  0.36968  1.0000
  N   N52       1.0  0.48335  0.22520  0.36366  1.0000
  N   N53       1.0  0.52610  0.28195  0.36744  1.0000
  N   N54       1.0  0.45508  0.29094  0.34957  1.0000
  C   C169      1.0  0.18969  0.22724  0.36216  1.0000
  C   C170      1.0  0.16888  0.22992  0.36736  1.0000
  C   C171      1.0  0.15547  0.21366  0.36516  1.0000
  C   C172      1.0  0.16359  0.19426  0.36217  1.0000
  C   C173      1.0  0.18437  0.19084  0.35834  1.0000
  C   C174      1.0  0.19706  0.20756  0.35743  1.0000
  H   H85       1.0  0.15414  0.18238  0.36158  1.0000
  H   H86       1.0  0.21209  0.20536  0.35616  1.0000
  H   H87       1.0  0.16340  0.24402  0.37319  1.0000
  N   N55       1.0  0.20184  0.24308  0.36869  1.0000
  N   N56       1.0  0.13556  0.21579  0.37099  1.0000
  N   N57       1.0  0.19301  0.17284  0.35372  1.0000
  C   C175      1.0  0.83429  0.79660  0.36237  1.0000
  C   C176      1.0  0.85510  0.79392  0.36767  1.0000
  C   C177      1.0  0.86850  0.81018  0.36557  1.0000
  C   C178      1.0  0.86038  0.82959  0.36251  1.0000
  C   C179      1.0  0.83960  0.83300  0.35858  1.0000
  C   C180      1.0  0.82692  0.81627  0.35765  1.0000
  H   H88       1.0  0.86983  0.84146  0.36195  1.0000
  H   H89       1.0  0.81188  0.81846  0.35630  1.0000
  H   H90       1.0  0.86058  0.77983  0.37357  1.0000
  N   N58       1.0  0.82214  0.78077  0.36904  1.0000
  N   N59       1.0  0.88840  0.80805  0.37151  1.0000
  N   N60       1.0  0.83096  0.85100  0.35399  1.0000
  C   C181      1.0  0.79665  0.18962  0.36237  1.0000
  C   C182      1.0  0.79398  0.16881  0.36766  1.0000
  C   C183      1.0  0.81024  0.15541  0.36540  1.0000
  C   C184      1.0  0.82964  0.16354  0.36230  1.0000
  C   C185      1.0  0.83304  0.18432  0.35839  1.0000
  C   C186      1.0  0.81631  0.19700  0.35751  1.0000
  H   H91       1.0  0.84152  0.15410  0.36172  1.0000
  H   H92       1.0  0.81850  0.21203  0.35619  1.0000
  H   H93       1.0  0.77988  0.16332  0.37361  1.0000
  N   N61       1.0  0.78081  0.20177  0.36909  1.0000
  N   N62       1.0  0.80812  0.13551  0.37138  1.0000
  N   N63       1.0  0.85104  0.19298  0.35375  1.0000
  C   C187      1.0  0.22728  0.83422  0.36220  1.0000
  C   C188      1.0  0.22996  0.85503  0.36745  1.0000
  C   C189      1.0  0.21371  0.86844  0.36539  1.0000
  C   C190      1.0  0.19430  0.86033  0.36240  1.0000
  C   C191      1.0  0.19088  0.83955  0.35854  1.0000
  C   C192      1.0  0.20760  0.82686  0.35759  1.0000
  H   H94       1.0  0.18243  0.86978  0.36183  1.0000
  H   H95       1.0  0.20540  0.81183  0.35626  1.0000
  H   H96       1.0  0.24406  0.86051  0.37325  1.0000
  N   N64       1.0  0.24312  0.82207  0.36873  1.0000
  N   N65       1.0  0.21584  0.88835  0.37120  1.0000
  N   N66       1.0  0.17288  0.83091  0.35396  1.0000
  C   C193      1.0  0.33447  0.72744  0.35308  1.0000
  C   C194      1.0  0.35529  0.73011  0.34813  1.0000
  C   C195      1.0  0.36871  0.71385  0.34981  1.0000
  C   C196      1.0  0.36059  0.69444  0.35241  1.0000
  C   C197      1.0  0.33982  0.69103  0.35615  1.0000
  C   C198      1.0  0.32713  0.70775  0.35723  1.0000
  H   H97       1.0  0.37004  0.68257  0.35273  1.0000
  H   H98       1.0  0.31211  0.70550  0.35809  1.0000
  H   H99       1.0  0.36079  0.74421  0.34258  1.0000
  N   N67       1.0  0.32245  0.74339  0.34669  1.0000
  N   N68       1.0  0.38862  0.71597  0.34375  1.0000
  N   N69       1.0  0.33116  0.67303  0.36056  1.0000
  C   C199      1.0  0.68946  0.29643  0.35350  1.0000
  C   C200      1.0  0.66864  0.29376  0.34854  1.0000
  C   C201      1.0  0.65521  0.31001  0.35003  1.0000
  C   C202      1.0  0.66332  0.32942  0.35258  1.0000
  C   C203      1.0  0.68410  0.33284  0.35633  1.0000
  C   C204      1.0  0.69679  0.31613  0.35745  1.0000
  H   H100      1.0  0.65387  0.34129  0.35287  1.0000
  H   H101      1.0  0.71181  0.31839  0.35837  1.0000
  H   H102      1.0  0.66314  0.27965  0.34309  1.0000
  N   N70       1.0  0.70147  0.28046  0.34729  1.0000
  N   N71       1.0  0.63531  0.30788  0.34402  1.0000
  N   N72       1.0  0.69274  0.35084  0.36078  1.0000
  C   C205      1.0  0.72747  0.68941  0.35326  1.0000
  C   C206      1.0  0.73014  0.66859  0.34840  1.0000
  C   C207      1.0  0.71389  0.65517  0.34997  1.0000
  C   C208      1.0  0.69448  0.66328  0.35242  1.0000
  C   C209      1.0  0.69106  0.68406  0.35610  1.0000
  C   C210      1.0  0.70777  0.69675  0.35724  1.0000
  H   H103      1.0  0.68261  0.65383  0.35269  1.0000
  H   H104      1.0  0.70551  0.71177  0.35806  1.0000
  H   H105      1.0  0.74424  0.66310  0.34300  1.0000
  N   N73       1.0  0.74344  0.70142  0.34712  1.0000
  N   N74       1.0  0.71601  0.63526  0.34397  1.0000
  N   N75       1.0  0.67306  0.69271  0.36044  1.0000
  C   C211      1.0  0.29648  0.33444  0.35327  1.0000
  C   C212      1.0  0.29382  0.35526  0.34823  1.0000
  C   C213      1.0  0.31008  0.36867  0.34983  1.0000
  C   C214      1.0  0.32948  0.36056  0.35254  1.0000
  C   C215      1.0  0.33290  0.33978  0.35634  1.0000
  C   C216      1.0  0.31618  0.32709  0.35738  1.0000
  H   H106      1.0  0.34136  0.37000  0.35288  1.0000
  H   H107      1.0  0.31843  0.31207  0.35833  1.0000
  H   H108      1.0  0.27973  0.36075  0.34264  1.0000
  N   N76       1.0  0.28053  0.32242  0.34684  1.0000
  N   N77       1.0  0.30796  0.38858  0.34378  1.0000
  N   N78       1.0  0.35089  0.33113  0.36085  1.0000
  C   C217      1.0  0.42417  0.07312  0.36237  1.0000
  C   C218      1.0  0.43969  0.05911  0.36763  1.0000
  C   C219      1.0  0.45983  0.06504  0.36553  1.0000
  C   C220      1.0  0.46424  0.08551  0.36226  1.0000
  C   C221      1.0  0.44905  0.10002  0.35888  1.0000
  C   C222      1.0  0.42912  0.09352  0.35800  1.0000
  H   H109      1.0  0.47878  0.08987  0.36096  1.0000
  H   H110      1.0  0.41800  0.10387  0.35683  1.0000
  H   H111      1.0  0.43628  0.04436  0.37310  1.0000
  N   N79       1.0  0.40550  0.06651  0.36797  1.0000
  N   N80       1.0  0.47495  0.05226  0.37034  1.0000
  N   N81       1.0  0.45234  0.11957  0.35387  1.0000
  C   C223      1.0  0.59983  0.95059  0.36263  1.0000
  C   C224      1.0  0.58429  0.96462  0.36460  1.0000
  C   C225      1.0  0.56414  0.95872  0.35991  1.0000
  C   C226      1.0  0.55979  0.93825  0.35431  1.0000
  C   C227      1.0  0.57498  0.92372  0.35548  1.0000
  C   C228      1.0  0.59490  0.93018  0.35882  1.0000
  H   H112      1.0  0.54530  0.93387  0.34920  1.0000
  H   H113      1.0  0.60601  0.91983  0.35997  1.0000
  H   H114      1.0  0.58779  0.97938  0.36701  1.0000
  N   N82       1.0  0.61848  0.95721  0.36929  1.0000
  N   N83       1.0  0.54886  0.97137  0.35705  1.0000
  N   N84       1.0  0.57169  0.90417  0.35040  1.0000
  C   C229      1.0  0.95079  0.42412  0.36237  1.0000
  C   C230      1.0  0.96479  0.43964  0.36765  1.0000
  C   C231      1.0  0.95886  0.45979  0.36557  1.0000
  C   C232      1.0  0.93839  0.46420  0.36231  1.0000
  C   C233      1.0  0.92388  0.44900  0.35891  1.0000
  C   C234      1.0  0.93038  0.42907  0.35800  1.0000
  H   H115      1.0  0.93403  0.47874  0.36103  1.0000
  H   H116      1.0  0.92004  0.41796  0.35682  1.0000
  H   H117      1.0  0.97955  0.43623  0.37312  1.0000
  N   N85       1.0  0.95739  0.40545  0.36794  1.0000
  N   N86       1.0  0.97164  0.47491  0.37041  1.0000
  N   N87       1.0  0.90433  0.45230  0.35389  1.0000
  C   C235      1.0  0.07331  0.59979  0.36265  1.0000
  C   C236      1.0  0.05928  0.58425  0.36463  1.0000
  C   C237      1.0  0.06518  0.56410  0.35994  1.0000
  C   C238      1.0  0.08565  0.55975  0.35432  1.0000
  C   C239      1.0  0.10018  0.57493  0.35547  1.0000
  C   C240      1.0  0.09372  0.59485  0.35880  1.0000
  H   H118      1.0  0.09003  0.54525  0.34919  1.0000
  H   H119      1.0  0.10407  0.60596  0.35995  1.0000
  H   H120      1.0  0.04452  0.58774  0.36707  1.0000
  N   N88       1.0  0.06669  0.61843  0.36931  1.0000
  N   N89       1.0  0.05252  0.54882  0.35709  1.0000
  N   N90       1.0  0.11972  0.57164  0.35035  1.0000
  C   C241      1.0  0.33032  0.05356  0.37912  1.0000
  C   C242      1.0  0.34333  0.05763  0.45236  1.0000
  C   C243      1.0  0.36337  0.06316  0.43809  1.0000
  H   H121      1.0  0.33802  0.05730  0.51794  1.0000
  N   N91       1.0  0.37572  0.06795  0.51334  1.0000
  O   O61       1.0  0.36908  0.08240  0.55807  1.0000
  O   O62       1.0  0.37775  0.05342  0.56627  1.0000
  C   C244      1.0  0.31009  0.05110  0.39583  1.0000
  H   H122      1.0  0.30423  0.05856  0.44805  1.0000
  C   C245      1.0  0.69367  0.97024  0.38121  1.0000
  C   C246      1.0  0.68069  0.96608  0.45448  1.0000
  C   C247      1.0  0.66066  0.96050  0.44022  1.0000
  H   H123      1.0  0.68602  0.96634  0.52001  1.0000
  N   N92       1.0  0.64834  0.95561  0.51541  1.0000
  O   O63       1.0  0.65503  0.94114  0.55984  1.0000
  O   O64       1.0  0.64628  0.97009  0.56863  1.0000
  C   C248      1.0  0.71391  0.97273  0.39783  1.0000
  H   H124      1.0  0.71979  0.96529  0.45003  1.0000
  C   C249      1.0  0.97037  0.33028  0.37900  1.0000
  C   C250      1.0  0.96629  0.34329  0.45226  1.0000
  C   C251      1.0  0.96074  0.36333  0.43799  1.0000
  H   H125      1.0  0.96661  0.33798  0.51782  1.0000
  N   N93       1.0  0.95593  0.37566  0.51326  1.0000
  O   O65       1.0  0.94149  0.36900  0.55797  1.0000
  O   O66       1.0  0.97046  0.37771  0.56620  1.0000
  C   C252      1.0  0.97281  0.31005  0.39574  1.0000
  H   H126      1.0  0.96533  0.30419  0.44792  1.0000
  C   C253      1.0  0.05367  0.69363  0.38126  1.0000
  C   C254      1.0  0.05783  0.68064  0.45451  1.0000
  C   C255      1.0  0.06340  0.66060  0.44023  1.0000
  H   H127      1.0  0.05754  0.68596  0.52006  1.0000
  N   N94       1.0  0.06828  0.64828  0.51541  1.0000
  O   O67       1.0  0.08275  0.65497  0.55990  1.0000
  O   O68       1.0  0.05380  0.64621  0.56858  1.0000
  C   C256      1.0  0.05115  0.71386  0.39791  1.0000
  H   H128      1.0  0.05858  0.71974  0.45014  1.0000
  C   C257      1.0  0.15105  0.55647  0.35973  1.0000
  C   C258      1.0  0.16355  0.55174  0.43493  1.0000
  C   C259      1.0  0.18437  0.55037  0.42213  1.0000
  H   H129      1.0  0.19318  0.54726  0.47729  1.0000
  N   N95       1.0  0.15509  0.54882  0.52259  1.0000
  O   O69       1.0  0.16135  0.56137  0.57913  1.0000
  O   O70       1.0  0.15862  0.53173  0.55274  1.0000
  C   C260      1.0  0.13049  0.55650  0.37080  1.0000
  H   H130      1.0  0.12420  0.54453  0.39791  1.0000
  C   C261      1.0  0.87291  0.46732  0.36340  1.0000
  C   C262      1.0  0.86032  0.47205  0.43829  1.0000
  C   C263      1.0  0.83952  0.47343  0.42501  1.0000
  H   H131      1.0  0.83065  0.47654  0.47996  1.0000
  N   N96       1.0  0.86868  0.47498  0.52615  1.0000
  O   O71       1.0  0.86235  0.46244  0.58258  1.0000
  O   O72       1.0  0.86512  0.49206  0.55618  1.0000
  C   C264      1.0  0.89346  0.46733  0.37494  1.0000
  H   H132      1.0  0.89967  0.47927  0.40265  1.0000
  C   C265      1.0  0.55651  0.87286  0.35979  1.0000
  C   C266      1.0  0.55179  0.86035  0.43500  1.0000
  C   C267      1.0  0.55042  0.83953  0.42220  1.0000
  H   H133      1.0  0.54732  0.83072  0.47735  1.0000
  N   N97       1.0  0.54888  0.86881  0.52266  1.0000
  O   O73       1.0  0.56144  0.86255  0.57917  1.0000
  O   O74       1.0  0.53180  0.86527  0.55288  1.0000
  C   C268      1.0  0.55654  0.89341  0.37087  1.0000
  H   H134      1.0  0.54457  0.89970  0.39792  1.0000
  C   C269      1.0  0.46738  0.15099  0.36338  1.0000
  C   C270      1.0  0.47211  0.16358  0.43827  1.0000
  C   C271      1.0  0.47348  0.18438  0.42498  1.0000
  H   H135      1.0  0.47660  0.19325  0.47992  1.0000
  N   N98       1.0  0.47503  0.15522  0.52613  1.0000
  O   O75       1.0  0.46250  0.16155  0.58256  1.0000
  O   O76       1.0  0.49212  0.15878  0.55615  1.0000
  C   C272      1.0  0.46738  0.13044  0.37494  1.0000
  H   H136      1.0  0.47932  0.12423  0.40263  1.0000
  C   C273      1.0  0.19967  0.13829  0.36315  1.0000
  C   C274      1.0  0.20298  0.12510  0.43772  1.0000
  C   C275      1.0  0.21416  0.10740  0.42520  1.0000
  H   H137      1.0  0.21675  0.09844  0.48040  1.0000
  N   N99       1.0  0.19548  0.13014  0.52513  1.0000
  O   O77       1.0  0.20920  0.13242  0.58226  1.0000
  O   O78       1.0  0.18369  0.11720  0.55457  1.0000
  C   C276      1.0  0.18746  0.15504  0.37391  1.0000
  H   H138      1.0  0.17409  0.15302  0.40092  1.0000
  C   C277      1.0  0.82430  0.88555  0.36358  1.0000
  C   C278      1.0  0.82102  0.89873  0.43822  1.0000
  C   C279      1.0  0.80985  0.91644  0.42583  1.0000
  H   H139      1.0  0.80728  0.92539  0.48107  1.0000
  N   N100      1.0  0.82856  0.89367  0.52555  1.0000
  O   O79       1.0  0.81485  0.89139  0.58277  1.0000
  O   O80       1.0  0.84036  0.90660  0.55495  1.0000
  C   C280      1.0  0.83651  0.86879  0.37421  1.0000
  H   H140      1.0  0.84988  0.87081  0.40124  1.0000
  C   C281      1.0  0.88560  0.19964  0.36324  1.0000
  C   C282      1.0  0.89877  0.20295  0.43783  1.0000
  C   C283      1.0  0.91648  0.21413  0.42533  1.0000
  H   H141      1.0  0.92544  0.21671  0.48053  1.0000
  N   N101      1.0  0.89373  0.19545  0.52524  1.0000
  O   O81       1.0  0.89144  0.20918  0.58235  1.0000
  O   O82       1.0  0.90666  0.18367  0.55472  1.0000
  C   C284      1.0  0.86883  0.18743  0.37399  1.0000
  H   H142      1.0  0.87086  0.17406  0.40101  1.0000
  C   C285      1.0  0.13832  0.82427  0.36353  1.0000
  C   C286      1.0  0.12514  0.82099  0.43817  1.0000
  C   C287      1.0  0.10744  0.80980  0.42577  1.0000
  H   H143      1.0  0.09848  0.80725  0.48099  1.0000
  N   N102      1.0  0.13019  0.82854  0.52550  1.0000
  O   O83       1.0  0.13247  0.81484  0.58275  1.0000
  O   O84       1.0  0.11725  0.84033  0.55484  1.0000
  C   C288      1.0  0.15509  0.83647  0.37418  1.0000
  H   H144      1.0  0.15307  0.84984  0.40121  1.0000
  C   C289      1.0  0.30178  0.60241  0.37450  1.0000
  C   C290      1.0  0.30493  0.61579  0.44747  1.0000
  C   C291      1.0  0.31620  0.63347  0.43751  1.0000
  H   H145      1.0  0.29894  0.61268  0.51016  1.0000
  N   N103      1.0  0.31936  0.64615  0.51333  1.0000
  O   O85       1.0  0.30327  0.65279  0.54414  1.0000
  O   O86       1.0  0.32840  0.63741  0.57664  1.0000
  C   C292      1.0  0.28904  0.58614  0.38625  1.0000
  H   H146      1.0  0.27745  0.58827  0.42720  1.0000
  C   C293      1.0  0.72215  0.42145  0.37501  1.0000
  C   C294      1.0  0.71900  0.40805  0.44792  1.0000
  C   C295      1.0  0.70773  0.39038  0.43787  1.0000
  H   H147      1.0  0.72499  0.41114  0.51063  1.0000
  N   N104      1.0  0.70457  0.37768  0.51362  1.0000
  O   O87       1.0  0.72065  0.37102  0.54437  1.0000
  O   O88       1.0  0.69553  0.38640  0.57700  1.0000
  C   C296      1.0  0.73489  0.43771  0.38692  1.0000
  H   H148      1.0  0.74646  0.43557  0.42799  1.0000
  C   C297      1.0  0.60245  0.72211  0.37435  1.0000
  C   C298      1.0  0.61584  0.71897  0.44732  1.0000
  C   C299      1.0  0.63351  0.70770  0.43738  1.0000
  H   H149      1.0  0.61273  0.72498  0.50998  1.0000
  N   N105      1.0  0.64619  0.70455  0.51318  1.0000
  O   O89       1.0  0.65284  0.72064  0.54388  1.0000
  O   O90       1.0  0.63746  0.69553  0.57657  1.0000
  C   C300      1.0  0.58618  0.73485  0.38613  1.0000
  H   H150      1.0  0.58832  0.74645  0.42706  1.0000
  C   C301      1.0  0.42150  0.30172  0.37512  1.0000
  C   C302      1.0  0.40809  0.30487  0.44800  1.0000
  C   C303      1.0  0.39042  0.31614  0.43792  1.0000
  H   H151      1.0  0.41118  0.29887  0.51070  1.0000
  N   N106      1.0  0.37771  0.31929  0.51364  1.0000
  O   O91       1.0  0.37106  0.30320  0.54433  1.0000
  O   O92       1.0  0.38643  0.32832  0.57707  1.0000
  C   C304      1.0  0.43777  0.28900  0.38703  1.0000
  H   H152      1.0  0.43565  0.27743  0.42815  1.0000
  C   C305      1.0  0.23902  0.96244  0.37568  1.0000
  C   C306      1.0  0.23670  0.94950  0.45099  1.0000
  C   C307      1.0  0.23221  0.92902  0.44054  1.0000
  H   H153      1.0  0.23914  0.95484  0.51553  1.0000
  N   N107      1.0  0.23098  0.91646  0.51798  1.0000
  O   O93       1.0  0.24703  0.91604  0.56160  1.0000
  O   O94       1.0  0.21739  0.92190  0.57111  1.0000
  C   C308      1.0  0.24709  0.98145  0.38866  1.0000
  H   H154      1.0  0.25817  0.98246  0.43340  1.0000
  C   C309      1.0  0.78495  0.06141  0.37628  1.0000
  C   C310      1.0  0.78726  0.07437  0.45154  1.0000
  C   C311      1.0  0.79173  0.09485  0.44097  1.0000
  H   H155      1.0  0.78478  0.06905  0.51609  1.0000
  N   N108      1.0  0.79292  0.10744  0.51832  1.0000
  O   O95       1.0  0.77685  0.10786  0.56179  1.0000
  O   O96       1.0  0.80649  0.10203  0.57160  1.0000
  C   C312      1.0  0.77690  0.04240  0.38946  1.0000
  H   H156      1.0  0.76585  0.04139  0.43437  1.0000
  C   C313      1.0  0.06146  0.23893  0.37542  1.0000
  C   C314      1.0  0.07440  0.23663  0.45073  1.0000
  C   C315      1.0  0.09489  0.23217  0.44032  1.0000
  H   H157      1.0  0.06906  0.23910  0.51526  1.0000
  N   N109      1.0  0.10744  0.23098  0.51778  1.0000
  O   O97       1.0  0.10784  0.24703  0.56134  1.0000
  O   O98       1.0  0.10202  0.21739  0.57095  1.0000
  C   C316      1.0  0.04246  0.24703  0.38843  1.0000
  H   H158      1.0  0.04148  0.25814  0.43301  1.0000
  C   C317      1.0  0.96248  0.78489  0.37635  1.0000
  C   C318      1.0  0.94952  0.78722  0.45156  1.0000
  C   C319      1.0  0.92904  0.79170  0.44093  1.0000
  H   H159      1.0  0.95483  0.78478  0.51615  1.0000
  N   N110      1.0  0.91645  0.79293  0.51824  1.0000
  O   O99       1.0  0.91601  0.77688  0.56189  1.0000
  O   O100      1.0  0.92185  0.80652  0.57139  1.0000
  C   C320      1.0  0.98150  0.77686  0.38957  1.0000
  H   H160      1.0  0.98253  0.76584  0.43463  1.0000
  C   C321      1.0  0.29389  0.42102  0.36257  1.0000
  C   C322      1.0  0.29193  0.43402  0.43888  1.0000
  C   C323      1.0  0.28765  0.45451  0.42580  1.0000
  H   H161      1.0  0.28538  0.46326  0.48198  1.0000
  N   N111      1.0  0.29378  0.42612  0.52823  1.0000
  O   O101      1.0  0.30776  0.43412  0.57134  1.0000
  O   O102      1.0  0.27805  0.42813  0.57339  1.0000
  C   C324      1.0  0.29451  0.40034  0.37595  1.0000
  H   H162      1.0  0.28370  0.39448  0.41351  1.0000
  C   C325      1.0  0.73008  0.60282  0.36292  1.0000
  C   C326      1.0  0.73198  0.58984  0.43932  1.0000
  C   C327      1.0  0.73627  0.56935  0.42639  1.0000
  H   H163      1.0  0.73850  0.56061  0.48264  1.0000
  N   N112      1.0  0.73008  0.59776  0.52861  1.0000
  O   O103      1.0  0.71607  0.58977  0.57154  1.0000
  O   O104      1.0  0.74577  0.59576  0.57400  1.0000
  C   C328      1.0  0.72946  0.62351  0.37620  1.0000
  H   H164      1.0  0.74026  0.62937  0.41379  1.0000
  C   C329      1.0  0.42106  0.73005  0.36262  1.0000
  C   C330      1.0  0.43406  0.73195  0.43894  1.0000
  C   C331      1.0  0.45454  0.73624  0.42586  1.0000
  H   H165      1.0  0.46331  0.73846  0.48203  1.0000
  N   N113      1.0  0.42615  0.73008  0.52826  1.0000
  O   O105      1.0  0.43416  0.71607  0.57123  1.0000
  O   O106      1.0  0.42817  0.74578  0.57357  1.0000
  C   C332      1.0  0.40037  0.72942  0.37594  1.0000
  H   H166      1.0  0.39451  0.74023  0.41353  1.0000
  C   C333      1.0  0.60287  0.29379  0.36309  1.0000
  C   C334      1.0  0.58989  0.29189  0.43947  1.0000
  C   C335      1.0  0.56940  0.28759  0.42643  1.0000
  H   H167      1.0  0.56063  0.28537  0.48263  1.0000
  N   N114      1.0  0.59779  0.29378  0.52878  1.0000
  O   O107      1.0  0.58978  0.30779  0.57171  1.0000
  O   O108      1.0  0.59578  0.27809  0.57414  1.0000
  C   C336      1.0  0.62356  0.29445  0.37644  1.0000
  H   H168      1.0  0.62943  0.28368  0.41419  1.0000
  C   C337      1.0  0.26001  0.29377  0.36732  1.0000
  C   C338      1.0  0.24930  0.28548  0.44207  1.0000
  C   C339      1.0  0.23440  0.27091  0.42671  1.0000
  H   H169      1.0  0.22755  0.26460  0.48194  1.0000
  N   N115      1.0  0.25404  0.29157  0.53217  1.0000
  O   O109      1.0  0.23937  0.29930  0.57132  1.0000
  O   O110      1.0  0.26017  0.27735  0.57993  1.0000
  C   C340      1.0  0.27699  0.30535  0.38357  1.0000
  H   H170      1.0  0.28712  0.29964  0.42546  1.0000
  C   C341      1.0  0.76394  0.73011  0.36735  1.0000
  C   C342      1.0  0.77432  0.73872  0.44233  1.0000
  C   C343      1.0  0.78927  0.75324  0.42708  1.0000
  H   H171      1.0  0.79588  0.75978  0.48237  1.0000
  N   N116      1.0  0.76921  0.73299  0.53251  1.0000
  O   O111      1.0  0.78371  0.72545  0.57369  1.0000
  O   O112      1.0  0.76285  0.74740  0.57842  1.0000
  C   C344      1.0  0.74690  0.71859  0.38313  1.0000
  H   H172      1.0  0.73667  0.72440  0.42415  1.0000
  C   C345      1.0  0.73016  0.25997  0.36757  1.0000
  C   C346      1.0  0.73875  0.24956  0.44250  1.0000
  C   C347      1.0  0.75328  0.23462  0.42716  1.0000
  H   H173      1.0  0.75981  0.22797  0.48240  1.0000
  N   N117      1.0  0.73301  0.25464  0.53269  1.0000
  O   O113      1.0  0.72547  0.24012  0.57373  1.0000
  O   O114      1.0  0.74741  0.26098  0.57869  1.0000
  C   C348      1.0  0.71862  0.27700  0.38336  1.0000
  H   H174      1.0  0.72441  0.28722  0.42450  1.0000
  C   C349      1.0  0.29379  0.76390  0.36729  1.0000
  C   C350      1.0  0.28552  0.77462  0.44207  1.0000
  C   C351      1.0  0.27094  0.78951  0.42670  1.0000
  H   H175      1.0  0.26465  0.79639  0.48191  1.0000
  N   N118      1.0  0.29163  0.76990  0.53216  1.0000
  O   O115      1.0  0.29937  0.78457  0.57121  1.0000
  O   O116      1.0  0.27742  0.76377  0.57999  1.0000
  C   C352      1.0  0.30539  0.74693  0.38356  1.0000
  H   H176      1.0  0.29971  0.73681  0.42551  1.0000
  C   C353      1.0  0.52924  0.00004  0.36938  1.0000
  C   C354      1.0  0.52114  0.01047  0.44518  1.0000
  C   C355      1.0  0.50382  0.02213  0.43367  1.0000
  H   H177      1.0  0.49806  0.02941  0.48908  1.0000
  N   N119      1.0  0.53032  0.00890  0.53204  1.0000
  O   O117      1.0  0.51882  0.00138  0.59005  1.0000
  O   O118      1.0  0.53605  0.02549  0.56087  1.0000
  C   C356      1.0  0.54707  0.98978  0.37909  1.0000
  H   H178      1.0  0.55854  0.99699  0.40587  1.0000
  C   C357      1.0  0.02386  0.52920  0.36942  1.0000
  C   C358      1.0  0.01342  0.52111  0.44522  1.0000
  C   C359      1.0  0.00177  0.50378  0.43372  1.0000
  H   H179      1.0  0.99449  0.49803  0.48914  1.0000
  N   N120      1.0  0.01500  0.53028  0.53207  1.0000
  O   O119      1.0  0.02252  0.51879  0.59010  1.0000
  O   O120      1.0  0.99841  0.53602  0.56089  1.0000
  C   C360      1.0  0.03412  0.54703  0.37911  1.0000
  H   H180      1.0  0.02691  0.55850  0.40587  1.0000
