data_image0
_chemical_formula_structural       C4HOCHCHC2HC2NCHC3NHC4HOCHCHC2HC2NCHC3NHC3HOCOCHCH3C2H2C3NHC2NCHC3HOCOCHCH3C2H2C3NHC2NCHC8HC2H2C2H2C4HC4NC2NH2C4NC2NH2C8HC2H2C2H2C4HC4NC2NH2C4NC2NH2C4OHC3OH2COC2H2C2H2C2H4C2H2C4NC2NH2C4NC2NH2C4OHC3OH2COC2H2C2H2C2H4C2H2C4NC2NH2C4NC2NH2C4HOC4OHC4HOC4OHC4HOC4OHC2H2C2H2C2H2C2H2C2H2C2H2C4H4C4H4C4H4C4NC2NH2C4NC2NH2C4NC2NH2C4NC2NH2C4NC2NH2C4NC2NH2C4HOC4OHC4HOC4OHC4HOC4OHC2H2C2H2C2H2C2H2C2H2C2H2C4H4C4H4C4H4C4NC2NH2C4NC2NH2C4NC2NH2C4NC2NH2C4NC2NH2C4NC2NH2
_chemical_formula_sum              "C336 H168 O24 N48"
_cell_length_a       46.7946
_cell_length_b       46.7946
_cell_length_c       14.8309
_cell_angle_alpha    90
_cell_angle_beta     90
_cell_angle_gamma    120

_space_group_name_H-M_alt    "P 1"
_space_group_IT_number       1

loop_
  _space_group_symop_operation_xyz
  'x, y, z'

loop_
  _atom_site_type_symbol
  _atom_site_label
  _atom_site_symmetry_multiplicity
  _atom_site_fract_x
  _atom_site_fract_y
  _atom_site_fract_z
  _atom_site_occupancy
  C   C1        1.0  0.02647  0.26465  0.34202  1.0000
  C   C2        1.0  0.04570  0.30001  0.34206  1.0000
  C   C3        1.0  0.08063  0.31799  0.34124  1.0000
  C   C4        1.0  0.09784  0.30034  0.34210  1.0000
  H   H1        1.0  0.03465  0.31399  0.34271  1.0000
  O   O1        1.0  0.13158  0.31721  0.34181  1.0000
  C   C5        1.0  0.11498  0.24858  0.26179  1.0000
  H   H2        1.0  0.10662  0.25225  0.20145  1.0000
  C   C6        1.0  0.11501  0.36912  0.26235  1.0000
  H   H3        1.0  0.10668  0.35707  0.20203  1.0000
  C   C7        1.0  0.08064  0.26548  0.34120  1.0000
  C   C8        1.0  0.04571  0.24852  0.34174  1.0000
  H   H4        1.0  0.03467  0.22349  0.34199  1.0000
  C   C9        1.0  0.11489  0.24889  0.42482  1.0000
  C   C10       1.0  0.09928  0.24909  0.34288  1.0000
  N   N1        1.0  0.10275  0.25186  0.50568  1.0000
  C   C11       1.0  0.11769  0.25408  0.58574  1.0000
  H   H5        1.0  0.10752  0.25628  0.64439  1.0000
  C   C12       1.0  0.09923  0.35301  0.34355  1.0000
  C   C13       1.0  0.11483  0.36890  0.42532  1.0000
  C   C14       1.0  0.11765  0.36657  0.58622  1.0000
  N   N2        1.0  0.10269  0.35381  0.50618  1.0000
  H   H6        1.0  0.10748  0.35423  0.64490  1.0000
  C   C15       1.0  0.02647  0.76465  0.34202  1.0000
  C   C16       1.0  0.04570  0.80001  0.34206  1.0000
  C   C17       1.0  0.08063  0.81799  0.34124  1.0000
  C   C18       1.0  0.09784  0.80034  0.34210  1.0000
  H   H7        1.0  0.03465  0.81399  0.34271  1.0000
  O   O2        1.0  0.13158  0.81722  0.34181  1.0000
  C   C19       1.0  0.11498  0.74858  0.26179  1.0000
  H   H8        1.0  0.10662  0.75225  0.20145  1.0000
  C   C20       1.0  0.11501  0.86911  0.26235  1.0000
  H   H9        1.0  0.10668  0.85706  0.20203  1.0000
  C   C21       1.0  0.08064  0.76548  0.34120  1.0000
  C   C22       1.0  0.04570  0.74852  0.34174  1.0000
  H   H10       1.0  0.03466  0.72349  0.34199  1.0000
  C   C23       1.0  0.11489  0.74889  0.42482  1.0000
  C   C24       1.0  0.09928  0.74909  0.34288  1.0000
  N   N3        1.0  0.10275  0.75186  0.50568  1.0000
  C   C25       1.0  0.11769  0.75408  0.58574  1.0000
  H   H11       1.0  0.10752  0.75628  0.64439  1.0000
  C   C26       1.0  0.09923  0.85301  0.34355  1.0000
  C   C27       1.0  0.11483  0.86890  0.42532  1.0000
  C   C28       1.0  0.11765  0.86657  0.58622  1.0000
  N   N4        1.0  0.10269  0.85381  0.50618  1.0000
  H   H12       1.0  0.10748  0.85422  0.64490  1.0000
  C   C29       1.0  0.21420  0.24849  0.34167  1.0000
  C   C30       1.0  0.19623  0.26545  0.34142  1.0000
  C   C31       1.0  0.21389  0.30031  0.34250  1.0000
  H   H13       1.0  0.20022  0.22347  0.34190  1.0000
  O   O3        1.0  0.19702  0.31718  0.34229  1.0000
  C   C32       1.0  0.21389  0.41641  0.34211  1.0000
  O   O4        1.0  0.19703  0.38267  0.34185  1.0000
  C   C33       1.0  0.14510  0.24857  0.26185  1.0000
  H   H14       1.0  0.15717  0.25220  0.20161  1.0000
  C   C34       1.0  0.14511  0.39928  0.26235  1.0000
  H   H15       1.0  0.15719  0.40758  0.20205  1.0000
  H   H16       1.0  0.13834  0.32062  0.40549  1.0000
  H   H17       1.0  0.19366  0.32056  0.40599  1.0000
  C   C35       1.0  0.19624  0.43361  0.34130  1.0000
  C   C36       1.0  0.21421  0.46855  0.34203  1.0000
  H   H18       1.0  0.19364  0.37592  0.40553  1.0000
  H   H19       1.0  0.20023  0.47959  0.34275  1.0000
  C   C37       1.0  0.16119  0.24904  0.34312  1.0000
  C   C38       1.0  0.14537  0.24887  0.42496  1.0000
  C   C39       1.0  0.14765  0.25404  0.58585  1.0000
  N   N5        1.0  0.16043  0.25181  0.50588  1.0000
  H   H20       1.0  0.15999  0.25625  0.64457  1.0000
  C   C40       1.0  0.14532  0.39938  0.42534  1.0000
  C   C41       1.0  0.16122  0.41501  0.34359  1.0000
  N   N6        1.0  0.16040  0.41152  0.50621  1.0000
  C   C42       1.0  0.14763  0.39656  0.58623  1.0000
  H   H21       1.0  0.15998  0.40671  0.64493  1.0000
  C   C43       1.0  0.21421  0.74849  0.34167  1.0000
  C   C44       1.0  0.19623  0.76545  0.34142  1.0000
  C   C45       1.0  0.21389  0.80031  0.34250  1.0000
  H   H22       1.0  0.20022  0.72347  0.34190  1.0000
  O   O5        1.0  0.19702  0.81718  0.34229  1.0000
  C   C46       1.0  0.21389  0.91641  0.34211  1.0000
  O   O6        1.0  0.19703  0.88267  0.34185  1.0000
  C   C47       1.0  0.14510  0.74857  0.26185  1.0000
  H   H23       1.0  0.15717  0.75220  0.20161  1.0000
  C   C48       1.0  0.14511  0.89928  0.26235  1.0000
  H   H24       1.0  0.15719  0.90758  0.20205  1.0000
  H   H25       1.0  0.13834  0.82062  0.40549  1.0000
  H   H26       1.0  0.19366  0.82057  0.40599  1.0000
  C   C49       1.0  0.19624  0.93361  0.34130  1.0000
  C   C50       1.0  0.21421  0.96855  0.34203  1.0000
  H   H27       1.0  0.19364  0.87592  0.40553  1.0000
  H   H28       1.0  0.20023  0.97959  0.34275  1.0000
  C   C51       1.0  0.16120  0.74904  0.34312  1.0000
  C   C52       1.0  0.14537  0.74887  0.42496  1.0000
  C   C53       1.0  0.14765  0.75404  0.58585  1.0000
  N   N7        1.0  0.16043  0.75181  0.50588  1.0000
  H   H29       1.0  0.15999  0.75625  0.64457  1.0000
  C   C54       1.0  0.14533  0.89938  0.42534  1.0000
  C   C55       1.0  0.16122  0.91501  0.34359  1.0000
  N   N8        1.0  0.16040  0.91152  0.50621  1.0000
  C   C56       1.0  0.14763  0.89656  0.58623  1.0000
  H   H30       1.0  0.15998  0.90671  0.64493  1.0000
  C   C57       1.0  0.24957  0.26463  0.34177  1.0000
  C   C58       1.0  0.26751  0.24671  0.34176  1.0000
  C   C59       1.0  0.24958  0.48777  0.34193  1.0000
  C   C60       1.0  0.26571  0.46855  0.34163  1.0000
  C   C61       1.0  0.24875  0.43361  0.34111  1.0000
  C   C62       1.0  0.26751  0.02363  0.34196  1.0000
  C   C63       1.0  0.26833  0.07780  0.34132  1.0000
  C   C64       1.0  0.25137  0.04286  0.34170  1.0000
  H   H31       1.0  0.22634  0.03182  0.34180  1.0000
  C   C65       1.0  0.26562  0.36912  0.26217  1.0000
  C   C66       1.0  0.26570  0.39929  0.26185  1.0000
  H   H32       1.0  0.26187  0.40751  0.20151  1.0000
  H   H33       1.0  0.26190  0.35700  0.20197  1.0000
  C   C67       1.0  0.25143  0.14223  0.26183  1.0000
  C   C68       1.0  0.25145  0.11212  0.26181  1.0000
  H   H34       1.0  0.25510  0.10372  0.20152  1.0000
  H   H35       1.0  0.25508  0.15429  0.20155  1.0000
  C   C69       1.0  0.24874  0.31797  0.34145  1.0000
  C   C70       1.0  0.26571  0.30000  0.34177  1.0000
  C   C71       1.0  0.25137  0.21135  0.34161  1.0000
  C   C72       1.0  0.26834  0.19337  0.34134  1.0000
  H   H36       1.0  0.22635  0.19736  0.34183  1.0000
  C   C73       1.0  0.26515  0.41500  0.34287  1.0000
  C   C74       1.0  0.26538  0.39944  0.42486  1.0000
  C   C75       1.0  0.26537  0.36894  0.42505  1.0000
  C   C76       1.0  0.26515  0.35298  0.34344  1.0000
  N   N9        1.0  0.26242  0.35391  0.50601  1.0000
  C   C77       1.0  0.26021  0.36671  0.58595  1.0000
  C   C78       1.0  0.26023  0.39671  0.58578  1.0000
  N   N10       1.0  0.26245  0.41162  0.50567  1.0000
  H   H37       1.0  0.25803  0.35441  0.64472  1.0000
  H   H38       1.0  0.25806  0.40691  0.64441  1.0000
  C   C79       1.0  0.25194  0.09642  0.34293  1.0000
  C   C80       1.0  0.25173  0.11204  0.42485  1.0000
  C   C81       1.0  0.25173  0.14253  0.42495  1.0000
  C   C82       1.0  0.25192  0.15834  0.34309  1.0000
  N   N11       1.0  0.25469  0.15760  0.50585  1.0000
  C   C83       1.0  0.25691  0.14483  0.58585  1.0000
  C   C84       1.0  0.25688  0.11484  0.58579  1.0000
  N   N12       1.0  0.25467  0.09989  0.50572  1.0000
  H   H39       1.0  0.25911  0.15717  0.64455  1.0000
  H   H40       1.0  0.25910  0.10468  0.64444  1.0000
  C   C85       1.0  0.24957  0.76463  0.34177  1.0000
  C   C86       1.0  0.26751  0.74671  0.34176  1.0000
  C   C87       1.0  0.24958  0.98777  0.34193  1.0000
  C   C88       1.0  0.26571  0.96855  0.34163  1.0000
  C   C89       1.0  0.24875  0.93361  0.34111  1.0000
  C   C90       1.0  0.26751  0.52363  0.34196  1.0000
  C   C91       1.0  0.26834  0.57780  0.34132  1.0000
  C   C92       1.0  0.25137  0.54286  0.34170  1.0000
  H   H41       1.0  0.22634  0.53182  0.34180  1.0000
  C   C93       1.0  0.26562  0.86912  0.26217  1.0000
  C   C94       1.0  0.26570  0.89929  0.26185  1.0000
  H   H42       1.0  0.26187  0.90751  0.20151  1.0000
  H   H43       1.0  0.26190  0.85700  0.20197  1.0000
  C   C95       1.0  0.25143  0.64223  0.26183  1.0000
  C   C96       1.0  0.25145  0.61212  0.26181  1.0000
  H   H44       1.0  0.25510  0.60372  0.20152  1.0000
  H   H45       1.0  0.25508  0.65429  0.20155  1.0000
  C   C97       1.0  0.24874  0.81797  0.34145  1.0000
  C   C98       1.0  0.26571  0.79999  0.34177  1.0000
  C   C99       1.0  0.25137  0.71135  0.34161  1.0000
  C   C100      1.0  0.26834  0.69337  0.34134  1.0000
  H   H46       1.0  0.22635  0.69736  0.34183  1.0000
  C   C101      1.0  0.26515  0.91500  0.34287  1.0000
  C   C102      1.0  0.26538  0.89944  0.42486  1.0000
  C   C103      1.0  0.26537  0.86894  0.42505  1.0000
  C   C104      1.0  0.26515  0.85298  0.34344  1.0000
  N   N13       1.0  0.26242  0.85391  0.50601  1.0000
  C   C105      1.0  0.26021  0.86671  0.58595  1.0000
  C   C106      1.0  0.26022  0.89670  0.58578  1.0000
  N   N14       1.0  0.26244  0.91163  0.50567  1.0000
  H   H47       1.0  0.25804  0.85441  0.64472  1.0000
  H   H48       1.0  0.25806  0.90691  0.64441  1.0000
  C   C107      1.0  0.25194  0.59642  0.34293  1.0000
  C   C108      1.0  0.25173  0.61204  0.42485  1.0000
  C   C109      1.0  0.25173  0.64253  0.42495  1.0000
  C   C110      1.0  0.25192  0.65834  0.34309  1.0000
  N   N15       1.0  0.25469  0.65760  0.50585  1.0000
  C   C111      1.0  0.25691  0.64483  0.58585  1.0000
  C   C112      1.0  0.25688  0.61484  0.58579  1.0000
  N   N16       1.0  0.25467  0.59989  0.50572  1.0000
  H   H49       1.0  0.25911  0.65717  0.64455  1.0000
  H   H50       1.0  0.25910  0.60468  0.64444  1.0000
  C   C113      1.0  0.49061  0.24672  0.34204  1.0000
  C   C114      1.0  0.41925  0.21104  0.34210  1.0000
  C   C115      1.0  0.43645  0.19338  0.34130  1.0000
  C   C116      1.0  0.47139  0.21136  0.34196  1.0000
  O   O7        1.0  0.38551  0.19416  0.34175  1.0000
  H   H51       1.0  0.48244  0.19738  0.34246  1.0000
  C   C117      1.0  0.30320  0.21103  0.34243  1.0000
  C   C118      1.0  0.32086  0.24589  0.34140  1.0000
  C   C119      1.0  0.30288  0.26285  0.34180  1.0000
  O   O8        1.0  0.32006  0.19416  0.34228  1.0000
  H   H52       1.0  0.31686  0.28787  0.34223  1.0000
  H   H53       1.0  0.29074  0.47959  0.34181  1.0000
  C   C120      1.0  0.30319  0.09499  0.34233  1.0000
  O   O9        1.0  0.32007  0.12873  0.34204  1.0000
  C   C121      1.0  0.40212  0.26277  0.26199  1.0000
  C   C122      1.0  0.37197  0.26274  0.26222  1.0000
  H   H54       1.0  0.35982  0.25892  0.20205  1.0000
  H   H55       1.0  0.41034  0.25890  0.20169  1.0000
  C   C123      1.0  0.37201  0.11209  0.26227  1.0000
  C   C124      1.0  0.40217  0.14220  0.26204  1.0000
  H   H56       1.0  0.41045  0.15424  0.20171  1.0000
  H   H57       1.0  0.35991  0.10371  0.20205  1.0000
  C   C125      1.0  0.47138  0.26286  0.34190  1.0000
  C   C126      1.0  0.43644  0.24589  0.34126  1.0000
  H   H58       1.0  0.37874  0.19078  0.40542  1.0000
  H   H59       1.0  0.48242  0.28788  0.34225  1.0000
  H   H60       1.0  0.32344  0.19081  0.40598  1.0000
  H   H61       1.0  0.29074  0.31398  0.34210  1.0000
  C   C127      1.0  0.30287  0.04285  0.34203  1.0000
  C   C128      1.0  0.32084  0.07779  0.34146  1.0000
  H   H62       1.0  0.32345  0.13549  0.40573  1.0000
  H   H63       1.0  0.31685  0.03181  0.34261  1.0000
  C   C129      1.0  0.35588  0.26230  0.34358  1.0000
  C   C130      1.0  0.37180  0.26254  0.42526  1.0000
  C   C131      1.0  0.40229  0.26254  0.42511  1.0000
  C   C132      1.0  0.41781  0.26230  0.34312  1.0000
  N   N17       1.0  0.41447  0.25962  0.50593  1.0000
  C   C133      1.0  0.39955  0.25743  0.58602  1.0000
  C   C134      1.0  0.36955  0.25741  0.58615  1.0000
  N   N18       1.0  0.35675  0.25960  0.50618  1.0000
  H   H64       1.0  0.40973  0.25523  0.64466  1.0000
  H   H65       1.0  0.35723  0.25521  0.64488  1.0000
  C   C135      1.0  0.41785  0.15836  0.34317  1.0000
  C   C136      1.0  0.40230  0.14258  0.42513  1.0000
  C   C137      1.0  0.37180  0.11211  0.42519  1.0000
  C   C138      1.0  0.35585  0.09640  0.34352  1.0000
  N   N19       1.0  0.35674  0.10000  0.50611  1.0000
  C   C139      1.0  0.36952  0.11499  0.58610  1.0000
  C   C140      1.0  0.39952  0.14496  0.58603  1.0000
  N   N20       1.0  0.41447  0.15769  0.50597  1.0000
  H   H66       1.0  0.35719  0.10484  0.64482  1.0000
  H   H67       1.0  0.40970  0.15732  0.64469  1.0000
  C   C141      1.0  0.49061  0.74672  0.34204  1.0000
  C   C142      1.0  0.41925  0.71104  0.34210  1.0000
  C   C143      1.0  0.43645  0.69338  0.34130  1.0000
  C   C144      1.0  0.47139  0.71136  0.34196  1.0000
  O   O10       1.0  0.38551  0.69416  0.34175  1.0000
  H   H68       1.0  0.48244  0.69738  0.34246  1.0000
  C   C145      1.0  0.30320  0.71103  0.34243  1.0000
  C   C146      1.0  0.32086  0.74589  0.34140  1.0000
  C   C147      1.0  0.30288  0.76285  0.34180  1.0000
  O   O11       1.0  0.32006  0.69416  0.34228  1.0000
  H   H69       1.0  0.31686  0.78787  0.34223  1.0000
  H   H70       1.0  0.29074  0.97959  0.34181  1.0000
  C   C148      1.0  0.30319  0.59499  0.34233  1.0000
  O   O12       1.0  0.32006  0.62873  0.34204  1.0000
  C   C149      1.0  0.40212  0.76277  0.26199  1.0000
  C   C150      1.0  0.37197  0.76274  0.26222  1.0000
  H   H71       1.0  0.35982  0.75892  0.20205  1.0000
  H   H72       1.0  0.41034  0.75890  0.20169  1.0000
  C   C151      1.0  0.37201  0.61209  0.26227  1.0000
  C   C152      1.0  0.40217  0.64220  0.26204  1.0000
  H   H73       1.0  0.41045  0.65424  0.20171  1.0000
  H   H74       1.0  0.35991  0.60371  0.20205  1.0000
  C   C153      1.0  0.47138  0.76286  0.34190  1.0000
  C   C154      1.0  0.43644  0.74589  0.34126  1.0000
  H   H75       1.0  0.37874  0.69078  0.40542  1.0000
  H   H76       1.0  0.48242  0.78788  0.34225  1.0000
  H   H77       1.0  0.32344  0.69081  0.40598  1.0000
  H   H78       1.0  0.29073  0.81398  0.34210  1.0000
  C   C155      1.0  0.30287  0.54285  0.34203  1.0000
  C   C156      1.0  0.32085  0.57779  0.34146  1.0000
  H   H79       1.0  0.32345  0.63549  0.40573  1.0000
  H   H80       1.0  0.31685  0.53181  0.34261  1.0000
  C   C157      1.0  0.35588  0.76230  0.34358  1.0000
  C   C158      1.0  0.37180  0.76254  0.42526  1.0000
  C   C159      1.0  0.40229  0.76255  0.42511  1.0000
  C   C160      1.0  0.41781  0.76230  0.34312  1.0000
  N   N21       1.0  0.41448  0.75962  0.50593  1.0000
  C   C161      1.0  0.39955  0.75743  0.58602  1.0000
  C   C162      1.0  0.36956  0.75741  0.58615  1.0000
  N   N22       1.0  0.35675  0.75960  0.50618  1.0000
  H   H81       1.0  0.40973  0.75523  0.64466  1.0000
  H   H82       1.0  0.35723  0.75521  0.64488  1.0000
  C   C163      1.0  0.41785  0.65836  0.34317  1.0000
  C   C164      1.0  0.40230  0.64259  0.42513  1.0000
  C   C165      1.0  0.37180  0.61211  0.42519  1.0000
  C   C166      1.0  0.35585  0.59640  0.34352  1.0000
  N   N23       1.0  0.35674  0.60001  0.50611  1.0000
  C   C167      1.0  0.36952  0.61499  0.58610  1.0000
  C   C168      1.0  0.39951  0.64496  0.58603  1.0000
  N   N24       1.0  0.41447  0.65769  0.50597  1.0000
  H   H83       1.0  0.35719  0.60484  0.64482  1.0000
  H   H84       1.0  0.40970  0.65732  0.64469  1.0000
  C   C169      1.0  0.52647  0.26465  0.34202  1.0000
  C   C170      1.0  0.54570  0.30001  0.34206  1.0000
  C   C171      1.0  0.58063  0.31799  0.34124  1.0000
  C   C172      1.0  0.59783  0.30034  0.34210  1.0000
  H   H85       1.0  0.53465  0.31399  0.34271  1.0000
  O   O13       1.0  0.63158  0.31721  0.34181  1.0000
  C   C173      1.0  0.99061  0.24672  0.34204  1.0000
  C   C174      1.0  0.91925  0.21104  0.34210  1.0000
  C   C175      1.0  0.93645  0.19338  0.34130  1.0000
  C   C176      1.0  0.97139  0.21136  0.34196  1.0000
  O   O14       1.0  0.88551  0.19416  0.34175  1.0000
  H   H86       1.0  0.98244  0.19738  0.34246  1.0000
  C   C177      1.0  0.74957  0.26463  0.34177  1.0000
  C   C178      1.0  0.71421  0.24849  0.34167  1.0000
  C   C179      1.0  0.69623  0.26545  0.34142  1.0000
  C   C180      1.0  0.71389  0.30031  0.34250  1.0000
  H   H87       1.0  0.70022  0.22347  0.34190  1.0000
  O   O15       1.0  0.69702  0.31718  0.34229  1.0000
  C   C181      1.0  0.76751  0.24671  0.34176  1.0000
  C   C182      1.0  0.80320  0.21103  0.34243  1.0000
  C   C183      1.0  0.82086  0.24589  0.34140  1.0000
  C   C184      1.0  0.80288  0.26285  0.34180  1.0000
  O   O16       1.0  0.82006  0.19416  0.34228  1.0000
  H   H88       1.0  0.81686  0.28787  0.34223  1.0000
  C   C185      1.0  0.74957  0.48777  0.34193  1.0000
  C   C186      1.0  0.76571  0.46855  0.34163  1.0000
  C   C187      1.0  0.74875  0.43361  0.34111  1.0000
  C   C188      1.0  0.71389  0.41641  0.34211  1.0000
  H   H89       1.0  0.79074  0.47959  0.34181  1.0000
  O   O17       1.0  0.69702  0.38267  0.34185  1.0000
  C   C189      1.0  0.76751  0.02363  0.34196  1.0000
  C   C190      1.0  0.80319  0.09499  0.34233  1.0000
  C   C191      1.0  0.76834  0.07780  0.34132  1.0000
  C   C192      1.0  0.75137  0.04286  0.34170  1.0000
  O   O18       1.0  0.82006  0.12873  0.34204  1.0000
  H   H90       1.0  0.72634  0.03182  0.34180  1.0000
  C   C193      1.0  0.61498  0.24858  0.26179  1.0000
  C   C194      1.0  0.64510  0.24857  0.26185  1.0000
  H   H91       1.0  0.65717  0.25220  0.20161  1.0000
  H   H92       1.0  0.60662  0.25225  0.20145  1.0000
  C   C195      1.0  0.76562  0.36912  0.26217  1.0000
  C   C196      1.0  0.76570  0.39929  0.26185  1.0000
  H   H93       1.0  0.76187  0.40751  0.20151  1.0000
  H   H94       1.0  0.76190  0.35700  0.20197  1.0000
  C   C197      1.0  0.64511  0.39928  0.26235  1.0000
  C   C198      1.0  0.61501  0.36912  0.26235  1.0000
  H   H95       1.0  0.60668  0.35707  0.20203  1.0000
  H   H96       1.0  0.65719  0.40758  0.20205  1.0000
  C   C199      1.0  0.90212  0.26277  0.26199  1.0000
  C   C200      1.0  0.87197  0.26274  0.26222  1.0000
  H   H97       1.0  0.85982  0.25892  0.20205  1.0000
  H   H98       1.0  0.91034  0.25890  0.20169  1.0000
  C   C201      1.0  0.75143  0.14223  0.26183  1.0000
  C   C202      1.0  0.75145  0.11212  0.26181  1.0000
  H   H99       1.0  0.75510  0.10372  0.20152  1.0000
  H   H100      1.0  0.75508  0.15429  0.20155  1.0000
  C   C203      1.0  0.87201  0.11209  0.26227  1.0000
  C   C204      1.0  0.90217  0.14220  0.26204  1.0000
  H   H101      1.0  0.91044  0.15424  0.20171  1.0000
  H   H102      1.0  0.85991  0.10371  0.20205  1.0000
  C   C205      1.0  0.58065  0.26548  0.34120  1.0000
  C   C206      1.0  0.54571  0.24852  0.34174  1.0000
  C   C207      1.0  0.97138  0.26286  0.34190  1.0000
  C   C208      1.0  0.93644  0.24589  0.34126  1.0000
  H   H103      1.0  0.63834  0.32062  0.40549  1.0000
  H   H104      1.0  0.87874  0.19078  0.40542  1.0000
  H   H105      1.0  0.53467  0.22349  0.34199  1.0000
  H   H106      1.0  0.98242  0.28788  0.34225  1.0000
  C   C209      1.0  0.74874  0.31797  0.34145  1.0000
  C   C210      1.0  0.76571  0.30000  0.34177  1.0000
  C   C211      1.0  0.75137  0.21135  0.34161  1.0000
  C   C212      1.0  0.76834  0.19337  0.34134  1.0000
  H   H107      1.0  0.69366  0.32056  0.40599  1.0000
  H   H108      1.0  0.82344  0.19081  0.40598  1.0000
  H   H109      1.0  0.79073  0.31398  0.34210  1.0000
  H   H110      1.0  0.72635  0.19736  0.34183  1.0000
  C   C213      1.0  0.69623  0.43361  0.34130  1.0000
  C   C214      1.0  0.71421  0.46855  0.34203  1.0000
  C   C215      1.0  0.80287  0.04285  0.34203  1.0000
  C   C216      1.0  0.82084  0.07779  0.34146  1.0000
  H   H111      1.0  0.69364  0.37592  0.40553  1.0000
  H   H112      1.0  0.82345  0.13549  0.40573  1.0000
  H   H113      1.0  0.70023  0.47959  0.34275  1.0000
  H   H114      1.0  0.81685  0.03181  0.34261  1.0000
  C   C217      1.0  0.66119  0.24904  0.34312  1.0000
  C   C218      1.0  0.64537  0.24887  0.42496  1.0000
  C   C219      1.0  0.61489  0.24889  0.42482  1.0000
  C   C220      1.0  0.59928  0.24909  0.34288  1.0000
  N   N25       1.0  0.60274  0.25186  0.50568  1.0000
  C   C221      1.0  0.61769  0.25408  0.58574  1.0000
  C   C222      1.0  0.64765  0.25404  0.58585  1.0000
  N   N26       1.0  0.66043  0.25181  0.50588  1.0000
  H   H115      1.0  0.60752  0.25628  0.64439  1.0000
  H   H116      1.0  0.65999  0.25625  0.64457  1.0000
  C   C223      1.0  0.76515  0.41500  0.34287  1.0000
  C   C224      1.0  0.76538  0.39944  0.42486  1.0000
  C   C225      1.0  0.76536  0.36894  0.42505  1.0000
  C   C226      1.0  0.76515  0.35298  0.34344  1.0000
  N   N27       1.0  0.76242  0.35391  0.50601  1.0000
  C   C227      1.0  0.76021  0.36671  0.58595  1.0000
  C   C228      1.0  0.76023  0.39671  0.58578  1.0000
  N   N28       1.0  0.76245  0.41162  0.50567  1.0000
  H   H117      1.0  0.75803  0.35441  0.64472  1.0000
  H   H118      1.0  0.75806  0.40691  0.64441  1.0000
  C   C229      1.0  0.59923  0.35301  0.34355  1.0000
  C   C230      1.0  0.61483  0.36890  0.42532  1.0000
  C   C231      1.0  0.64532  0.39938  0.42534  1.0000
  C   C232      1.0  0.66122  0.41501  0.34359  1.0000
  N   N29       1.0  0.66040  0.41152  0.50621  1.0000
  C   C233      1.0  0.64763  0.39656  0.58623  1.0000
  C   C234      1.0  0.61765  0.36657  0.58622  1.0000
  N   N30       1.0  0.60269  0.35381  0.50618  1.0000
  H   H119      1.0  0.65998  0.40671  0.64493  1.0000
  H   H120      1.0  0.60748  0.35423  0.64490  1.0000
  C   C235      1.0  0.85588  0.26230  0.34358  1.0000
  C   C236      1.0  0.87180  0.26254  0.42526  1.0000
  C   C237      1.0  0.90229  0.26254  0.42511  1.0000
  C   C238      1.0  0.91781  0.26230  0.34312  1.0000
  N   N31       1.0  0.91448  0.25962  0.50593  1.0000
  C   C239      1.0  0.89955  0.25743  0.58602  1.0000
  C   C240      1.0  0.86955  0.25741  0.58615  1.0000
  N   N32       1.0  0.85675  0.25960  0.50618  1.0000
  H   H121      1.0  0.90973  0.25523  0.64466  1.0000
  H   H122      1.0  0.85723  0.25521  0.64488  1.0000
  C   C241      1.0  0.75194  0.09642  0.34293  1.0000
  C   C242      1.0  0.75173  0.11204  0.42485  1.0000
  C   C243      1.0  0.75173  0.14253  0.42495  1.0000
  C   C244      1.0  0.75192  0.15834  0.34309  1.0000
  N   N33       1.0  0.75469  0.15760  0.50585  1.0000
  C   C245      1.0  0.75691  0.14483  0.58585  1.0000
  C   C246      1.0  0.75688  0.11484  0.58579  1.0000
  N   N34       1.0  0.75467  0.09989  0.50572  1.0000
  H   H123      1.0  0.75911  0.15717  0.64455  1.0000
  H   H124      1.0  0.75910  0.10468  0.64444  1.0000
  C   C247      1.0  0.91785  0.15836  0.34317  1.0000
  C   C248      1.0  0.90230  0.14258  0.42513  1.0000
  C   C249      1.0  0.87180  0.11211  0.42519  1.0000
  C   C250      1.0  0.85585  0.09640  0.34352  1.0000
  N   N35       1.0  0.85674  0.10000  0.50611  1.0000
  C   C251      1.0  0.86952  0.11499  0.58610  1.0000
  C   C252      1.0  0.89951  0.14496  0.58603  1.0000
  N   N36       1.0  0.91447  0.15769  0.50597  1.0000
  H   H125      1.0  0.85719  0.10484  0.64482  1.0000
  H   H126      1.0  0.90970  0.15732  0.64469  1.0000
  C   C253      1.0  0.52647  0.76465  0.34202  1.0000
  C   C254      1.0  0.54570  0.80001  0.34206  1.0000
  C   C255      1.0  0.58063  0.81799  0.34124  1.0000
  C   C256      1.0  0.59784  0.80034  0.34210  1.0000
  H   H127      1.0  0.53465  0.81399  0.34271  1.0000
  O   O19       1.0  0.63158  0.81722  0.34181  1.0000
  C   C257      1.0  0.99061  0.74672  0.34204  1.0000
  C   C258      1.0  0.91925  0.71104  0.34210  1.0000
  C   C259      1.0  0.93645  0.69338  0.34130  1.0000
  C   C260      1.0  0.97139  0.71136  0.34196  1.0000
  O   O20       1.0  0.88551  0.69416  0.34175  1.0000
  H   H128      1.0  0.98244  0.69738  0.34246  1.0000
  C   C261      1.0  0.74957  0.76463  0.34177  1.0000
  C   C262      1.0  0.71420  0.74849  0.34167  1.0000
  C   C263      1.0  0.69623  0.76545  0.34142  1.0000
  C   C264      1.0  0.71388  0.80031  0.34250  1.0000
  H   H129      1.0  0.70022  0.72347  0.34190  1.0000
  O   O21       1.0  0.69702  0.81718  0.34229  1.0000
  C   C265      1.0  0.76751  0.74671  0.34176  1.0000
  C   C266      1.0  0.80320  0.71103  0.34243  1.0000
  C   C267      1.0  0.82086  0.74589  0.34140  1.0000
  C   C268      1.0  0.80288  0.76285  0.34180  1.0000
  O   O22       1.0  0.82006  0.69416  0.34228  1.0000
  H   H130      1.0  0.81686  0.78787  0.34223  1.0000
  C   C269      1.0  0.74957  0.98777  0.34193  1.0000
  C   C270      1.0  0.76571  0.96855  0.34163  1.0000
  C   C271      1.0  0.74875  0.93361  0.34111  1.0000
  C   C272      1.0  0.71389  0.91641  0.34211  1.0000
  H   H131      1.0  0.79074  0.97959  0.34181  1.0000
  O   O23       1.0  0.69703  0.88267  0.34185  1.0000
  C   C273      1.0  0.76751  0.52363  0.34196  1.0000
  C   C274      1.0  0.80319  0.59499  0.34233  1.0000
  C   C275      1.0  0.76834  0.57780  0.34132  1.0000
  C   C276      1.0  0.75137  0.54286  0.34170  1.0000
  O   O24       1.0  0.82006  0.62873  0.34204  1.0000
  H   H132      1.0  0.72634  0.53182  0.34180  1.0000
  C   C277      1.0  0.61497  0.74858  0.26179  1.0000
  C   C278      1.0  0.64510  0.74857  0.26185  1.0000
  H   H133      1.0  0.65717  0.75220  0.20161  1.0000
  H   H134      1.0  0.60662  0.75225  0.20145  1.0000
  C   C279      1.0  0.76562  0.86912  0.26217  1.0000
  C   C280      1.0  0.76570  0.89929  0.26185  1.0000
  H   H135      1.0  0.76186  0.90751  0.20151  1.0000
  H   H136      1.0  0.76190  0.85700  0.20197  1.0000
  C   C281      1.0  0.64511  0.89928  0.26235  1.0000
  C   C282      1.0  0.61501  0.86911  0.26235  1.0000
  H   H137      1.0  0.60668  0.85706  0.20203  1.0000
  H   H138      1.0  0.65719  0.90758  0.20205  1.0000
  C   C283      1.0  0.90212  0.76277  0.26199  1.0000
  C   C284      1.0  0.87197  0.76274  0.26222  1.0000
  H   H139      1.0  0.85982  0.75892  0.20205  1.0000
  H   H140      1.0  0.91034  0.75890  0.20169  1.0000
  C   C285      1.0  0.75143  0.64223  0.26183  1.0000
  C   C286      1.0  0.75145  0.61212  0.26181  1.0000
  H   H141      1.0  0.75510  0.60372  0.20152  1.0000
  H   H142      1.0  0.75508  0.65429  0.20155  1.0000
  C   C287      1.0  0.87201  0.61209  0.26227  1.0000
  C   C288      1.0  0.90217  0.64220  0.26204  1.0000
  H   H143      1.0  0.91044  0.65424  0.20171  1.0000
  H   H144      1.0  0.85991  0.60371  0.20205  1.0000
  C   C289      1.0  0.58064  0.76548  0.34120  1.0000
  C   C290      1.0  0.54571  0.74852  0.34174  1.0000
  C   C291      1.0  0.97138  0.76286  0.34190  1.0000
  C   C292      1.0  0.93644  0.74589  0.34126  1.0000
  H   H145      1.0  0.63834  0.82062  0.40549  1.0000
  H   H146      1.0  0.87873  0.69078  0.40542  1.0000
  H   H147      1.0  0.53466  0.72349  0.34199  1.0000
  H   H148      1.0  0.98242  0.78788  0.34225  1.0000
  C   C293      1.0  0.74874  0.81797  0.34145  1.0000
  C   C294      1.0  0.76571  0.79999  0.34177  1.0000
  C   C295      1.0  0.75137  0.71135  0.34161  1.0000
  C   C296      1.0  0.76834  0.69337  0.34134  1.0000
  H   H149      1.0  0.69366  0.82057  0.40599  1.0000
  H   H150      1.0  0.82344  0.69081  0.40598  1.0000
  H   H151      1.0  0.79073  0.81398  0.34210  1.0000
  H   H152      1.0  0.72635  0.69736  0.34183  1.0000
  C   C297      1.0  0.69624  0.93361  0.34130  1.0000
  C   C298      1.0  0.71421  0.96855  0.34203  1.0000
  C   C299      1.0  0.80287  0.54285  0.34203  1.0000
  C   C300      1.0  0.82085  0.57779  0.34146  1.0000
  H   H153      1.0  0.69364  0.87592  0.40553  1.0000
  H   H154      1.0  0.82345  0.63549  0.40573  1.0000
  H   H155      1.0  0.70023  0.97959  0.34275  1.0000
  H   H156      1.0  0.81685  0.53181  0.34261  1.0000
  C   C301      1.0  0.66119  0.74904  0.34312  1.0000
  C   C302      1.0  0.64537  0.74887  0.42496  1.0000
  C   C303      1.0  0.61489  0.74889  0.42482  1.0000
  C   C304      1.0  0.59928  0.74909  0.34288  1.0000
  N   N37       1.0  0.60274  0.75186  0.50568  1.0000
  C   C305      1.0  0.61769  0.75408  0.58574  1.0000
  C   C306      1.0  0.64765  0.75404  0.58585  1.0000
  N   N38       1.0  0.66043  0.75181  0.50588  1.0000
  H   H157      1.0  0.60752  0.75628  0.64439  1.0000
  H   H158      1.0  0.65999  0.75625  0.64457  1.0000
  C   C307      1.0  0.76515  0.91500  0.34287  1.0000
  C   C308      1.0  0.76538  0.89944  0.42486  1.0000
  C   C309      1.0  0.76537  0.86894  0.42505  1.0000
  C   C310      1.0  0.76514  0.85298  0.34344  1.0000
  N   N39       1.0  0.76242  0.85391  0.50601  1.0000
  C   C311      1.0  0.76021  0.86671  0.58595  1.0000
  C   C312      1.0  0.76022  0.89670  0.58578  1.0000
  N   N40       1.0  0.76244  0.91163  0.50567  1.0000
  H   H159      1.0  0.75803  0.85441  0.64472  1.0000
  H   H160      1.0  0.75805  0.90691  0.64441  1.0000
  C   C313      1.0  0.59923  0.85301  0.34355  1.0000
  C   C314      1.0  0.61483  0.86890  0.42532  1.0000
  C   C315      1.0  0.64532  0.89938  0.42534  1.0000
  C   C316      1.0  0.66122  0.91501  0.34359  1.0000
  N   N41       1.0  0.66040  0.91152  0.50621  1.0000
  C   C317      1.0  0.64763  0.89656  0.58623  1.0000
  C   C318      1.0  0.61765  0.86657  0.58622  1.0000
  N   N42       1.0  0.60269  0.85381  0.50618  1.0000
  H   H161      1.0  0.65997  0.90671  0.64493  1.0000
  H   H162      1.0  0.60748  0.85422  0.64490  1.0000
  C   C319      1.0  0.85588  0.76230  0.34358  1.0000
  C   C320      1.0  0.87180  0.76254  0.42526  1.0000
  C   C321      1.0  0.90229  0.76255  0.42511  1.0000
  C   C322      1.0  0.91781  0.76230  0.34312  1.0000
  N   N43       1.0  0.91448  0.75962  0.50593  1.0000
  C   C323      1.0  0.89955  0.75743  0.58602  1.0000
  C   C324      1.0  0.86955  0.75741  0.58615  1.0000
  N   N44       1.0  0.85675  0.75960  0.50618  1.0000
  H   H163      1.0  0.90973  0.75523  0.64466  1.0000
  H   H164      1.0  0.85723  0.75521  0.64488  1.0000
  C   C325      1.0  0.75194  0.59642  0.34293  1.0000
  C   C326      1.0  0.75173  0.61204  0.42485  1.0000
  C   C327      1.0  0.75173  0.64253  0.42495  1.0000
  C   C328      1.0  0.75192  0.65834  0.34309  1.0000
  N   N45       1.0  0.75469  0.65760  0.50585  1.0000
  C   C329      1.0  0.75691  0.64483  0.58585  1.0000
  C   C330      1.0  0.75688  0.61484  0.58579  1.0000
  N   N46       1.0  0.75467  0.59989  0.50572  1.0000
  H   H165      1.0  0.75911  0.65717  0.64455  1.0000
  H   H166      1.0  0.75910  0.60468  0.64444  1.0000
  C   C331      1.0  0.91785  0.65836  0.34317  1.0000
  C   C332      1.0  0.90230  0.64259  0.42513  1.0000
  C   C333      1.0  0.87180  0.61211  0.42519  1.0000
  C   C334      1.0  0.85585  0.59640  0.34352  1.0000
  N   N47       1.0  0.85674  0.60001  0.50611  1.0000
  C   C335      1.0  0.86952  0.61499  0.58610  1.0000
  C   C336      1.0  0.89951  0.64496  0.58603  1.0000
  N   N48       1.0  0.91447  0.65769  0.50597  1.0000
  H   H167      1.0  0.85719  0.60484  0.64482  1.0000
  H   H168      1.0  0.90970  0.65732  0.64469  1.0000
