data_image0
_chemical_formula_structural       C3HCH3CHC3HCH3CHC3HCH3CHC3HCH3CHC3HCH3CHC3HCH3CHC3HCH3CHC3HCH3CHC3HCH3CHC3HCH3CHC3HCH3CHC3HCH3CHC3HCH3CHC3HCH3CHC3HCH3CHC3HCH3CHC3HCH3CHC3HCH3CHC3HCH3CHC3HCH3CHC3HCH3CHC3HCH3CHC3HCH3CHC3HCH3CHC3HCH3CHC3HCH3CHC3HCH3CHC3HCH3CHC3HCH3CHC3HCH3CHC6H3N3C6H3N3C6H3N3C6H3N3C6H3N3C6H3N3C6H3N3C6H3N3C6H3N3C6H3N3C6H3N3C6H3N3C6H3N3C6H3N3C6H3N3C6H3N3C6H3N3C6H3N3C6H3N3C6H3N3C3HCH3CHC3HCH3CHC3HCH3CHC3HCH3CHC3HCH3CHC3HCH3CHC3HCH3CHC3HCH3CHC3HCH3CHC3HCH3CHC3HCH3CHC3HCH3CHC3HCH3CHC3HCH3CHC3HCH3CHC3HCH3CHC3HCH3CHC3HCH3CHC3HCH3CHC3HCH3CHC3HCH3CHC3HCH3CHC3HCH3CHC3HCH3CHC3HCH3CHC3HCH3CHC3HCH3CHC3HCH3CHC3HCH3CHC3HCH3CH
_chemical_formula_sum              "C420 H360 N60"
_cell_length_a       67.445
_cell_length_b       67.445
_cell_length_c       14.6714
_cell_angle_alpha    90
_cell_angle_beta     90
_cell_angle_gamma    90

_space_group_name_H-M_alt    "P 1"
_space_group_IT_number       1

loop_
  _space_group_symop_operation_xyz
  'x, y, z'

loop_
  _atom_site_type_symbol
  _atom_site_label
  _atom_site_symmetry_multiplicity
  _atom_site_fract_x
  _atom_site_fract_y
  _atom_site_fract_z
  _atom_site_occupancy
  C   C1        1.0  0.32965  0.05421  0.33440  1.0000
  C   C2        1.0  0.34279  0.05935  0.26208  1.0000
  C   C3        1.0  0.36273  0.06423  0.28260  1.0000
  H   H1        1.0  0.37181  0.06881  0.23059  1.0000
  C   C4        1.0  0.33678  0.06041  0.16442  1.0000
  H   H2        1.0  0.32171  0.05522  0.15214  1.0000
  H   H3        1.0  0.34665  0.05118  0.12336  1.0000
  H   H4        1.0  0.33785  0.07570  0.14049  1.0000
  C   C5        1.0  0.30915  0.05328  0.32199  1.0000
  H   H5        1.0  0.30293  0.06417  0.28635  1.0000
  C   C6        1.0  0.69283  0.96814  0.33332  1.0000
  C   C7        1.0  0.67971  0.96297  0.26094  1.0000
  C   C8        1.0  0.65977  0.95808  0.28140  1.0000
  H   H6        1.0  0.65071  0.95345  0.22939  1.0000
  C   C9        1.0  0.68574  0.96189  0.16329  1.0000
  H   H7        1.0  0.70079  0.96710  0.15102  1.0000
  H   H8        1.0  0.67586  0.97109  0.12214  1.0000
  H   H9        1.0  0.68469  0.94659  0.13948  1.0000
  C   C10       1.0  0.71332  0.96913  0.32088  1.0000
  H   H10       1.0  0.71957  0.95827  0.28516  1.0000
  C   C11       1.0  0.96818  0.32963  0.33443  1.0000
  C   C12       1.0  0.96304  0.34278  0.26211  1.0000
  C   C13       1.0  0.95815  0.36271  0.28261  1.0000
  H   H11       1.0  0.95358  0.37180  0.23061  1.0000
  C   C14       1.0  0.96198  0.33676  0.16444  1.0000
  H   H12       1.0  0.96717  0.32170  0.15217  1.0000
  H   H13       1.0  0.97120  0.34663  0.12338  1.0000
  H   H14       1.0  0.94669  0.33783  0.14052  1.0000
  C   C15       1.0  0.96911  0.30914  0.32203  1.0000
  H   H15       1.0  0.95822  0.30291  0.28639  1.0000
  C   C16       1.0  0.05425  0.69281  0.33330  1.0000
  C   C17       1.0  0.05942  0.67969  0.26092  1.0000
  C   C18       1.0  0.06431  0.65976  0.28139  1.0000
  H   H16       1.0  0.06893  0.65069  0.22939  1.0000
  C   C19       1.0  0.06049  0.68572  0.16328  1.0000
  H   H17       1.0  0.05529  0.70078  0.15099  1.0000
  H   H18       1.0  0.05130  0.67584  0.12213  1.0000
  H   H19       1.0  0.07579  0.68468  0.13946  1.0000
  C   C20       1.0  0.05326  0.71331  0.32086  1.0000
  H   H20       1.0  0.06412  0.71956  0.28513  1.0000
  C   C21       1.0  0.14987  0.55528  0.34754  1.0000
  C   C22       1.0  0.16261  0.55052  0.27322  1.0000
  C   C23       1.0  0.18337  0.54980  0.28793  1.0000
  H   H21       1.0  0.19249  0.54690  0.23357  1.0000
  C   C24       1.0  0.15551  0.54670  0.17862  1.0000
  H   H22       1.0  0.13952  0.54823  0.17081  1.0000
  H   H23       1.0  0.15956  0.53166  0.15829  1.0000
  H   H24       1.0  0.16248  0.55716  0.13170  1.0000
  C   C25       1.0  0.12928  0.55513  0.34020  1.0000
  H   H25       1.0  0.12284  0.54281  0.31786  1.0000
  C   C26       1.0  0.87250  0.46708  0.34668  1.0000
  C   C27       1.0  0.85975  0.47185  0.27243  1.0000
  C   C28       1.0  0.83899  0.47256  0.28721  1.0000
  H   H26       1.0  0.82986  0.47548  0.23291  1.0000
  C   C29       1.0  0.86683  0.47569  0.17782  1.0000
  H   H27       1.0  0.88282  0.47417  0.16996  1.0000
  H   H28       1.0  0.86278  0.49073  0.15757  1.0000
  H   H29       1.0  0.85986  0.46524  0.13088  1.0000
  C   C30       1.0  0.89309  0.46725  0.33931  1.0000
  H   H30       1.0  0.89952  0.47958  0.31707  1.0000
  C   C31       1.0  0.55530  0.87252  0.34755  1.0000
  C   C32       1.0  0.55054  0.85978  0.27322  1.0000
  C   C33       1.0  0.54982  0.83902  0.28791  1.0000
  H   H31       1.0  0.54692  0.82990  0.23355  1.0000
  C   C34       1.0  0.54671  0.86688  0.17862  1.0000
  H   H32       1.0  0.54824  0.88287  0.17082  1.0000
  H   H33       1.0  0.53168  0.86283  0.15829  1.0000
  H   H34       1.0  0.55718  0.85991  0.13170  1.0000
  C   C35       1.0  0.55515  0.89310  0.34021  1.0000
  H   H35       1.0  0.54283  0.89955  0.31789  1.0000
  C   C36       1.0  0.46709  0.14990  0.34669  1.0000
  C   C37       1.0  0.47186  0.16265  0.27245  1.0000
  C   C38       1.0  0.47258  0.18341  0.28725  1.0000
  H   H36       1.0  0.47550  0.19254  0.23295  1.0000
  C   C39       1.0  0.47570  0.15557  0.17784  1.0000
  H   H37       1.0  0.47417  0.13958  0.16996  1.0000
  H   H38       1.0  0.49074  0.15962  0.15758  1.0000
  H   H39       1.0  0.46525  0.16255  0.13090  1.0000
  C   C40       1.0  0.46726  0.12931  0.33930  1.0000
  H   H40       1.0  0.47959  0.12288  0.31705  1.0000
  C   C41       1.0  0.19771  0.13711  0.34848  1.0000
  C   C42       1.0  0.20115  0.12383  0.27441  1.0000
  C   C43       1.0  0.21253  0.10636  0.28875  1.0000
  H   H41       1.0  0.21554  0.09739  0.23403  1.0000
  C   C44       1.0  0.19396  0.12752  0.17987  1.0000
  H   H42       1.0  0.18598  0.14147  0.17234  1.0000
  H   H43       1.0  0.18403  0.11556  0.15920  1.0000
  H   H44       1.0  0.20655  0.12792  0.13305  1.0000
  C   C45       1.0  0.18561  0.15397  0.34160  1.0000
  H   H45       1.0  0.17175  0.15205  0.32052  1.0000
  C   C46       1.0  0.82472  0.88529  0.34844  1.0000
  C   C47       1.0  0.82131  0.89857  0.27437  1.0000
  C   C48       1.0  0.80992  0.91604  0.28865  1.0000
  H   H46       1.0  0.80694  0.92503  0.23395  1.0000
  C   C49       1.0  0.82852  0.89489  0.17987  1.0000
  H   H47       1.0  0.83650  0.88094  0.17238  1.0000
  H   H48       1.0  0.83846  0.90685  0.15929  1.0000
  H   H49       1.0  0.81595  0.89450  0.13297  1.0000
  C   C50       1.0  0.83682  0.86843  0.34164  1.0000
  H   H50       1.0  0.85069  0.87035  0.32068  1.0000
  C   C51       1.0  0.88530  0.19767  0.34852  1.0000
  C   C52       1.0  0.89857  0.20111  0.27443  1.0000
  C   C53       1.0  0.91603  0.21250  0.28877  1.0000
  H   H51       1.0  0.92501  0.21551  0.23405  1.0000
  C   C54       1.0  0.89488  0.19392  0.17990  1.0000
  H   H52       1.0  0.88094  0.18593  0.17238  1.0000
  H   H53       1.0  0.90685  0.18400  0.15924  1.0000
  H   H54       1.0  0.89448  0.20651  0.13307  1.0000
  C   C55       1.0  0.86843  0.18558  0.34162  1.0000
  H   H55       1.0  0.87035  0.17172  0.32054  1.0000
  C   C56       1.0  0.13710  0.82470  0.34837  1.0000
  C   C57       1.0  0.12382  0.82129  0.27430  1.0000
  C   C58       1.0  0.10635  0.80990  0.28860  1.0000
  H   H56       1.0  0.09736  0.80692  0.23389  1.0000
  C   C59       1.0  0.12750  0.82850  0.17980  1.0000
  H   H57       1.0  0.14145  0.83648  0.17230  1.0000
  H   H58       1.0  0.11554  0.83844  0.15922  1.0000
  H   H59       1.0  0.12789  0.81593  0.13291  1.0000
  C   C60       1.0  0.15396  0.83681  0.34156  1.0000
  H   H60       1.0  0.15204  0.85067  0.32058  1.0000
  C   C61       1.0  0.30179  0.60193  0.33709  1.0000
  C   C62       1.0  0.30543  0.61511  0.26275  1.0000
  C   C63       1.0  0.31687  0.63252  0.27685  1.0000
  H   H61       1.0  0.31955  0.64168  0.22242  1.0000
  C   C64       1.0  0.29798  0.61166  0.16837  1.0000
  H   H62       1.0  0.29044  0.59749  0.15992  1.0000
  H   H63       1.0  0.31038  0.61184  0.12047  1.0000
  H   H64       1.0  0.28763  0.62342  0.14973  1.0000
  C   C65       1.0  0.28797  0.58641  0.33130  1.0000
  H   H65       1.0  0.27499  0.58997  0.30390  1.0000
  C   C66       1.0  0.72060  0.42044  0.33682  1.0000
  C   C67       1.0  0.71695  0.40728  0.26245  1.0000
  C   C68       1.0  0.70552  0.38986  0.27659  1.0000
  H   H66       1.0  0.70284  0.38070  0.22215  1.0000
  C   C69       1.0  0.72439  0.41073  0.16803  1.0000
  H   H67       1.0  0.73192  0.42489  0.15955  1.0000
  H   H68       1.0  0.71198  0.41053  0.12019  1.0000
  H   H69       1.0  0.73474  0.39897  0.14937  1.0000
  C   C70       1.0  0.73440  0.43598  0.33088  1.0000
  H   H70       1.0  0.74738  0.43244  0.30331  1.0000
  C   C71       1.0  0.60195  0.72059  0.33697  1.0000
  C   C72       1.0  0.61513  0.71695  0.26261  1.0000
  C   C73       1.0  0.63254  0.70552  0.27670  1.0000
  H   H71       1.0  0.64170  0.70284  0.22224  1.0000
  C   C74       1.0  0.61167  0.72440  0.16823  1.0000
  H   H72       1.0  0.59750  0.73194  0.15981  1.0000
  H   H73       1.0  0.61185  0.71200  0.12034  1.0000
  H   H74       1.0  0.62343  0.73475  0.14957  1.0000
  C   C75       1.0  0.58643  0.73441  0.33120  1.0000
  H   H75       1.0  0.58999  0.74740  0.30380  1.0000
  C   C76       1.0  0.42046  0.30179  0.33689  1.0000
  C   C77       1.0  0.40729  0.30544  0.26252  1.0000
  C   C78       1.0  0.38987  0.31687  0.27668  1.0000
  H   H76       1.0  0.38071  0.31955  0.22226  1.0000
  C   C79       1.0  0.41074  0.29801  0.16810  1.0000
  H   H77       1.0  0.42490  0.29048  0.15960  1.0000
  H   H78       1.0  0.41054  0.31042  0.12027  1.0000
  H   H79       1.0  0.39898  0.28765  0.14943  1.0000
  C   C80       1.0  0.43600  0.28799  0.33093  1.0000
  H   H80       1.0  0.43246  0.27502  0.30333  1.0000
  C   C81       1.0  0.22901  0.91990  0.34201  1.0000
  C   C82       1.0  0.22942  0.93368  0.26820  1.0000
  C   C83       1.0  0.23422  0.95389  0.28490  1.0000
  H   H81       1.0  0.23550  0.96332  0.23035  1.0000
  C   C84       1.0  0.22556  0.92790  0.17179  1.0000
  H   H82       1.0  0.22113  0.91246  0.16409  1.0000
  H   H83       1.0  0.23890  0.93029  0.13109  1.0000
  H   H84       1.0  0.21362  0.93702  0.14403  1.0000
  C   C85       1.0  0.22857  0.89926  0.32880  1.0000
  H   H85       1.0  0.23925  0.89351  0.29029  1.0000
  C   C86       1.0  0.79338  0.10248  0.34167  1.0000
  C   C87       1.0  0.79296  0.08870  0.26789  1.0000
  C   C88       1.0  0.78817  0.06848  0.28469  1.0000
  H   H86       1.0  0.78686  0.05906  0.23017  1.0000
  C   C89       1.0  0.79678  0.09445  0.17142  1.0000
  H   H87       1.0  0.80121  0.10990  0.16360  1.0000
  H   H88       1.0  0.78343  0.09206  0.13083  1.0000
  H   H89       1.0  0.80871  0.08532  0.14361  1.0000
  C   C90       1.0  0.79388  0.12312  0.32833  1.0000
  H   H90       1.0  0.78328  0.12888  0.28941  1.0000
  C   C91       1.0  0.10249  0.22899  0.34203  1.0000
  C   C92       1.0  0.08871  0.22940  0.26824  1.0000
  C   C93       1.0  0.06850  0.23421  0.28494  1.0000
  H   H91       1.0  0.05907  0.23548  0.23041  1.0000
  C   C94       1.0  0.09448  0.22554  0.17182  1.0000
  H   H92       1.0  0.10993  0.22111  0.16411  1.0000
  H   H93       1.0  0.09209  0.23888  0.13111  1.0000
  H   H94       1.0  0.08536  0.21360  0.14408  1.0000
  C   C95       1.0  0.12313  0.22856  0.32880  1.0000
  H   H95       1.0  0.12888  0.23923  0.29023  1.0000
  C   C96       1.0  0.91991  0.79337  0.34164  1.0000
  C   C97       1.0  0.93369  0.79295  0.26785  1.0000
  C   C98       1.0  0.95391  0.78816  0.28465  1.0000
  H   H96       1.0  0.96333  0.78684  0.23012  1.0000
  C   C99       1.0  0.92794  0.79676  0.17138  1.0000
  H   H97       1.0  0.91249  0.80119  0.16357  1.0000
  H   H98       1.0  0.93033  0.78340  0.13081  1.0000
  H   H99       1.0  0.93706  0.80869  0.14356  1.0000
  C   C100      1.0  0.89927  0.79387  0.32831  1.0000
  H   H100      1.0  0.89351  0.78326  0.28943  1.0000
  C   C101      1.0  0.28347  0.46196  0.34019  1.0000
  C   C102      1.0  0.28456  0.44828  0.26599  1.0000
  C   C103      1.0  0.28936  0.42808  0.28273  1.0000
  H   H101      1.0  0.28901  0.41829  0.22922  1.0000
  C   C104      1.0  0.28025  0.45383  0.16964  1.0000
  H   H102      1.0  0.27796  0.46968  0.16001  1.0000
  H   H103      1.0  0.26696  0.44609  0.14639  1.0000
  H   H104      1.0  0.29268  0.44952  0.12620  1.0000
  C   C105      1.0  0.27439  0.48066  0.33129  1.0000
  H   H105      1.0  0.26140  0.48074  0.29932  1.0000
  C   C106      1.0  0.73889  0.56042  0.33998  1.0000
  C   C107      1.0  0.73776  0.57411  0.26587  1.0000
  C   C108      1.0  0.73299  0.59432  0.28274  1.0000
  H   H106      1.0  0.73328  0.60411  0.22925  1.0000
  C   C109      1.0  0.74200  0.56857  0.16946  1.0000
  H   H107      1.0  0.74430  0.55271  0.15980  1.0000
  H   H108      1.0  0.75528  0.57631  0.14603  1.0000
  H   H109      1.0  0.72955  0.57287  0.12620  1.0000
  C   C110      1.0  0.74799  0.54173  0.33109  1.0000
  H   H110      1.0  0.76097  0.54166  0.29904  1.0000
  C   C111      1.0  0.46198  0.73890  0.34021  1.0000
  C   C112      1.0  0.44830  0.73783  0.26602  1.0000
  C   C113      1.0  0.42810  0.73304  0.28271  1.0000
  H   H111      1.0  0.41831  0.73339  0.22917  1.0000
  C   C114      1.0  0.45386  0.74214  0.16969  1.0000
  H   H112      1.0  0.46972  0.74444  0.16010  1.0000
  H   H113      1.0  0.44613  0.75544  0.14646  1.0000
  H   H114      1.0  0.44956  0.72973  0.12621  1.0000
  C   C115      1.0  0.48067  0.74800  0.33141  1.0000
  H   H115      1.0  0.48073  0.76101  0.29960  1.0000
  C   C116      1.0  0.56044  0.28351  0.34002  1.0000
  C   C117      1.0  0.57413  0.28464  0.26590  1.0000
  C   C118      1.0  0.59433  0.28942  0.28275  1.0000
  H   H116      1.0  0.60412  0.28913  0.22926  1.0000
  C   C119      1.0  0.56858  0.28040  0.16949  1.0000
  H   H117      1.0  0.55273  0.27810  0.15984  1.0000
  H   H118      1.0  0.57632  0.26713  0.14604  1.0000
  H   H119      1.0  0.57288  0.29286  0.12623  1.0000
  C   C120      1.0  0.54174  0.27441  0.33113  1.0000
  H   H120      1.0  0.54167  0.26143  0.29908  1.0000
  C   C121      1.0  0.25931  0.29329  0.34115  1.0000
  C   C122      1.0  0.24775  0.28562  0.26769  1.0000
  C   C123      1.0  0.23353  0.27052  0.28466  1.0000
  H   H121      1.0  0.22612  0.26444  0.23035  1.0000
  C   C124      1.0  0.25009  0.29226  0.17142  1.0000
  H   H122      1.0  0.26050  0.30451  0.16355  1.0000
  H   H123      1.0  0.23580  0.29726  0.14501  1.0000
  H   H124      1.0  0.25531  0.27992  0.12965  1.0000
  C   C125      1.0  0.27632  0.30491  0.32711  1.0000
  H   H125      1.0  0.28647  0.29945  0.28481  1.0000
  C   C126      1.0  0.76314  0.72907  0.34121  1.0000
  C   C127      1.0  0.77469  0.73673  0.26776  1.0000
  C   C128      1.0  0.78890  0.75186  0.28467  1.0000
  H   H126      1.0  0.79633  0.75791  0.23036  1.0000
  C   C129      1.0  0.77237  0.73006  0.17153  1.0000
  H   H127      1.0  0.76197  0.71781  0.16374  1.0000
  H   H128      1.0  0.78667  0.72506  0.14519  1.0000
  H   H129      1.0  0.76716  0.74238  0.12967  1.0000
  C   C130      1.0  0.74611  0.71748  0.32726  1.0000
  H   H130      1.0  0.73595  0.72298  0.28510  1.0000
  C   C131      1.0  0.72908  0.25928  0.34124  1.0000
  C   C132      1.0  0.73676  0.24774  0.26777  1.0000
  C   C133      1.0  0.75188  0.23351  0.28468  1.0000
  H   H131      1.0  0.75794  0.22611  0.23033  1.0000
  C   C134      1.0  0.73011  0.25008  0.17150  1.0000
  H   H132      1.0  0.71787  0.26048  0.16367  1.0000
  H   H133      1.0  0.72512  0.23579  0.14507  1.0000
  H   H134      1.0  0.74245  0.25530  0.12974  1.0000
  C   C135      1.0  0.71749  0.27630  0.32723  1.0000
  H   H135      1.0  0.72298  0.28646  0.28503  1.0000
  C   C136      1.0  0.29331  0.76311  0.34123  1.0000
  C   C137      1.0  0.28565  0.77466  0.26778  1.0000
  C   C138      1.0  0.27052  0.78887  0.28468  1.0000
  H   H136      1.0  0.26447  0.79630  0.23037  1.0000
  C   C139      1.0  0.29232  0.77234  0.17155  1.0000
  H   H137      1.0  0.30457  0.76193  0.16375  1.0000
  H   H138      1.0  0.29732  0.78663  0.14520  1.0000
  H   H139      1.0  0.27999  0.76712  0.12969  1.0000
  C   C140      1.0  0.30490  0.74607  0.32728  1.0000
  H   H140      1.0  0.29940  0.73591  0.28514  1.0000
  C   C141      1.0  0.52891  0.99982  0.33922  1.0000
  C   C142      1.0  0.52065  0.01036  0.26418  1.0000
  C   C143      1.0  0.50303  0.02141  0.27743  1.0000
  H   H141      1.0  0.49694  0.02870  0.22279  1.0000
  C   C144      1.0  0.52920  0.01027  0.17049  1.0000
  H   H142      1.0  0.54227  0.00089  0.16374  1.0000
  H   H143      1.0  0.53339  0.02533  0.15123  1.0000
  H   H144      1.0  0.51815  0.00484  0.12213  1.0000
  C   C145      1.0  0.54688  0.98978  0.33353  1.0000
  H   H145      1.0  0.55871  0.99734  0.31304  1.0000
  C   C146      1.0  0.02258  0.52890  0.33920  1.0000
  C   C147      1.0  0.01202  0.52064  0.26418  1.0000
  C   C148      1.0  0.00098  0.50301  0.27743  1.0000
  H   H146      1.0  0.99368  0.49692  0.22279  1.0000
  C   C149      1.0  0.01210  0.52919  0.17050  1.0000
  H   H147      1.0  0.02148  0.54227  0.16376  1.0000
  H   H148      1.0  0.99704  0.53338  0.15128  1.0000
  H   H149      1.0  0.01753  0.51815  0.12211  1.0000
  C   C150      1.0  0.03260  0.54687  0.33353  1.0000
  H   H150      1.0  0.02503  0.55869  0.31317  1.0000
  C   C151      1.0  0.27815  0.03764  0.35352  1.0000
  C   C152      1.0  0.26990  0.01840  0.35447  1.0000
  C   C153      1.0  0.24910  0.01512  0.35419  1.0000
  C   C154      1.0  0.23657  0.03210  0.35267  1.0000
  C   C155      1.0  0.24415  0.05177  0.35490  1.0000
  C   C156      1.0  0.26505  0.05403  0.35456  1.0000
  H   H151      1.0  0.22153  0.03008  0.35153  1.0000
  H   H152      1.0  0.27098  0.06795  0.35481  1.0000
  H   H153      1.0  0.27935  0.00654  0.35310  1.0000
  N   N1        1.0  0.29795  0.03969  0.35635  1.0000
  N   N2        1.0  0.24108  0.99666  0.35140  1.0000
  N   N3        1.0  0.23167  0.06756  0.35398  1.0000
  C   C157      1.0  0.74431  0.98475  0.35284  1.0000
  C   C158      1.0  0.75255  0.00400  0.35400  1.0000
  C   C159      1.0  0.77336  0.00728  0.35380  1.0000
  C   C160      1.0  0.78588  0.99030  0.35234  1.0000
  C   C161      1.0  0.77830  0.97063  0.35450  1.0000
  C   C162      1.0  0.75741  0.96836  0.35398  1.0000
  H   H154      1.0  0.80092  0.99232  0.35132  1.0000
  H   H155      1.0  0.75148  0.95444  0.35415  1.0000
  H   H156      1.0  0.74311  0.01586  0.35252  1.0000
  N   N4        1.0  0.72451  0.98270  0.35555  1.0000
  N   N5        1.0  0.78136  0.02574  0.35108  1.0000
  N   N6        1.0  0.79078  0.95483  0.35364  1.0000
  C   C163      1.0  0.98475  0.27813  0.35356  1.0000
  C   C164      1.0  0.00399  0.26989  0.35451  1.0000
  C   C165      1.0  0.00727  0.24908  0.35424  1.0000
  C   C166      1.0  0.99029  0.23656  0.35271  1.0000
  C   C167      1.0  0.97062  0.24414  0.35494  1.0000
  C   C168      1.0  0.96836  0.26504  0.35460  1.0000
  H   H157      1.0  0.99231  0.22152  0.35158  1.0000
  H   H158      1.0  0.95444  0.27097  0.35485  1.0000
  H   H159      1.0  0.01585  0.27934  0.35314  1.0000
  N   N7        1.0  0.98270  0.29794  0.35639  1.0000
  N   N8        1.0  0.02573  0.24107  0.35145  1.0000
  N   N9        1.0  0.95483  0.23165  0.35403  1.0000
  C   C169      1.0  0.03764  0.74430  0.35281  1.0000
  C   C170      1.0  0.01839  0.75254  0.35396  1.0000
  C   C171      1.0  0.01511  0.77334  0.35376  1.0000
  C   C172      1.0  0.03209  0.78587  0.35229  1.0000
  C   C173      1.0  0.05176  0.77829  0.35445  1.0000
  C   C174      1.0  0.05402  0.75739  0.35395  1.0000
  H   H160      1.0  0.03007  0.80091  0.35127  1.0000
  H   H161      1.0  0.06795  0.75146  0.35411  1.0000
  H   H162      1.0  0.00653  0.74309  0.35250  1.0000
  N   N10       1.0  0.03969  0.72449  0.35553  1.0000
  N   N11       1.0  0.99665  0.78135  0.35103  1.0000
  N   N12       1.0  0.06756  0.79077  0.35359  1.0000
  C   C175      1.0  0.24403  0.53845  0.36039  1.0000
  C   C176      1.0  0.25230  0.51920  0.35963  1.0000
  C   C177      1.0  0.27310  0.51589  0.35887  1.0000
  C   C178      1.0  0.28563  0.53286  0.35969  1.0000
  C   C179      1.0  0.27805  0.55253  0.35780  1.0000
  C   C180      1.0  0.25716  0.55483  0.35909  1.0000
  H   H163      1.0  0.30067  0.53083  0.36020  1.0000
  H   H164      1.0  0.25131  0.56877  0.35958  1.0000
  H   H165      1.0  0.24288  0.50733  0.36172  1.0000
  N   N13       1.0  0.22418  0.54020  0.35973  1.0000
  N   N14       1.0  0.28110  0.49742  0.36157  1.0000
  N   N15       1.0  0.29058  0.56829  0.35836  1.0000
  C   C181      1.0  0.77835  0.48393  0.35997  1.0000
  C   C182      1.0  0.77008  0.50318  0.35920  1.0000
  C   C183      1.0  0.74928  0.50649  0.35862  1.0000
  C   C184      1.0  0.73675  0.48953  0.35948  1.0000
  C   C185      1.0  0.74432  0.46985  0.35753  1.0000
  C   C186      1.0  0.76522  0.46756  0.35871  1.0000
  H   H166      1.0  0.72171  0.49155  0.36006  1.0000
  H   H167      1.0  0.77107  0.45361  0.35914  1.0000
  H   H168      1.0  0.77951  0.51506  0.36126  1.0000
  N   N16       1.0  0.79820  0.48217  0.35915  1.0000
  N   N17       1.0  0.74128  0.52496  0.36135  1.0000
  N   N18       1.0  0.73180  0.45409  0.35814  1.0000
  C   C187      1.0  0.53848  0.77835  0.36037  1.0000
  C   C188      1.0  0.51923  0.77008  0.35960  1.0000
  C   C189      1.0  0.51591  0.74928  0.35883  1.0000
  C   C190      1.0  0.53288  0.73675  0.35962  1.0000
  C   C191      1.0  0.55256  0.74433  0.35774  1.0000
  C   C192      1.0  0.55485  0.76523  0.35905  1.0000
  H   H169      1.0  0.53086  0.72171  0.36012  1.0000
  H   H170      1.0  0.56879  0.77108  0.35954  1.0000
  H   H171      1.0  0.50735  0.77951  0.36170  1.0000
  N   N19       1.0  0.54023  0.79820  0.35971  1.0000
  N   N20       1.0  0.49744  0.74128  0.36151  1.0000
  N   N21       1.0  0.56832  0.73180  0.35828  1.0000
  C   C193      1.0  0.48394  0.24404  0.36001  1.0000
  C   C194      1.0  0.50319  0.25231  0.35924  1.0000
  C   C195      1.0  0.50651  0.27311  0.35866  1.0000
  C   C196      1.0  0.48954  0.28564  0.35952  1.0000
  C   C197      1.0  0.46987  0.27807  0.35757  1.0000
  C   C198      1.0  0.46757  0.25717  0.35875  1.0000
  H   H172      1.0  0.49157  0.30068  0.36010  1.0000
  H   H173      1.0  0.45363  0.25132  0.35919  1.0000
  H   H174      1.0  0.51507  0.24289  0.36129  1.0000
  N   N22       1.0  0.48219  0.22420  0.35918  1.0000
  N   N23       1.0  0.52498  0.28112  0.36138  1.0000
  N   N24       1.0  0.45410  0.29059  0.35819  1.0000
  C   C199      1.0  0.18922  0.22624  0.35479  1.0000
  C   C200      1.0  0.16839  0.22914  0.35448  1.0000
  C   C201      1.0  0.15480  0.21303  0.35697  1.0000
  C   C202      1.0  0.16270  0.19355  0.35935  1.0000
  C   C203      1.0  0.18342  0.18985  0.35690  1.0000
  C   C204      1.0  0.19632  0.20642  0.35522  1.0000
  H   H175      1.0  0.15313  0.18181  0.36289  1.0000
  H   H176      1.0  0.21128  0.20395  0.35318  1.0000
  H   H177      1.0  0.16302  0.24332  0.35496  1.0000
  N   N25       1.0  0.20124  0.24230  0.35218  1.0000
  N   N26       1.0  0.13491  0.21531  0.36229  1.0000
  N   N27       1.0  0.19181  0.17170  0.35889  1.0000
  C   C205      1.0  0.83319  0.79615  0.35472  1.0000
  C   C206      1.0  0.85401  0.79325  0.35434  1.0000
  C   C207      1.0  0.86761  0.80936  0.35695  1.0000
  C   C208      1.0  0.85972  0.82884  0.35931  1.0000
  C   C209      1.0  0.83900  0.83254  0.35684  1.0000
  C   C210      1.0  0.82610  0.81598  0.35513  1.0000
  H   H178      1.0  0.86930  0.84058  0.36288  1.0000
  H   H179      1.0  0.81114  0.81846  0.35310  1.0000
  H   H180      1.0  0.85939  0.77907  0.35488  1.0000
  N   N28       1.0  0.82116  0.78010  0.35208  1.0000
  N   N29       1.0  0.88750  0.80707  0.36225  1.0000
  N   N30       1.0  0.83061  0.85070  0.35881  1.0000
  C   C211      1.0  0.79616  0.18920  0.35475  1.0000
  C   C212      1.0  0.79326  0.16838  0.35443  1.0000
  C   C213      1.0  0.80936  0.15478  0.35693  1.0000
  C   C214      1.0  0.82885  0.16267  0.35935  1.0000
  C   C215      1.0  0.83255  0.18340  0.35691  1.0000
  C   C216      1.0  0.81598  0.19629  0.35522  1.0000
  H   H181      1.0  0.84058  0.15310  0.36290  1.0000
  H   H182      1.0  0.81846  0.21126  0.35318  1.0000
  H   H183      1.0  0.77908  0.16300  0.35490  1.0000
  N   N31       1.0  0.78010  0.20122  0.35216  1.0000
  N   N32       1.0  0.80708  0.13490  0.36227  1.0000
  N   N33       1.0  0.85071  0.19179  0.35891  1.0000
  C   C217      1.0  0.22623  0.83317  0.35475  1.0000
  C   C218      1.0  0.22914  0.85399  0.35439  1.0000
  C   C219      1.0  0.21304  0.86759  0.35699  1.0000
  C   C220      1.0  0.19355  0.85970  0.35930  1.0000
  C   C221      1.0  0.18985  0.83898  0.35681  1.0000
  C   C222      1.0  0.20641  0.82608  0.35513  1.0000
  H   H184      1.0  0.18181  0.86928  0.36284  1.0000
  H   H185      1.0  0.20393  0.81112  0.35308  1.0000
  H   H186      1.0  0.24332  0.85937  0.35496  1.0000
  N   N34       1.0  0.24229  0.82114  0.35211  1.0000
  N   N35       1.0  0.21532  0.88748  0.36227  1.0000
  N   N36       1.0  0.17169  0.83059  0.35877  1.0000
  C   C223      1.0  0.33391  0.72670  0.35975  1.0000
  C   C224      1.0  0.35474  0.72951  0.36025  1.0000
  C   C225      1.0  0.36825  0.71334  0.35603  1.0000
  C   C226      1.0  0.36023  0.69391  0.35232  1.0000
  C   C227      1.0  0.33948  0.69032  0.35483  1.0000
  C   C228      1.0  0.32668  0.70694  0.35776  1.0000
  H   H187      1.0  0.36973  0.68213  0.34791  1.0000
  H   H188      1.0  0.31168  0.70461  0.35999  1.0000
  H   H189      1.0  0.36017  0.74367  0.36121  1.0000
  N   N37       1.0  0.32183  0.74264  0.36552  1.0000
  N   N38       1.0  0.38816  0.71554  0.35066  1.0000
  N   N39       1.0  0.33097  0.67221  0.35251  1.0000
  C   C229      1.0  0.68848  0.29568  0.35970  1.0000
  C   C230      1.0  0.66765  0.29288  0.36027  1.0000
  C   C231      1.0  0.65415  0.30904  0.35588  1.0000
  C   C232      1.0  0.66216  0.32847  0.35216  1.0000
  C   C233      1.0  0.68291  0.33207  0.35472  1.0000
  C   C234      1.0  0.69571  0.31544  0.35772  1.0000
  H   H190      1.0  0.65266  0.34025  0.34769  1.0000
  H   H191      1.0  0.71071  0.31777  0.35993  1.0000
  H   H192      1.0  0.66222  0.27871  0.36117  1.0000
  N   N40       1.0  0.70056  0.27975  0.36552  1.0000
  N   N41       1.0  0.63424  0.30682  0.35050  1.0000
  N   N42       1.0  0.69142  0.35017  0.35237  1.0000
  C   C235      1.0  0.72673  0.68847  0.35972  1.0000
  C   C236      1.0  0.72953  0.66764  0.36021  1.0000
  C   C237      1.0  0.71337  0.65414  0.35594  1.0000
  C   C238      1.0  0.69394  0.66215  0.35219  1.0000
  C   C239      1.0  0.69034  0.68290  0.35473  1.0000
  C   C240      1.0  0.70698  0.69570  0.35771  1.0000
  H   H193      1.0  0.68216  0.65265  0.34774  1.0000
  H   H194      1.0  0.70464  0.71070  0.35995  1.0000
  H   H195      1.0  0.74370  0.66221  0.36118  1.0000
  N   N43       1.0  0.74267  0.70055  0.36551  1.0000
  N   N44       1.0  0.71558  0.63423  0.35051  1.0000
  N   N45       1.0  0.67224  0.69141  0.35240  1.0000
  C   C241      1.0  0.29570  0.33391  0.35974  1.0000
  C   C242      1.0  0.29289  0.35474  0.36033  1.0000
  C   C243      1.0  0.30905  0.36824  0.35597  1.0000
  C   C244      1.0  0.32848  0.36022  0.35227  1.0000
  C   C245      1.0  0.33208  0.33947  0.35481  1.0000
  C   C246      1.0  0.31545  0.32667  0.35777  1.0000
  H   H196      1.0  0.34026  0.36973  0.34783  1.0000
  H   H197      1.0  0.31778  0.31168  0.35997  1.0000
  H   H198      1.0  0.27873  0.36017  0.36122  1.0000
  N   N46       1.0  0.27977  0.32182  0.36556  1.0000
  N   N47       1.0  0.30684  0.38815  0.35063  1.0000
  N   N48       1.0  0.35018  0.33097  0.35245  1.0000
  C   C247      1.0  0.42334  0.07244  0.35242  1.0000
  C   C248      1.0  0.43874  0.05827  0.34932  1.0000
  C   C249      1.0  0.45894  0.06399  0.35243  1.0000
  C   C250      1.0  0.46349  0.08445  0.35474  1.0000
  C   C251      1.0  0.44844  0.09912  0.35549  1.0000
  C   C252      1.0  0.42845  0.09280  0.35537  1.0000
  H   H199      1.0  0.47805  0.08869  0.35676  1.0000
  H   H200      1.0  0.41740  0.10321  0.35496  1.0000
  H   H201      1.0  0.43512  0.04357  0.34510  1.0000
  N   N49       1.0  0.40462  0.06600  0.34705  1.0000
  N   N50       1.0  0.47414  0.05123  0.35096  1.0000
  N   N51       1.0  0.45189  0.11868  0.35785  1.0000
  C   C253      1.0  0.59914  0.94991  0.35136  1.0000
  C   C254      1.0  0.58375  0.96409  0.34834  1.0000
  C   C255      1.0  0.56354  0.95840  0.35123  1.0000
  C   C256      1.0  0.55898  0.93796  0.35562  1.0000
  C   C257      1.0  0.57401  0.92326  0.35570  1.0000
  C   C258      1.0  0.59401  0.92955  0.35436  1.0000
  H   H202      1.0  0.54443  0.93373  0.35864  1.0000
  H   H203      1.0  0.60505  0.91913  0.35380  1.0000
  H   H204      1.0  0.58741  0.97880  0.34612  1.0000
  N   N52       1.0  0.61786  0.95634  0.34602  1.0000
  N   N53       1.0  0.54833  0.97116  0.35182  1.0000
  N   N54       1.0  0.57054  0.90370  0.35843  1.0000
  C   C259      1.0  0.94995  0.42333  0.35242  1.0000
  C   C260      1.0  0.96412  0.43873  0.34931  1.0000
  C   C261      1.0  0.95840  0.45893  0.35241  1.0000
  C   C262      1.0  0.93794  0.46348  0.35472  1.0000
  C   C263      1.0  0.92327  0.44843  0.35548  1.0000
  C   C264      1.0  0.92959  0.42844  0.35537  1.0000
  H   H205      1.0  0.93371  0.47804  0.35672  1.0000
  H   H206      1.0  0.91918  0.41739  0.35496  1.0000
  H   H207      1.0  0.97882  0.43511  0.34509  1.0000
  N   N55       1.0  0.95639  0.40461  0.34706  1.0000
  N   N56       1.0  0.97116  0.47413  0.35093  1.0000
  N   N57       1.0  0.90371  0.45188  0.35783  1.0000
  C   C265      1.0  0.07248  0.59912  0.35136  1.0000
  C   C266      1.0  0.05830  0.58374  0.34832  1.0000
  C   C267      1.0  0.06399  0.56352  0.35120  1.0000
  C   C268      1.0  0.08443  0.55897  0.35560  1.0000
  C   C269      1.0  0.09912  0.57400  0.35569  1.0000
  C   C270      1.0  0.09283  0.59399  0.35436  1.0000
  H   H208      1.0  0.08866  0.54441  0.35862  1.0000
  H   H209      1.0  0.10326  0.60503  0.35382  1.0000
  H   H210      1.0  0.04359  0.58740  0.34608  1.0000
  N   N58       1.0  0.06604  0.61785  0.34601  1.0000
  N   N59       1.0  0.05123  0.54831  0.35176  1.0000
  N   N60       1.0  0.11868  0.57053  0.35843  1.0000
  C   C271      1.0  0.37022  0.06401  0.37264  1.0000
  C   C272      1.0  0.35735  0.05799  0.44448  1.0000
  C   C273      1.0  0.33734  0.05332  0.42409  1.0000
  H   H211      1.0  0.32793  0.05003  0.47689  1.0000
  C   C274      1.0  0.36353  0.05663  0.54182  1.0000
  H   H212      1.0  0.37928  0.05943  0.55228  1.0000
  H   H213      1.0  0.36043  0.04177  0.56768  1.0000
  H   H214      1.0  0.35520  0.06736  0.58233  1.0000
  C   C275      1.0  0.38894  0.07206  0.38866  1.0000
  H   H215      1.0  0.38999  0.08309  0.43346  1.0000
  C   C276      1.0  0.65226  0.95833  0.37141  1.0000
  C   C277      1.0  0.66511  0.96439  0.44327  1.0000
  C   C278      1.0  0.68511  0.96908  0.42295  1.0000
  H   H216      1.0  0.69451  0.97242  0.47575  1.0000
  C   C279      1.0  0.65889  0.96579  0.54055  1.0000
  H   H217      1.0  0.64314  0.96296  0.55092  1.0000
  H   H218      1.0  0.66196  0.98067  0.56627  1.0000
  H   H219      1.0  0.66723  0.95510  0.58122  1.0000
  C   C280      1.0  0.63356  0.95024  0.38737  1.0000
  H   H220      1.0  0.63253  0.93918  0.43201  1.0000
  C   C281      1.0  0.95838  0.37021  0.37266  1.0000
  C   C282      1.0  0.96440  0.35734  0.44450  1.0000
  C   C283      1.0  0.96907  0.33733  0.42412  1.0000
  H   H221      1.0  0.97236  0.32792  0.47692  1.0000
  C   C284      1.0  0.96576  0.36352  0.54184  1.0000
  H   H222      1.0  0.96296  0.37927  0.55229  1.0000
  H   H223      1.0  0.98062  0.36042  0.56770  1.0000
  H   H224      1.0  0.95503  0.35519  0.58235  1.0000
  C   C285      1.0  0.95033  0.38892  0.38868  1.0000
  H   H225      1.0  0.93930  0.38998  0.43347  1.0000
  C   C286      1.0  0.06406  0.65225  0.37140  1.0000
  C   C287      1.0  0.05800  0.66509  0.44326  1.0000
  C   C288      1.0  0.05331  0.68510  0.42293  1.0000
  H   H226      1.0  0.04997  0.69449  0.47573  1.0000
  C   C289      1.0  0.05660  0.65888  0.54054  1.0000
  H   H227      1.0  0.05943  0.64313  0.55092  1.0000
  H   H228      1.0  0.04172  0.66194  0.56627  1.0000
  H   H229      1.0  0.06729  0.66722  0.58121  1.0000
  C   C290      1.0  0.07215  0.63355  0.38737  1.0000
  H   H230      1.0  0.08320  0.63252  0.43200  1.0000
  C   C291      1.0  0.19197  0.55352  0.37423  1.0000
  C   C292      1.0  0.17921  0.55824  0.44855  1.0000
  C   C293      1.0  0.15846  0.55893  0.43389  1.0000
  H   H231      1.0  0.14935  0.56205  0.48805  1.0000
  C   C294      1.0  0.18631  0.56229  0.54296  1.0000
  H   H232      1.0  0.20228  0.56062  0.55103  1.0000
  H   H233      1.0  0.17923  0.55204  0.59050  1.0000
  H   H234      1.0  0.18238  0.57742  0.56227  1.0000
  C   C295      1.0  0.21254  0.55467  0.38088  1.0000
  H   H235      1.0  0.21823  0.56730  0.40382  1.0000
  C   C296      1.0  0.83041  0.46883  0.37353  1.0000
  C   C297      1.0  0.84318  0.46413  0.44783  1.0000
  C   C298      1.0  0.86393  0.46343  0.43307  1.0000
  H   H236      1.0  0.87305  0.46032  0.48720  1.0000
  C   C299      1.0  0.83610  0.46009  0.54229  1.0000
  H   H237      1.0  0.82014  0.46176  0.55044  1.0000
  H   H238      1.0  0.84320  0.47035  0.58977  1.0000
  H   H239      1.0  0.84003  0.44496  0.56163  1.0000
  C   C300      1.0  0.80983  0.46771  0.38035  1.0000
  H   H240      1.0  0.80414  0.45509  0.40348  1.0000
  C   C301      1.0  0.55354  0.83042  0.37421  1.0000
  C   C302      1.0  0.55826  0.84317  0.44854  1.0000
  C   C303      1.0  0.55895  0.86393  0.43388  1.0000
  H   H241      1.0  0.56207  0.87303  0.48805  1.0000
  C   C304      1.0  0.56232  0.83607  0.54295  1.0000
  H   H242      1.0  0.56065  0.82010  0.55100  1.0000
  H   H243      1.0  0.55206  0.84315  0.59050  1.0000
  H   H244      1.0  0.57745  0.84000  0.56225  1.0000
  C   C305      1.0  0.55470  0.80984  0.38085  1.0000
  H   H245      1.0  0.56733  0.80415  0.40377  1.0000
  C   C306      1.0  0.46885  0.19199  0.37357  1.0000
  C   C307      1.0  0.46414  0.17922  0.44787  1.0000
  C   C308      1.0  0.46344  0.15846  0.43308  1.0000
  H   H246      1.0  0.46034  0.14934  0.48721  1.0000
  C   C309      1.0  0.46010  0.18628  0.54233  1.0000
  H   H247      1.0  0.46178  0.20225  0.55049  1.0000
  H   H248      1.0  0.47036  0.17919  0.58980  1.0000
  H   H249      1.0  0.44497  0.18235  0.56166  1.0000
  C   C310      1.0  0.46773  0.21256  0.38041  1.0000
  H   H250      1.0  0.45511  0.21825  0.40353  1.0000
  C   C311      1.0  0.22055  0.10126  0.37478  1.0000
  C   C312      1.0  0.21696  0.11449  0.44895  1.0000
  C   C313      1.0  0.20564  0.13197  0.43455  1.0000
  H   H251      1.0  0.20300  0.14118  0.48888  1.0000
  C   C314      1.0  0.22436  0.11105  0.54343  1.0000
  H   H252      1.0  0.23181  0.09685  0.55211  1.0000
  H   H253      1.0  0.21195  0.11135  0.59124  1.0000
  H   H254      1.0  0.23479  0.12276  0.56198  1.0000
  C   C315      1.0  0.23431  0.08569  0.38085  1.0000
  H   H255      1.0  0.24729  0.08923  0.40835  1.0000
  C   C316      1.0  0.80187  0.92113  0.37463  1.0000
  C   C317      1.0  0.80546  0.90791  0.44887  1.0000
  C   C318      1.0  0.81678  0.89043  0.43450  1.0000
  H   H256      1.0  0.81941  0.88122  0.48883  1.0000
  C   C319      1.0  0.79806  0.91136  0.54335  1.0000
  H   H257      1.0  0.79062  0.92556  0.55203  1.0000
  H   H258      1.0  0.81047  0.91105  0.59115  1.0000
  H   H259      1.0  0.78763  0.89965  0.56192  1.0000
  C   C320      1.0  0.78814  0.93673  0.38079  1.0000
  H   H260      1.0  0.77517  0.93321  0.40846  1.0000
  C   C321      1.0  0.92114  0.22053  0.37480  1.0000
  C   C322      1.0  0.90790  0.21695  0.44896  1.0000
  C   C323      1.0  0.89043  0.20562  0.43457  1.0000
  H   H261      1.0  0.88121  0.20298  0.48888  1.0000
  C   C324      1.0  0.91133  0.22436  0.54342  1.0000
  H   H262      1.0  0.92553  0.23182  0.55210  1.0000
  H   H263      1.0  0.91103  0.21196  0.59127  1.0000
  H   H264      1.0  0.89961  0.23478  0.56192  1.0000
  C   C325      1.0  0.93670  0.23430  0.38085  1.0000
  H   H265      1.0  0.93315  0.24728  0.40830  1.0000
  C   C326      1.0  0.10126  0.80185  0.37459  1.0000
  C   C327      1.0  0.11448  0.80544  0.44881  1.0000
  C   C328      1.0  0.13196  0.81676  0.43443  1.0000
  H   H266      1.0  0.14117  0.81940  0.48876  1.0000
  C   C329      1.0  0.11104  0.79805  0.54330  1.0000
  H   H267      1.0  0.09682  0.79061  0.55199  1.0000
  H   H268      1.0  0.11134  0.81046  0.59109  1.0000
  H   H269      1.0  0.12274  0.78762  0.56187  1.0000
  C   C330      1.0  0.08566  0.78813  0.38075  1.0000
  H   H270      1.0  0.08917  0.77516  0.40843  1.0000
  C   C331      1.0  0.32488  0.63765  0.36280  1.0000
  C   C332      1.0  0.32137  0.62445  0.43707  1.0000
  C   C333      1.0  0.30987  0.60704  0.42301  1.0000
  H   H271      1.0  0.30683  0.59811  0.47786  1.0000
  C   C334      1.0  0.32859  0.62814  0.53153  1.0000
  H   H272      1.0  0.33666  0.64204  0.53887  1.0000
  H   H273      1.0  0.33846  0.61613  0.55229  1.0000
  H   H274      1.0  0.31602  0.62864  0.57840  1.0000
  C   C335      1.0  0.33708  0.65444  0.36947  1.0000
  H   H275      1.0  0.35094  0.65244  0.39048  1.0000
  C   C336      1.0  0.69753  0.38473  0.36255  1.0000
  C   C337      1.0  0.70101  0.39795  0.43677  1.0000
  C   C338      1.0  0.71250  0.41536  0.42271  1.0000
  H   H276      1.0  0.71552  0.42430  0.47752  1.0000
  C   C339      1.0  0.69376  0.39427  0.53121  1.0000
  H   H277      1.0  0.68570  0.38036  0.53855  1.0000
  H   H278      1.0  0.68388  0.40628  0.55187  1.0000
  H   H279      1.0  0.70632  0.39378  0.57815  1.0000
  C   C340      1.0  0.68530  0.36794  0.36917  1.0000
  H   H280      1.0  0.67144  0.36996  0.39009  1.0000
  C   C341      1.0  0.63768  0.69752  0.36264  1.0000
  C   C342      1.0  0.62448  0.70102  0.43691  1.0000
  C   C343      1.0  0.60707  0.71251  0.42288  1.0000
  H   H281      1.0  0.59814  0.71555  0.47773  1.0000
  C   C344      1.0  0.62818  0.69378  0.53136  1.0000
  H   H282      1.0  0.64208  0.68572  0.53867  1.0000
  H   H283      1.0  0.61617  0.68392  0.55211  1.0000
  H   H284      1.0  0.62867  0.70635  0.57825  1.0000
  C   C345      1.0  0.65447  0.68530  0.36926  1.0000
  H   H285      1.0  0.65246  0.67144  0.39020  1.0000
  C   C346      1.0  0.38474  0.32486  0.36266  1.0000
  C   C347      1.0  0.39797  0.32138  0.43686  1.0000
  C   C348      1.0  0.41537  0.30988  0.42279  1.0000
  H   H286      1.0  0.42432  0.30686  0.47759  1.0000
  C   C349      1.0  0.39428  0.32862  0.53131  1.0000
  H   H287      1.0  0.38038  0.33668  0.53867  1.0000
  H   H288      1.0  0.40630  0.33849  0.55198  1.0000
  H   H289      1.0  0.39380  0.31606  0.57825  1.0000
  C   C350      1.0  0.36796  0.33708  0.36929  1.0000
  H   H290      1.0  0.36997  0.35094  0.39024  1.0000
  C   C351      1.0  0.23869  0.96122  0.37299  1.0000
  C   C352      1.0  0.23756  0.94756  0.44721  1.0000
  C   C353      1.0  0.23281  0.92734  0.43046  1.0000
  H   H291      1.0  0.23311  0.91757  0.48404  1.0000
  C   C354      1.0  0.24175  0.95313  0.54363  1.0000
  H   H292      1.0  0.24400  0.96900  0.55324  1.0000
  H   H293      1.0  0.25504  0.94543  0.56719  1.0000
  H   H294      1.0  0.22930  0.94881  0.58684  1.0000
  C   C355      1.0  0.24777  0.97991  0.38197  1.0000
  H   H295      1.0  0.26072  0.97999  0.41428  1.0000
  C   C356      1.0  0.78375  0.06117  0.37286  1.0000
  C   C357      1.0  0.78493  0.07484  0.44705  1.0000
  C   C358      1.0  0.78965  0.09505  0.43020  1.0000
  H   H296      1.0  0.78941  0.10482  0.48376  1.0000
  C   C359      1.0  0.78079  0.06926  0.54352  1.0000
  H   H297      1.0  0.77854  0.05339  0.55314  1.0000
  H   H298      1.0  0.76752  0.07696  0.56725  1.0000
  H   H299      1.0  0.79327  0.07358  0.58656  1.0000
  C   C360      1.0  0.77469  0.04247  0.38185  1.0000
  H   H300      1.0  0.76176  0.04237  0.41433  1.0000
  C   C361      1.0  0.06117  0.23868  0.37303  1.0000
  C   C362      1.0  0.07484  0.23755  0.44724  1.0000
  C   C363      1.0  0.09505  0.23281  0.43048  1.0000
  H   H301      1.0  0.10483  0.23310  0.48405  1.0000
  C   C364      1.0  0.06926  0.24175  0.54367  1.0000
  H   H302      1.0  0.05340  0.24400  0.55329  1.0000
  H   H303      1.0  0.07696  0.25504  0.56720  1.0000
  H   H304      1.0  0.07359  0.22930  0.58688  1.0000
  C   C365      1.0  0.04248  0.24776  0.38202  1.0000
  H   H305      1.0  0.04240  0.26071  0.41434  1.0000
  C   C366      1.0  0.96122  0.78374  0.37283  1.0000
  C   C367      1.0  0.94756  0.78492  0.44702  1.0000
  C   C368      1.0  0.92734  0.78964  0.43018  1.0000
  H   H306      1.0  0.91757  0.78940  0.48374  1.0000
  C   C369      1.0  0.95314  0.78078  0.54349  1.0000
  H   H307      1.0  0.96900  0.77853  0.55310  1.0000
  H   H308      1.0  0.94543  0.76751  0.56723  1.0000
  H   H309      1.0  0.94881  0.79327  0.58652  1.0000
  C   C370      1.0  0.97992  0.77467  0.38180  1.0000
  H   H310      1.0  0.98002  0.76174  0.41430  1.0000
  C   C371      1.0  0.29328  0.42065  0.37113  1.0000
  C   C372      1.0  0.29293  0.43445  0.44485  1.0000
  C   C373      1.0  0.28808  0.45466  0.42818  1.0000
  H   H311      1.0  0.28685  0.46410  0.48271  1.0000
  C   C374      1.0  0.29691  0.42871  0.54120  1.0000
  H   H312      1.0  0.30138  0.41328  0.54887  1.0000
  H   H313      1.0  0.28360  0.43107  0.58219  1.0000
  H   H314      1.0  0.30885  0.43787  0.56864  1.0000
  C   C375      1.0  0.29371  0.40001  0.38450  1.0000
  H   H315      1.0  0.28308  0.39431  0.42347  1.0000
  C   C376      1.0  0.72916  0.60173  0.37123  1.0000
  C   C377      1.0  0.72953  0.58791  0.44491  1.0000
  C   C378      1.0  0.73437  0.56771  0.42810  1.0000
  H   H316      1.0  0.73565  0.55827  0.48260  1.0000
  C   C379      1.0  0.72562  0.59363  0.54135  1.0000
  H   H317      1.0  0.72114  0.60907  0.54918  1.0000
  H   H318      1.0  0.73895  0.59126  0.58216  1.0000
  H   H319      1.0  0.71369  0.58447  0.56890  1.0000
  C   C380      1.0  0.72867  0.62236  0.38476  1.0000
  H   H320      1.0  0.73924  0.62807  0.42408  1.0000
  C   C381      1.0  0.42066  0.72911  0.37108  1.0000
  C   C382      1.0  0.43446  0.72946  0.44483  1.0000
  C   C383      1.0  0.45466  0.73431  0.42819  1.0000
  H   H321      1.0  0.46409  0.73554  0.48274  1.0000
  C   C384      1.0  0.42871  0.72550  0.54118  1.0000
  H   H322      1.0  0.41327  0.72102  0.54882  1.0000
  H   H323      1.0  0.43107  0.73880  0.58215  1.0000
  H   H324      1.0  0.43785  0.71355  0.56866  1.0000
  C   C385      1.0  0.40002  0.72869  0.38443  1.0000
  H   H325      1.0  0.39432  0.73934  0.42332  1.0000
  C   C386      1.0  0.60174  0.29325  0.37124  1.0000
  C   C387      1.0  0.58793  0.29287  0.44493  1.0000
  C   C388      1.0  0.56773  0.28803  0.42813  1.0000
  H   H326      1.0  0.55829  0.28675  0.48263  1.0000
  C   C389      1.0  0.59365  0.29678  0.54137  1.0000
  H   H327      1.0  0.60908  0.30126  0.54918  1.0000
  H   H328      1.0  0.59128  0.28345  0.58217  1.0000
  H   H329      1.0  0.58449  0.30871  0.56893  1.0000
  C   C390      1.0  0.62238  0.29373  0.38476  1.0000
  H   H330      1.0  0.62809  0.28316  0.42405  1.0000
  C   C391      1.0  0.23017  0.26256  0.37263  1.0000
  C   C392      1.0  0.24116  0.27083  0.44662  1.0000
  C   C393      1.0  0.25545  0.28587  0.42959  1.0000
  H   H331      1.0  0.26393  0.29088  0.48286  1.0000
  C   C394      1.0  0.23897  0.26415  0.54295  1.0000
  H   H332      1.0  0.22698  0.25353  0.55273  1.0000
  H   H333      1.0  0.23580  0.27689  0.58654  1.0000
  H   H334      1.0  0.25275  0.25727  0.56588  1.0000
  C   C395      1.0  0.21914  0.24498  0.38147  1.0000
  H   H335      1.0  0.22583  0.23378  0.41293  1.0000
  C   C396      1.0  0.79222  0.75985  0.37258  1.0000
  C   C397      1.0  0.78123  0.75160  0.44660  1.0000
  C   C398      1.0  0.76696  0.73654  0.42961  1.0000
  H   H336      1.0  0.75846  0.73156  0.48287  1.0000
  C   C399      1.0  0.78340  0.75831  0.54291  1.0000
  H   H337      1.0  0.79538  0.76894  0.55270  1.0000
  H   H338      1.0  0.78656  0.74558  0.58659  1.0000
  H   H339      1.0  0.76961  0.76519  0.56573  1.0000
  C   C400      1.0  0.80328  0.77742  0.38147  1.0000
  H   H340      1.0  0.79660  0.78863  0.41299  1.0000
  C   C401      1.0  0.75984  0.23015  0.37262  1.0000
  C   C402      1.0  0.75158  0.24115  0.44662  1.0000
  C   C403      1.0  0.73654  0.25542  0.42963  1.0000
  H   H341      1.0  0.73154  0.26391  0.48291  1.0000
  C   C404      1.0  0.75828  0.23896  0.54293  1.0000
  H   H342      1.0  0.76891  0.22698  0.55268  1.0000
  H   H343      1.0  0.74555  0.23579  0.58658  1.0000
  H   H344      1.0  0.76516  0.25274  0.56581  1.0000
  C   C405      1.0  0.77742  0.21912  0.38140  1.0000
  H   H345      1.0  0.78863  0.22582  0.41279  1.0000
  C   C406      1.0  0.26253  0.79220  0.37259  1.0000
  C   C407      1.0  0.27078  0.78120  0.44662  1.0000
  C   C408      1.0  0.28584  0.76693  0.42962  1.0000
  H   H346      1.0  0.29082  0.75843  0.48289  1.0000
  C   C409      1.0  0.26408  0.78337  0.54293  1.0000
  H   H347      1.0  0.25345  0.79535  0.55272  1.0000
  H   H348      1.0  0.27680  0.78653  0.58660  1.0000
  H   H349      1.0  0.25719  0.76958  0.56575  1.0000
  C   C410      1.0  0.24496  0.80325  0.38148  1.0000
  H   H350      1.0  0.23376  0.79658  0.41299  1.0000
  C   C411      1.0  0.49338  0.02245  0.36291  1.0000
  C   C412      1.0  0.50163  0.01190  0.43793  1.0000
  C   C413      1.0  0.51926  0.00085  0.42469  1.0000
  H   H351      1.0  0.52535  0.99357  0.47935  1.0000
  C   C414      1.0  0.49309  0.01201  0.53165  1.0000
  H   H352      1.0  0.48002  0.02138  0.53840  1.0000
  H   H353      1.0  0.50414  0.01745  0.57997  1.0000
  H   H354      1.0  0.48892  0.99694  0.55098  1.0000
  C   C415      1.0  0.47546  0.03257  0.36867  1.0000
  H   H355      1.0  0.46360  0.02509  0.38932  1.0000
  C   C416      1.0  0.99995  0.49335  0.36289  1.0000
  C   C417      1.0  0.01050  0.50161  0.43793  1.0000
  C   C418      1.0  0.02154  0.51924  0.42468  1.0000
  H   H356      1.0  0.02882  0.52534  0.47934  1.0000
  C   C419      1.0  0.01038  0.49308  0.53166  1.0000
  H   H357      1.0  0.00102  0.48001  0.53842  1.0000
  H   H358      1.0  0.00493  0.50414  0.57996  1.0000
  H   H359      1.0  0.02544  0.48891  0.55103  1.0000
  C   C420      1.0  0.98982  0.47544  0.36870  1.0000
  H   H360      1.0  0.99729  0.46358  0.38942  1.0000
