data_image0
_chemical_formula_structural       C7H3NO2CHC7H3NO2CHC7H3NO2CHC7H3NO2CHC2HC3HC2H4CHC2HC3HC2H4CHC2HC3HC2H4CHC2HC3HC2H4CHC2HC3HC2H4CHC2HC3HC2H4CHC2HC3HC2H4CHC2HC3HC2H4CHC7H3NO2CHC7H3NO2CHC7H3NO2CHC7H3NO2CHC7H3NO2CHC7H3NO2CHC7H3NO2CHC7H3NO2CHC2HC3HC2H4CHC2HC3HC2H4CHC2HC3HC2H4CHC2HC3HC2H4CHC2HC3HC2H4CHC2HC3HC2H4CHC2HC3HC2H4CHC2HC3HC2H4CHC2HC3HC2H4CHC2HC3HC2H4CHC6H3N3C6H3N3C6H3N3C6H3N3C6H3N3C6H3N3C6H3N3C6H3N3C6H3N3C6H3N3C6H3N3C6H3N3C6H3N3C6H3N3C6H3N3C6H3N3C6H3N3C6H3N3C6H3N3C6H3N3C2HC3HC2H4CHC2HC3HC2H4CHC2HC3HC2H4CHC2HC3HC2H4CHC7H3NO2CHC7H3NO2CHC7H3NO2CHC7H3NO2CHC7H3NO2CHC7H3NO2CHC7H3NO2CHC7H3NO2CHC2HC3HC2H4CHC2HC3HC2H4CHC2HC3HC2H4CHC2HC3HC2H4CHC2HC3HC2H4CHC2HC3HC2H4CHC2HC3HC2H4CHC2HC3HC2H4CHC7H3NO2CHC7H3NO2CHC7H3NO2CHC7H3NO2CHC7H3NO2CHC7H3NO2CHC7H3NO2CHC7H3NO2CHC7H3NO2CHC7H3NO2CH
_chemical_formula_sum              "C600 H390 N90 O60"
_cell_length_a       88.1352
_cell_length_b       88.1352
_cell_length_c       15.0186
_cell_angle_alpha    90
_cell_angle_beta     90
_cell_angle_gamma    90

_space_group_name_H-M_alt    "P 1"
_space_group_IT_number       1

loop_
  _space_group_symop_operation_xyz
  'x, y, z'

loop_
  _atom_site_type_symbol
  _atom_site_label
  _atom_site_symmetry_multiplicity
  _atom_site_fract_x
  _atom_site_fract_y
  _atom_site_fract_z
  _atom_site_occupancy
  C   C1        1.0  0.29730  0.03651  0.28025  1.0000
  C   C2        1.0  0.30661  0.03903  0.20540  1.0000
  C   C3        1.0  0.32220  0.04261  0.21410  1.0000
  C   C4        1.0  0.32892  0.04337  0.30049  1.0000
  C   C5        1.0  0.34441  0.04802  0.31609  1.0000
  C   C6        1.0  0.35651  0.04419  0.25823  1.0000
  C   C7        1.0  0.37136  0.04933  0.27397  1.0000
  H   H1        1.0  0.35478  0.03734  0.20439  1.0000
  H   H2        1.0  0.37961  0.04662  0.22871  1.0000
  H   H3        1.0  0.30188  0.03885  0.14304  1.0000
  N   N1        1.0  0.33049  0.04675  0.13690  1.0000
  O   O1        1.0  0.33086  0.03623  0.08039  1.0000
  O   O2        1.0  0.32522  0.05847  0.10048  1.0000
  C   C8        1.0  0.28181  0.03467  0.26979  1.0000
  H   H4        1.0  0.27659  0.04032  0.22111  1.0000
  C   C9        1.0  0.70080  0.96220  0.28053  1.0000
  C   C10       1.0  0.69152  0.95976  0.20546  1.0000
  C   C11       1.0  0.67591  0.95623  0.21380  1.0000
  C   C12       1.0  0.66914  0.95545  0.30005  1.0000
  C   C13       1.0  0.65363  0.95079  0.31528  1.0000
  C   C14       1.0  0.64157  0.95457  0.25710  1.0000
  C   C15       1.0  0.62674  0.94932  0.27224  1.0000
  H   H5        1.0  0.64330  0.96145  0.20342  1.0000
  H   H6        1.0  0.61851  0.95199  0.22671  1.0000
  H   H7        1.0  0.69629  0.95993  0.14320  1.0000
  N   N2        1.0  0.66766  0.95216  0.13635  1.0000
  O   O3        1.0  0.66735  0.96272  0.08007  1.0000
  O   O4        1.0  0.67290  0.94045  0.09979  1.0000
  C   C16       1.0  0.71631  0.96398  0.27033  1.0000
  H   H8        1.0  0.72153  0.95830  0.22177  1.0000
  C   C17       1.0  0.96222  0.29726  0.28031  1.0000
  C   C18       1.0  0.95970  0.30656  0.20544  1.0000
  C   C19       1.0  0.95612  0.32216  0.21413  1.0000
  C   C20       1.0  0.95534  0.32887  0.30052  1.0000
  C   C21       1.0  0.95071  0.34437  0.31610  1.0000
  C   C22       1.0  0.95452  0.35646  0.25818  1.0000
  C   C23       1.0  0.94941  0.37131  0.27397  1.0000
  H   H9        1.0  0.96138  0.35473  0.20435  1.0000
  H   H10       1.0  0.95211  0.37956  0.22868  1.0000
  H   H11       1.0  0.95986  0.30183  0.14309  1.0000
  N   N3        1.0  0.95196  0.33043  0.13692  1.0000
  O   O5        1.0  0.96248  0.33082  0.08039  1.0000
  O   O6        1.0  0.94024  0.32515  0.10054  1.0000
  C   C24       1.0  0.96404  0.28176  0.26981  1.0000
  H   H12       1.0  0.95837  0.27655  0.22116  1.0000
  C   C25       1.0  0.03648  0.70078  0.28059  1.0000
  C   C26       1.0  0.03893  0.69151  0.20550  1.0000
  C   C27       1.0  0.04248  0.67590  0.21382  1.0000
  C   C28       1.0  0.04326  0.66912  0.30005  1.0000
  C   C29       1.0  0.04794  0.65362  0.31523  1.0000
  C   C30       1.0  0.04417  0.64155  0.25704  1.0000
  C   C31       1.0  0.04941  0.62672  0.27220  1.0000
  H   H13       1.0  0.03728  0.64329  0.20340  1.0000
  H   H14       1.0  0.04675  0.61850  0.22668  1.0000
  H   H15       1.0  0.03877  0.69628  0.14326  1.0000
  N   N4        1.0  0.04657  0.66766  0.13637  1.0000
  O   O7        1.0  0.03601  0.66734  0.08004  1.0000
  O   O8        1.0  0.05828  0.67292  0.09986  1.0000
  C   C32       1.0  0.03470  0.71629  0.27039  1.0000
  H   H16       1.0  0.04038  0.72151  0.22185  1.0000
  C   C33       1.0  0.17946  0.54161  0.28618  1.0000
  C   C34       1.0  0.19495  0.53801  0.29676  1.0000
  H   H17       1.0  0.20166  0.53700  0.24140  1.0000
  C   C35       1.0  0.12405  0.55849  0.31298  1.0000
  C   C36       1.0  0.13582  0.56145  0.25150  1.0000
  C   C37       1.0  0.15075  0.55621  0.26660  1.0000
  H   H18       1.0  0.13352  0.56746  0.19466  1.0000
  C   C38       1.0  0.16264  0.55849  0.19748  1.0000
  C   C39       1.0  0.17335  0.54456  0.19516  1.0000
  H   H19       1.0  0.16913  0.56871  0.21369  1.0000
  H   H20       1.0  0.15769  0.56001  0.13130  1.0000
  H   H21       1.0  0.18236  0.54669  0.14664  1.0000
  H   H22       1.0  0.16704  0.53456  0.17312  1.0000
  C   C40       1.0  0.10969  0.56448  0.29858  1.0000
  H   H23       1.0  0.10866  0.57358  0.25977  1.0000
  C   C41       1.0  0.81990  0.45713  0.28692  1.0000
  C   C42       1.0  0.80439  0.46072  0.29692  1.0000
  H   H24       1.0  0.79772  0.46169  0.24134  1.0000
  C   C43       1.0  0.87521  0.43994  0.31635  1.0000
  C   C44       1.0  0.86350  0.43707  0.25431  1.0000
  C   C45       1.0  0.84860  0.44245  0.26857  1.0000
  H   H25       1.0  0.86582  0.43102  0.19766  1.0000
  C   C46       1.0  0.83678  0.44022  0.19891  1.0000
  C   C47       1.0  0.82610  0.45417  0.19615  1.0000
  H   H26       1.0  0.83025  0.43001  0.21473  1.0000
  H   H27       1.0  0.84182  0.43871  0.13294  1.0000
  H   H28       1.0  0.81715  0.45207  0.14726  1.0000
  H   H29       1.0  0.83247  0.46416  0.17438  1.0000
  C   C48       1.0  0.88956  0.43387  0.30243  1.0000
  H   H30       1.0  0.89063  0.42496  0.26210  1.0000
  C   C49       1.0  0.54164  0.81926  0.28619  1.0000
  C   C50       1.0  0.53804  0.80378  0.29677  1.0000
  H   H31       1.0  0.53702  0.79706  0.24142  1.0000
  C   C51       1.0  0.55851  0.87467  0.31299  1.0000
  C   C52       1.0  0.56147  0.86291  0.25150  1.0000
  C   C53       1.0  0.55625  0.84798  0.26662  1.0000
  H   H32       1.0  0.56748  0.86521  0.19465  1.0000
  C   C54       1.0  0.55853  0.83608  0.19750  1.0000
  C   C55       1.0  0.54460  0.82536  0.19518  1.0000
  H   H33       1.0  0.56874  0.82959  0.21372  1.0000
  H   H34       1.0  0.56005  0.84103  0.13132  1.0000
  H   H35       1.0  0.54673  0.81635  0.14668  1.0000
  H   H36       1.0  0.53460  0.83168  0.17310  1.0000
  C   C56       1.0  0.56449  0.88904  0.29856  1.0000
  H   H37       1.0  0.57359  0.89007  0.25969  1.0000
  C   C57       1.0  0.45718  0.17885  0.28690  1.0000
  C   C58       1.0  0.46078  0.19435  0.29686  1.0000
  H   H38       1.0  0.46175  0.20101  0.24126  1.0000
  C   C59       1.0  0.43996  0.12355  0.31638  1.0000
  C   C60       1.0  0.43709  0.13525  0.25436  1.0000
  C   C61       1.0  0.44247  0.15016  0.26861  1.0000
  H   H39       1.0  0.43104  0.13293  0.19770  1.0000
  C   C62       1.0  0.44024  0.16197  0.19895  1.0000
  C   C63       1.0  0.45421  0.17264  0.19615  1.0000
  H   H40       1.0  0.43005  0.16851  0.21480  1.0000
  H   H41       1.0  0.43872  0.15693  0.13300  1.0000
  H   H42       1.0  0.45211  0.18159  0.14725  1.0000
  H   H43       1.0  0.46419  0.16626  0.17438  1.0000
  C   C64       1.0  0.43389  0.10920  0.30245  1.0000
  H   H44       1.0  0.42498  0.10813  0.26215  1.0000
  C   C65       1.0  0.20702  0.09161  0.28970  1.0000
  C   C66       1.0  0.21346  0.07707  0.30057  1.0000
  H   H45       1.0  0.21704  0.07125  0.24538  1.0000
  C   C67       1.0  0.18819  0.14645  0.31737  1.0000
  C   C68       1.0  0.19765  0.13870  0.25656  1.0000
  C   C69       1.0  0.20198  0.12346  0.27105  1.0000
  H   H46       1.0  0.20149  0.14419  0.20076  1.0000
  C   C70       1.0  0.21109  0.11528  0.20271  1.0000
  C   C71       1.0  0.20616  0.09842  0.19887  1.0000
  H   H47       1.0  0.22310  0.11603  0.22048  1.0000
  H   H48       1.0  0.20964  0.12027  0.13658  1.0000
  H   H49       1.0  0.21336  0.09247  0.15092  1.0000
  H   H50       1.0  0.19444  0.09767  0.17528  1.0000
  C   C72       1.0  0.18492  0.16170  0.30398  1.0000
  H   H51       1.0  0.19179  0.16777  0.26512  1.0000
  C   C73       1.0  0.79142  0.90711  0.28957  1.0000
  C   C74       1.0  0.78486  0.92159  0.30053  1.0000
  H   H52       1.0  0.78123  0.92740  0.24540  1.0000
  C   C75       1.0  0.81061  0.85238  0.31696  1.0000
  C   C76       1.0  0.80111  0.86009  0.25614  1.0000
  C   C77       1.0  0.79670  0.87530  0.27067  1.0000
  H   H53       1.0  0.79731  0.85459  0.20031  1.0000
  C   C78       1.0  0.78755  0.88344  0.20234  1.0000
  C   C79       1.0  0.79235  0.90034  0.19869  1.0000
  H   H54       1.0  0.77554  0.88259  0.21998  1.0000
  H   H55       1.0  0.78905  0.87847  0.13617  1.0000
  H   H56       1.0  0.78512  0.90625  0.15074  1.0000
  H   H57       1.0  0.80407  0.90118  0.17519  1.0000
  C   C80       1.0  0.81393  0.83713  0.30357  1.0000
  H   H58       1.0  0.80711  0.83106  0.26449  1.0000
  C   C81       1.0  0.90704  0.20702  0.28972  1.0000
  C   C82       1.0  0.92158  0.21345  0.30062  1.0000
  H   H59       1.0  0.92740  0.21704  0.24548  1.0000
  C   C83       1.0  0.85222  0.18813  0.31711  1.0000
  C   C84       1.0  0.85996  0.19761  0.25636  1.0000
  C   C85       1.0  0.87519  0.20197  0.27097  1.0000
  H   H60       1.0  0.85448  0.20143  0.20053  1.0000
  C   C86       1.0  0.88337  0.21110  0.20271  1.0000
  C   C87       1.0  0.90023  0.20618  0.19888  1.0000
  H   H61       1.0  0.88260  0.22310  0.22057  1.0000
  H   H62       1.0  0.87838  0.20966  0.13656  1.0000
  H   H63       1.0  0.90618  0.21340  0.15100  1.0000
  H   H64       1.0  0.90099  0.19447  0.17516  1.0000
  C   C88       1.0  0.83697  0.18483  0.30359  1.0000
  H   H65       1.0  0.83090  0.19169  0.26474  1.0000
  C   C89       1.0  0.09154  0.79140  0.28966  1.0000
  C   C90       1.0  0.07705  0.78485  0.30058  1.0000
  H   H66       1.0  0.07125  0.78121  0.24543  1.0000
  C   C91       1.0  0.14630  0.81049  0.31721  1.0000
  C   C92       1.0  0.13858  0.80100  0.25636  1.0000
  C   C93       1.0  0.12336  0.79661  0.27085  1.0000
  H   H67       1.0  0.14408  0.79719  0.20055  1.0000
  C   C94       1.0  0.11521  0.78748  0.20248  1.0000
  C   C95       1.0  0.09832  0.79232  0.19881  1.0000
  H   H68       1.0  0.11604  0.77547  0.22011  1.0000
  H   H69       1.0  0.12018  0.78898  0.13633  1.0000
  H   H70       1.0  0.09240  0.78511  0.15081  1.0000
  H   H71       1.0  0.09751  0.80404  0.17533  1.0000
  C   C96       1.0  0.16155  0.81379  0.30386  1.0000
  H   H72       1.0  0.16762  0.80697  0.26481  1.0000
  C   C97       1.0  0.28286  0.57066  0.27740  1.0000
  C   C98       1.0  0.28675  0.57965  0.20318  1.0000
  C   C99       1.0  0.29320  0.59428  0.21284  1.0000
  C   C100      1.0  0.29627  0.60011  0.29969  1.0000
  C   C101      1.0  0.30153  0.61540  0.31608  1.0000
  C   C102      1.0  0.31192  0.62299  0.25962  1.0000
  C   C103      1.0  0.31632  0.63806  0.27577  1.0000
  H   H73       1.0  0.31668  0.61758  0.20641  1.0000
  H   H74       1.0  0.32349  0.64318  0.23137  1.0000
  H   H75       1.0  0.28415  0.57586  0.14048  1.0000
  N   N5        1.0  0.29500  0.60347  0.13606  1.0000
  O   O9        1.0  0.30380  0.59754  0.08010  1.0000
  O   O10       1.0  0.28254  0.60628  0.09870  1.0000
  C   C104      1.0  0.27430  0.55761  0.26588  1.0000
  H   H76       1.0  0.26681  0.55736  0.21612  1.0000
  C   C105      1.0  0.71627  0.42801  0.27712  1.0000
  C   C106      1.0  0.71231  0.41903  0.20298  1.0000
  C   C107      1.0  0.70578  0.40444  0.21277  1.0000
  C   C108      1.0  0.70269  0.39864  0.29966  1.0000
  C   C109      1.0  0.69734  0.38339  0.31620  1.0000
  C   C110      1.0  0.68692  0.37583  0.25977  1.0000
  C   C111      1.0  0.68246  0.36077  0.27602  1.0000
  H   H77       1.0  0.68219  0.38125  0.20653  1.0000
  H   H78       1.0  0.67528  0.35567  0.23161  1.0000
  H   H79       1.0  0.71493  0.42279  0.14024  1.0000
  N   N6        1.0  0.70391  0.39525  0.13604  1.0000
  O   O11       1.0  0.69512  0.40122  0.08014  1.0000
  O   O12       1.0  0.71634  0.39237  0.09859  1.0000
  C   C112      1.0  0.72488  0.44103  0.26542  1.0000
  H   H80       1.0  0.73239  0.44121  0.21577  1.0000
  C   C113      1.0  0.57075  0.71588  0.27732  1.0000
  C   C114      1.0  0.57974  0.71199  0.20312  1.0000
  C   C115      1.0  0.59439  0.70557  0.21282  1.0000
  C   C116      1.0  0.60023  0.70254  0.29968  1.0000
  C   C117      1.0  0.61550  0.69726  0.31608  1.0000
  C   C118      1.0  0.62309  0.68687  0.25963  1.0000
  C   C119      1.0  0.63816  0.68244  0.27592  1.0000
  H   H81       1.0  0.61769  0.68211  0.20642  1.0000
  H   H82       1.0  0.64327  0.67526  0.23153  1.0000
  H   H83       1.0  0.57596  0.71460  0.14041  1.0000
  N   N7        1.0  0.60358  0.70380  0.13604  1.0000
  O   O13       1.0  0.59768  0.69498  0.08008  1.0000
  O   O14       1.0  0.60636  0.71626  0.09868  1.0000
  C   C120      1.0  0.55768  0.72442  0.26562  1.0000
  H   H84       1.0  0.55747  0.73195  0.21609  1.0000
  C   C121      1.0  0.42809  0.28246  0.27708  1.0000
  C   C122      1.0  0.41912  0.28641  0.20292  1.0000
  C   C123      1.0  0.40453  0.29295  0.21270  1.0000
  C   C124      1.0  0.39873  0.29605  0.29959  1.0000
  C   C125      1.0  0.38347  0.30138  0.31610  1.0000
  C   C126      1.0  0.37591  0.31179  0.25965  1.0000
  C   C127      1.0  0.36085  0.31624  0.27591  1.0000
  H   H85       1.0  0.38133  0.31654  0.20645  1.0000
  H   H86       1.0  0.35575  0.32342  0.23149  1.0000
  H   H87       1.0  0.42288  0.28379  0.14018  1.0000
  N   N8        1.0  0.39534  0.29481  0.13597  1.0000
  O   O15       1.0  0.40131  0.30359  0.08003  1.0000
  O   O16       1.0  0.39245  0.28238  0.09857  1.0000
  C   C128      1.0  0.44112  0.27386  0.26532  1.0000
  H   H88       1.0  0.44130  0.26635  0.21565  1.0000
  C   C129      1.0  0.22840  0.96839  0.27973  1.0000
  C   C130      1.0  0.22625  0.95898  0.20487  1.0000
  C   C131      1.0  0.22259  0.94340  0.21343  1.0000
  C   C132      1.0  0.22058  0.93695  0.29982  1.0000
  C   C133      1.0  0.21813  0.92094  0.31510  1.0000
  C   C134      1.0  0.20936  0.91170  0.25765  1.0000
  C   C135      1.0  0.20774  0.89605  0.27273  1.0000
  H   H89       1.0  0.20374  0.91626  0.20459  1.0000
  H   H90       1.0  0.20164  0.88981  0.22781  1.0000
  H   H91       1.0  0.22804  0.96332  0.14242  1.0000
  N   N9        1.0  0.22246  0.93422  0.13592  1.0000
  O   O17       1.0  0.21270  0.93856  0.08043  1.0000
  O   O18       1.0  0.23520  0.93381  0.09835  1.0000
  C   C136      1.0  0.23394  0.98299  0.26882  1.0000
  H   H92       1.0  0.24069  0.98510  0.21698  1.0000
  C   C137      1.0  0.76984  0.03021  0.28048  1.0000
  C   C138      1.0  0.77203  0.03960  0.20557  1.0000
  C   C139      1.0  0.77578  0.05516  0.21406  1.0000
  C   C140      1.0  0.77783  0.06161  0.30042  1.0000
  C   C141      1.0  0.78035  0.07761  0.31566  1.0000
  C   C142      1.0  0.78913  0.08682  0.25804  1.0000
  C   C143      1.0  0.79079  0.10247  0.27300  1.0000
  H   H93       1.0  0.79471  0.08224  0.20494  1.0000
  H   H94       1.0  0.79688  0.10870  0.22793  1.0000
  H   H95       1.0  0.77019  0.03526  0.14315  1.0000
  N   N10       1.0  0.77594  0.06433  0.13651  1.0000
  O   O19       1.0  0.78567  0.05993  0.08101  1.0000
  O   O20       1.0  0.76320  0.06480  0.09898  1.0000
  C   C144      1.0  0.76423  0.01562  0.26963  1.0000
  H   H96       1.0  0.75745  0.01355  0.21786  1.0000
  C   C145      1.0  0.03027  0.22833  0.27969  1.0000
  C   C146      1.0  0.03968  0.22619  0.20481  1.0000
  C   C147      1.0  0.05528  0.22260  0.21336  1.0000
  C   C148      1.0  0.06174  0.22063  0.29976  1.0000
  C   C149      1.0  0.07775  0.21822  0.31502  1.0000
  C   C150      1.0  0.08701  0.20947  0.25752  1.0000
  C   C151      1.0  0.10266  0.20788  0.27264  1.0000
  H   H97       1.0  0.08246  0.20384  0.20449  1.0000
  H   H98       1.0  0.10892  0.20179  0.22770  1.0000
  H   H99       1.0  0.03535  0.22800  0.14236  1.0000
  N   N11       1.0  0.06446  0.22252  0.13585  1.0000
  O   O21       1.0  0.06016  0.21274  0.08033  1.0000
  O   O22       1.0  0.06482  0.23527  0.09831  1.0000
  C   C152      1.0  0.01566  0.23385  0.26869  1.0000
  H   H100      1.0  0.01356  0.24062  0.21693  1.0000
  C   C153      1.0  0.96846  0.76983  0.28043  1.0000
  C   C154      1.0  0.95908  0.77203  0.20549  1.0000
  C   C155      1.0  0.94352  0.77578  0.21398  1.0000
  C   C156      1.0  0.93707  0.77786  0.30032  1.0000
  C   C157      1.0  0.92107  0.78038  0.31554  1.0000
  C   C158      1.0  0.91187  0.78917  0.25792  1.0000
  C   C159      1.0  0.89622  0.79086  0.27294  1.0000
  H   H101      1.0  0.91646  0.79476  0.20483  1.0000
  H   H102      1.0  0.89000  0.79697  0.22789  1.0000
  H   H103      1.0  0.96341  0.77017  0.14308  1.0000
  N   N12       1.0  0.93434  0.77595  0.13643  1.0000
  O   O23       1.0  0.93875  0.78567  0.08089  1.0000
  O   O24       1.0  0.93387  0.76320  0.09895  1.0000
  C   C160      1.0  0.98304  0.76421  0.26953  1.0000
  H   H104      1.0  0.98511  0.75742  0.21781  1.0000
  C   C161      1.0  0.27527  0.44607  0.28790  1.0000
  C   C162      1.0  0.27154  0.46155  0.29797  1.0000
  H   H105      1.0  0.26920  0.46788  0.24245  1.0000
  C   C163      1.0  0.28412  0.38882  0.31844  1.0000
  C   C164      1.0  0.27623  0.39803  0.25688  1.0000
  C   C165      1.0  0.27465  0.41381  0.27056  1.0000
  H   H106      1.0  0.27160  0.39322  0.20099  1.0000
  C   C166      1.0  0.26726  0.42339  0.20133  1.0000
  C   C167      1.0  0.27508  0.43912  0.19734  1.0000
  H   H107      1.0  0.25527  0.42477  0.21820  1.0000
  H   H108      1.0  0.26795  0.41814  0.13545  1.0000
  H   H109      1.0  0.26911  0.44619  0.14880  1.0000
  H   H110      1.0  0.28678  0.43778  0.17445  1.0000
  C   C168      1.0  0.28484  0.37324  0.30528  1.0000
  H   H111      1.0  0.27687  0.36828  0.26832  1.0000
  C   C169      1.0  0.72377  0.55257  0.28727  1.0000
  C   C170      1.0  0.72755  0.53711  0.29723  1.0000
  H   H112      1.0  0.72991  0.53079  0.24167  1.0000
  C   C171      1.0  0.71484  0.60982  0.31830  1.0000
  C   C172      1.0  0.72271  0.60063  0.25658  1.0000
  C   C173      1.0  0.72430  0.58484  0.27010  1.0000
  H   H113      1.0  0.72733  0.60545  0.20069  1.0000
  C   C174      1.0  0.73169  0.57529  0.20071  1.0000
  C   C175      1.0  0.72391  0.55954  0.19675  1.0000
  H   H114      1.0  0.74369  0.57394  0.21740  1.0000
  H   H115      1.0  0.73095  0.58055  0.13487  1.0000
  H   H116      1.0  0.72988  0.55249  0.14809  1.0000
  H   H117      1.0  0.71220  0.56085  0.17403  1.0000
  C   C176      1.0  0.71411  0.62540  0.30530  1.0000
  H   H118      1.0  0.72206  0.63037  0.26826  1.0000
  C   C177      1.0  0.44614  0.72349  0.28793  1.0000
  C   C178      1.0  0.46162  0.72717  0.29801  1.0000
  H   H119      1.0  0.46796  0.72951  0.24251  1.0000
  C   C179      1.0  0.38886  0.71478  0.31846  1.0000
  C   C180      1.0  0.39809  0.72264  0.25691  1.0000
  C   C181      1.0  0.41387  0.72420  0.27061  1.0000
  H   H120      1.0  0.39329  0.72728  0.20101  1.0000
  C   C182      1.0  0.42347  0.73157  0.20139  1.0000
  C   C183      1.0  0.43918  0.72372  0.19738  1.0000
  H   H121      1.0  0.42487  0.74355  0.21830  1.0000
  H   H122      1.0  0.41821  0.73090  0.13552  1.0000
  H   H123      1.0  0.44627  0.72968  0.14888  1.0000
  H   H124      1.0  0.43782  0.71202  0.17442  1.0000
  C   C184      1.0  0.37329  0.71407  0.30528  1.0000
  H   H125      1.0  0.36834  0.72205  0.26834  1.0000
  C   C185      1.0  0.55263  0.27502  0.28736  1.0000
  C   C186      1.0  0.53717  0.27122  0.29729  1.0000
  H   H126      1.0  0.53086  0.26885  0.24172  1.0000
  C   C187      1.0  0.60987  0.28400  0.31839  1.0000
  C   C188      1.0  0.60069  0.27612  0.25669  1.0000
  C   C189      1.0  0.58491  0.27451  0.27023  1.0000
  H   H127      1.0  0.60551  0.27151  0.20079  1.0000
  C   C190      1.0  0.57536  0.26711  0.20085  1.0000
  C   C191      1.0  0.55961  0.27488  0.19686  1.0000
  H   H128      1.0  0.57402  0.25511  0.21756  1.0000
  H   H129      1.0  0.58062  0.26784  0.13501  1.0000
  H   H130      1.0  0.55256  0.26891  0.14818  1.0000
  H   H131      1.0  0.56091  0.28659  0.17413  1.0000
  C   C192      1.0  0.62545  0.28475  0.30537  1.0000
  H   H132      1.0  0.63042  0.27681  0.26830  1.0000
  C   C193      1.0  0.22041  0.25284  0.28442  1.0000
  C   C194      1.0  0.20963  0.24117  0.29564  1.0000
  H   H133      1.0  0.20531  0.23582  0.24058  1.0000
  C   C195      1.0  0.26290  0.29239  0.30976  1.0000
  C   C196      1.0  0.25938  0.28078  0.24819  1.0000
  C   C197      1.0  0.24730  0.27057  0.26341  1.0000
  H   H134      1.0  0.26571  0.27967  0.19131  1.0000
  C   C198      1.0  0.24326  0.25912  0.19444  1.0000
  C   C199      1.0  0.22585  0.25668  0.19310  1.0000
  H   H135      1.0  0.24897  0.24843  0.21010  1.0000
  H   H136      1.0  0.24690  0.26271  0.12807  1.0000
  H   H137      1.0  0.22318  0.24778  0.14479  1.0000
  H   H138      1.0  0.22024  0.26710  0.17130  1.0000
  C   C200      1.0  0.27548  0.30160  0.29540  1.0000
  H   H139      1.0  0.28330  0.29821  0.25182  1.0000
  C   C201      1.0  0.77845  0.74594  0.28430  1.0000
  C   C202      1.0  0.78923  0.75763  0.29543  1.0000
  H   H140      1.0  0.79352  0.76298  0.24034  1.0000
  C   C203      1.0  0.73605  0.70630  0.30994  1.0000
  C   C204      1.0  0.73954  0.71791  0.24832  1.0000
  C   C205      1.0  0.75160  0.72815  0.26347  1.0000
  H   H141      1.0  0.73320  0.71899  0.19145  1.0000
  C   C206      1.0  0.75560  0.73961  0.19445  1.0000
  C   C207      1.0  0.77301  0.74209  0.19303  1.0000
  H   H142      1.0  0.74987  0.75028  0.21011  1.0000
  H   H143      1.0  0.75196  0.73600  0.12811  1.0000
  H   H144      1.0  0.77565  0.75099  0.14469  1.0000
  H   H145      1.0  0.77864  0.73168  0.17120  1.0000
  C   C208      1.0  0.72349  0.69705  0.29567  1.0000
  H   H146      1.0  0.71566  0.70042  0.25207  1.0000
  C   C209      1.0  0.74585  0.22032  0.28423  1.0000
  C   C210      1.0  0.75750  0.20950  0.29532  1.0000
  H   H147      1.0  0.76284  0.20520  0.24022  1.0000
  C   C211      1.0  0.70633  0.26284  0.30996  1.0000
  C   C212      1.0  0.71794  0.25933  0.24834  1.0000
  C   C213      1.0  0.72815  0.24725  0.26349  1.0000
  H   H148      1.0  0.71903  0.26566  0.19147  1.0000
  C   C214      1.0  0.73959  0.24321  0.19447  1.0000
  C   C215      1.0  0.74202  0.22580  0.19298  1.0000
  H   H149      1.0  0.75029  0.24891  0.21019  1.0000
  H   H150      1.0  0.73601  0.24687  0.12814  1.0000
  H   H151      1.0  0.75092  0.22314  0.14465  1.0000
  H   H152      1.0  0.73159  0.22021  0.17109  1.0000
  C   C216      1.0  0.69710  0.27541  0.29564  1.0000
  H   H153      1.0  0.70049  0.28324  0.25212  1.0000
  C   C217      1.0  0.25277  0.77839  0.28436  1.0000
  C   C218      1.0  0.24108  0.78916  0.29558  1.0000
  H   H154      1.0  0.23571  0.79344  0.24053  1.0000
  C   C219      1.0  0.29239  0.73597  0.30968  1.0000
  C   C220      1.0  0.28077  0.73947  0.24812  1.0000
  C   C221      1.0  0.27054  0.75153  0.26335  1.0000
  H   H155      1.0  0.27968  0.73313  0.19124  1.0000
  C   C222      1.0  0.25909  0.75555  0.19438  1.0000
  C   C223      1.0  0.25661  0.77295  0.19306  1.0000
  H   H156      1.0  0.24841  0.74982  0.21005  1.0000
  H   H157      1.0  0.26269  0.75192  0.12802  1.0000
  H   H158      1.0  0.24772  0.77561  0.14474  1.0000
  H   H159      1.0  0.26703  0.77858  0.17126  1.0000
  C   C224      1.0  0.30163  0.72341  0.29533  1.0000
  H   H160      1.0  0.29825  0.71558  0.25174  1.0000
  C   C225      1.0  0.51491  0.98968  0.28611  1.0000
  C   C226      1.0  0.52644  0.97869  0.29527  1.0000
  H   H161      1.0  0.53158  0.97445  0.23938  1.0000
  C   C227      1.0  0.47539  0.03191  0.31810  1.0000
  C   C228      1.0  0.48697  0.02873  0.25579  1.0000
  C   C229      1.0  0.49730  0.01671  0.26945  1.0000
  H   H162      1.0  0.48790  0.03521  0.19937  1.0000
  C   C230      1.0  0.50865  0.01289  0.19944  1.0000
  C   C231      1.0  0.51098  0.99548  0.19570  1.0000
  H   H163      1.0  0.51938  0.01848  0.21549  1.0000
  H   H164      1.0  0.50501  0.01682  0.13373  1.0000
  H   H165      1.0  0.51980  0.99294  0.14666  1.0000
  H   H166      1.0  0.50050  0.99001  0.17366  1.0000
  C   C232      1.0  0.46590  0.04427  0.30493  1.0000
  H   H167      1.0  0.46952  0.05277  0.26671  1.0000
  C   C233      1.0  0.00906  0.51489  0.28611  1.0000
  C   C234      1.0  0.02005  0.52642  0.29528  1.0000
  H   H168      1.0  0.02428  0.53158  0.23940  1.0000
  C   C235      1.0  0.96685  0.47535  0.31808  1.0000
  C   C236      1.0  0.97002  0.48694  0.25577  1.0000
  C   C237      1.0  0.98204  0.49728  0.26943  1.0000
  H   H169      1.0  0.96354  0.48786  0.19937  1.0000
  C   C238      1.0  0.98585  0.50862  0.19944  1.0000
  C   C239      1.0  0.00326  0.51097  0.19570  1.0000
  H   H170      1.0  0.98026  0.51936  0.21550  1.0000
  H   H171      1.0  0.98192  0.50498  0.13373  1.0000
  H   H172      1.0  0.00579  0.51979  0.14667  1.0000
  H   H173      1.0  0.00873  0.50048  0.17364  1.0000
  C   C240      1.0  0.95449  0.46587  0.30492  1.0000
  H   H174      1.0  0.94598  0.46947  0.26668  1.0000
  C   C241      1.0  0.25911  0.02451  0.32444  1.0000
  C   C242      1.0  0.25300  0.00976  0.32433  1.0000
  C   C243      1.0  0.23712  0.00748  0.32598  1.0000
  C   C244      1.0  0.22736  0.02012  0.33309  1.0000
  C   C245      1.0  0.23336  0.03494  0.33725  1.0000
  C   C246      1.0  0.24921  0.03703  0.33135  1.0000
  H   H175      1.0  0.21585  0.01854  0.33547  1.0000
  H   H176      1.0  0.25362  0.04778  0.33261  1.0000
  H   H177      1.0  0.26016  0.00062  0.32162  1.0000
  N   N13       1.0  0.27402  0.02639  0.32347  1.0000
  N   N14       1.0  0.23139  0.99357  0.32598  1.0000
  N   N15       1.0  0.22427  0.04693  0.33950  1.0000
  C   C247      1.0  0.73903  0.97410  0.32510  1.0000
  C   C248      1.0  0.74514  0.98885  0.32508  1.0000
  C   C249      1.0  0.76103  0.99113  0.32669  1.0000
  C   C250      1.0  0.77078  0.97848  0.33363  1.0000
  C   C251      1.0  0.76478  0.96365  0.33768  1.0000
  C   C252      1.0  0.74892  0.96157  0.33190  1.0000
  H   H178      1.0  0.78229  0.98006  0.33594  1.0000
  H   H179      1.0  0.74451  0.95083  0.33307  1.0000
  H   H180      1.0  0.73799  0.99799  0.32235  1.0000
  N   N16       1.0  0.72411  0.97224  0.32404  1.0000
  N   N17       1.0  0.76678  0.00503  0.32667  1.0000
  N   N18       1.0  0.77389  0.95168  0.33983  1.0000
  C   C253      1.0  0.97417  0.25905  0.32451  1.0000
  C   C254      1.0  0.98891  0.25293  0.32433  1.0000
  C   C255      1.0  0.99119  0.23705  0.32599  1.0000
  C   C256      1.0  0.97854  0.22729  0.33317  1.0000
  C   C257      1.0  0.96372  0.23330  0.33738  1.0000
  C   C258      1.0  0.96164  0.24916  0.33148  1.0000
  H   H181      1.0  0.98012  0.21579  0.33555  1.0000
  H   H182      1.0  0.95090  0.25358  0.33278  1.0000
  H   H183      1.0  0.99806  0.26009  0.32157  1.0000
  N   N19       1.0  0.97230  0.27396  0.32352  1.0000
  N   N20       1.0  0.00509  0.23131  0.32592  1.0000
  N   N21       1.0  0.95173  0.22422  0.33973  1.0000
  C   C259      1.0  0.02456  0.73900  0.32511  1.0000
  C   C260      1.0  0.00981  0.74511  0.32505  1.0000
  C   C261      1.0  0.00753  0.76100  0.32665  1.0000
  C   C262      1.0  0.02018  0.77075  0.33361  1.0000
  C   C263      1.0  0.03501  0.76475  0.33771  1.0000
  C   C264      1.0  0.03708  0.74889  0.33195  1.0000
  H   H184      1.0  0.01860  0.78226  0.33591  1.0000
  H   H185      1.0  0.04784  0.74448  0.33315  1.0000
  H   H186      1.0  0.00067  0.73796  0.32229  1.0000
  N   N22       1.0  0.02642  0.72408  0.32406  1.0000
  N   N23       1.0  0.99363  0.76675  0.32658  1.0000
  N   N24       1.0  0.04698  0.77386  0.33987  1.0000
  C   C265      1.0  0.23959  0.52439  0.33736  1.0000
  C   C266      1.0  0.24563  0.50962  0.33749  1.0000
  C   C267      1.0  0.26151  0.50727  0.33586  1.0000
  C   C268      1.0  0.27133  0.51987  0.32878  1.0000
  C   C269      1.0  0.26539  0.53472  0.32456  1.0000
  C   C270      1.0  0.24954  0.53687  0.33042  1.0000
  H   H187      1.0  0.28282  0.51824  0.32657  1.0000
  H   H188      1.0  0.24518  0.54764  0.32925  1.0000
  H   H189      1.0  0.23843  0.50051  0.34029  1.0000
  N   N25       1.0  0.22470  0.52635  0.33848  1.0000
  N   N26       1.0  0.26719  0.49334  0.33616  1.0000
  N   N27       1.0  0.27453  0.54667  0.32268  1.0000
  C   C271      1.0  0.75964  0.47427  0.33642  1.0000
  C   C272      1.0  0.75360  0.48904  0.33652  1.0000
  C   C273      1.0  0.73772  0.49139  0.33492  1.0000
  C   C274      1.0  0.72791  0.47878  0.32796  1.0000
  C   C275      1.0  0.73384  0.46393  0.32381  1.0000
  C   C276      1.0  0.74969  0.46179  0.32956  1.0000
  H   H190      1.0  0.71641  0.48041  0.32582  1.0000
  H   H191      1.0  0.75406  0.45102  0.32847  1.0000
  H   H192      1.0  0.76079  0.49816  0.33937  1.0000
  N   N28       1.0  0.77454  0.47233  0.33775  1.0000
  N   N29       1.0  0.73202  0.50532  0.33528  1.0000
  N   N30       1.0  0.72469  0.45199  0.32205  1.0000
  C   C277      1.0  0.52446  0.75911  0.33735  1.0000
  C   C278      1.0  0.50969  0.75306  0.33753  1.0000
  C   C279      1.0  0.50735  0.73719  0.33587  1.0000
  C   C280      1.0  0.51995  0.72738  0.32871  1.0000
  C   C281      1.0  0.53480  0.73333  0.32444  1.0000
  C   C282      1.0  0.53694  0.74918  0.33034  1.0000
  H   H193      1.0  0.51833  0.71588  0.32647  1.0000
  H   H194      1.0  0.54770  0.75355  0.32913  1.0000
  H   H195      1.0  0.50057  0.76026  0.34039  1.0000
  N   N31       1.0  0.52639  0.77401  0.33851  1.0000
  N   N32       1.0  0.49342  0.73149  0.33622  1.0000
  N   N33       1.0  0.54675  0.72419  0.32245  1.0000
  C   C283      1.0  0.47434  0.23910  0.33638  1.0000
  C   C284      1.0  0.48912  0.24514  0.33653  1.0000
  C   C285      1.0  0.49147  0.26102  0.33493  1.0000
  C   C286      1.0  0.47886  0.27083  0.32794  1.0000
  C   C287      1.0  0.46401  0.26489  0.32374  1.0000
  C   C288      1.0  0.46187  0.24904  0.32947  1.0000
  H   H196      1.0  0.48049  0.28233  0.32582  1.0000
  H   H197      1.0  0.45110  0.24468  0.32835  1.0000
  H   H198      1.0  0.49823  0.23795  0.33941  1.0000
  N   N34       1.0  0.47240  0.22419  0.33770  1.0000
  N   N35       1.0  0.50539  0.26672  0.33534  1.0000
  N   N36       1.0  0.45208  0.27405  0.32198  1.0000
  C   C289      1.0  0.17469  0.21005  0.34029  1.0000
  C   C290      1.0  0.15904  0.21310  0.33379  1.0000
  C   C291      1.0  0.14834  0.20113  0.33320  1.0000
  C   C292      1.0  0.15355  0.18600  0.33437  1.0000
  C   C293      1.0  0.16920  0.18271  0.33724  1.0000
  C   C294      1.0  0.17968  0.19483  0.34151  1.0000
  H   H199      1.0  0.14588  0.17727  0.33273  1.0000
  H   H200      1.0  0.19105  0.19257  0.34516  1.0000
  H   H201      1.0  0.15542  0.22412  0.33036  1.0000
  N   N37       1.0  0.18438  0.22157  0.33998  1.0000
  N   N38       1.0  0.13348  0.20344  0.32762  1.0000
  N   N39       1.0  0.17349  0.16828  0.34071  1.0000
  C   C295      1.0  0.82416  0.78879  0.34003  1.0000
  C   C296      1.0  0.83981  0.78575  0.33339  1.0000
  C   C297      1.0  0.85051  0.79771  0.33282  1.0000
  C   C298      1.0  0.84529  0.81285  0.33413  1.0000
  C   C299      1.0  0.82964  0.81614  0.33710  1.0000
  C   C300      1.0  0.81917  0.80402  0.34132  1.0000
  H   H202      1.0  0.85297  0.82158  0.33252  1.0000
  H   H203      1.0  0.80779  0.80627  0.34503  1.0000
  H   H204      1.0  0.84343  0.77473  0.32997  1.0000
  N   N40       1.0  0.81447  0.77727  0.33972  1.0000
  N   N41       1.0  0.86537  0.79540  0.32733  1.0000
  N   N42       1.0  0.82534  0.83057  0.34060  1.0000
  C   C301      1.0  0.78863  0.17455  0.33974  1.0000
  C   C302      1.0  0.78560  0.15889  0.33329  1.0000
  C   C303      1.0  0.79757  0.14820  0.33273  1.0000
  C   C304      1.0  0.81270  0.15343  0.33388  1.0000
  C   C305      1.0  0.81597  0.16908  0.33672  1.0000
  C   C306      1.0  0.80385  0.17955  0.34096  1.0000
  H   H205      1.0  0.82143  0.14576  0.33231  1.0000
  H   H206      1.0  0.80609  0.19092  0.34461  1.0000
  H   H207      1.0  0.77458  0.15526  0.32990  1.0000
  N   N43       1.0  0.77710  0.18423  0.33947  1.0000
  N   N44       1.0  0.79527  0.13334  0.32728  1.0000
  N   N45       1.0  0.83040  0.17339  0.34027  1.0000
  C   C307      1.0  0.20989  0.82402  0.34037  1.0000
  C   C308      1.0  0.21292  0.83967  0.33373  1.0000
  C   C309      1.0  0.20096  0.85037  0.33314  1.0000
  C   C310      1.0  0.18583  0.84515  0.33445  1.0000
  C   C311      1.0  0.18255  0.82950  0.33742  1.0000
  C   C312      1.0  0.19467  0.81903  0.34166  1.0000
  H   H208      1.0  0.17710  0.85283  0.33282  1.0000
  H   H209      1.0  0.19242  0.80766  0.34535  1.0000
  H   H210      1.0  0.22395  0.84330  0.33028  1.0000
  N   N46       1.0  0.22141  0.81435  0.34003  1.0000
  N   N47       1.0  0.20327  0.86523  0.32759  1.0000
  N   N48       1.0  0.16811  0.82520  0.34087  1.0000
  C   C313      1.0  0.32384  0.70982  0.33325  1.0000
  C   C314      1.0  0.33952  0.71291  0.33711  1.0000
  C   C315      1.0  0.35028  0.70101  0.33424  1.0000
  C   C316      1.0  0.34514  0.68586  0.33192  1.0000
  C   C317      1.0  0.32951  0.68249  0.33147  1.0000
  C   C318      1.0  0.31895  0.69456  0.33092  1.0000
  H   H211      1.0  0.35287  0.67717  0.33119  1.0000
  H   H212      1.0  0.30758  0.69221  0.32951  1.0000
  H   H213      1.0  0.34311  0.72393  0.34156  1.0000
  N   N49       1.0  0.31420  0.72138  0.33716  1.0000
  N   N50       1.0  0.36514  0.70337  0.33844  1.0000
  N   N51       1.0  0.32527  0.66804  0.32704  1.0000
  C   C319      1.0  0.67488  0.28901  0.33348  1.0000
  C   C320      1.0  0.65921  0.28592  0.33751  1.0000
  C   C321      1.0  0.64844  0.29782  0.33470  1.0000
  C   C322      1.0  0.65358  0.31297  0.33224  1.0000
  C   C323      1.0  0.66921  0.31634  0.33166  1.0000
  C   C324      1.0  0.67977  0.30427  0.33112  1.0000
  H   H214      1.0  0.64585  0.32166  0.33150  1.0000
  H   H215      1.0  0.69114  0.30661  0.32961  1.0000
  H   H216      1.0  0.65561  0.27490  0.34198  1.0000
  N   N52       1.0  0.68452  0.27744  0.33740  1.0000
  N   N53       1.0  0.63358  0.29544  0.33881  1.0000
  N   N54       1.0  0.67345  0.33078  0.32718  1.0000
  C   C325      1.0  0.70990  0.67484  0.33368  1.0000
  C   C326      1.0  0.71298  0.65917  0.33754  1.0000
  C   C327      1.0  0.70108  0.64840  0.33467  1.0000
  C   C328      1.0  0.68593  0.65355  0.33236  1.0000
  C   C329      1.0  0.68256  0.66919  0.33190  1.0000
  C   C330      1.0  0.69464  0.67974  0.33136  1.0000
  H   H217      1.0  0.67723  0.64583  0.33158  1.0000
  H   H218      1.0  0.69230  0.69110  0.32991  1.0000
  H   H219      1.0  0.72400  0.65556  0.34196  1.0000
  N   N55       1.0  0.72147  0.68448  0.33756  1.0000
  N   N56       1.0  0.70344  0.63355  0.33875  1.0000
  N   N57       1.0  0.66812  0.67344  0.32739  1.0000
  C   C331      1.0  0.28909  0.32381  0.33323  1.0000
  C   C332      1.0  0.28601  0.33948  0.33722  1.0000
  C   C333      1.0  0.29790  0.35025  0.33439  1.0000
  C   C334      1.0  0.31305  0.34510  0.33196  1.0000
  C   C335      1.0  0.31642  0.32947  0.33142  1.0000
  C   C336      1.0  0.30435  0.31892  0.33089  1.0000
  H   H220      1.0  0.32175  0.35283  0.33122  1.0000
  H   H221      1.0  0.30669  0.30755  0.32942  1.0000
  H   H222      1.0  0.27499  0.34308  0.34169  1.0000
  N   N58       1.0  0.27752  0.31418  0.33717  1.0000
  N   N59       1.0  0.29554  0.36510  0.33854  1.0000
  N   N60       1.0  0.33086  0.32523  0.32698  1.0000
  C   C337      1.0  0.41545  0.06304  0.33306  1.0000
  C   C338      1.0  0.42692  0.05189  0.33365  1.0000
  C   C339      1.0  0.44237  0.05603  0.33624  1.0000
  C   C340      1.0  0.44629  0.07158  0.33943  1.0000
  C   C341      1.0  0.43504  0.08291  0.33558  1.0000
  C   C342      1.0  0.41963  0.07852  0.33281  1.0000
  H   H223      1.0  0.45746  0.07469  0.34405  1.0000
  H   H224      1.0  0.41138  0.08668  0.33131  1.0000
  H   H225      1.0  0.42399  0.04064  0.33270  1.0000
  N   N61       1.0  0.40111  0.05850  0.32842  1.0000
  N   N62       1.0  0.45263  0.04504  0.34019  1.0000
  N   N63       1.0  0.43946  0.09729  0.33953  1.0000
  C   C343      1.0  0.58268  0.93524  0.32979  1.0000
  C   C344      1.0  0.57120  0.94635  0.33106  1.0000
  C   C345      1.0  0.55575  0.94216  0.33592  1.0000
  C   C346      1.0  0.55179  0.92667  0.33506  1.0000
  C   C347      1.0  0.56308  0.91536  0.33086  1.0000
  C   C348      1.0  0.57850  0.91976  0.32917  1.0000
  H   H226      1.0  0.54058  0.92360  0.33772  1.0000
  H   H227      1.0  0.58677  0.91163  0.32754  1.0000
  H   H228      1.0  0.57410  0.95761  0.32971  1.0000
  N   N64       1.0  0.59699  0.93984  0.32516  1.0000
  N   N65       1.0  0.54477  0.95241  0.33718  1.0000
  N   N66       1.0  0.55871  0.90096  0.33431  1.0000
  C   C349      1.0  0.93571  0.41541  0.33306  1.0000
  C   C350      1.0  0.94686  0.42689  0.33365  1.0000
  C   C351      1.0  0.94272  0.44233  0.33625  1.0000
  C   C352      1.0  0.92717  0.44626  0.33945  1.0000
  C   C353      1.0  0.91584  0.43501  0.33560  1.0000
  C   C354      1.0  0.92023  0.41960  0.33281  1.0000
  H   H229      1.0  0.92407  0.45743  0.34409  1.0000
  H   H230      1.0  0.91207  0.41135  0.33130  1.0000
  H   H231      1.0  0.95811  0.42395  0.33268  1.0000
  N   N67       1.0  0.94025  0.40108  0.32839  1.0000
  N   N68       1.0  0.95371  0.45259  0.34020  1.0000
  N   N69       1.0  0.90147  0.43943  0.33955  1.0000
  C   C355      1.0  0.06349  0.58267  0.32983  1.0000
  C   C356      1.0  0.05237  0.57119  0.33112  1.0000
  C   C357      1.0  0.05657  0.55574  0.33596  1.0000
  C   C358      1.0  0.07206  0.55178  0.33507  1.0000
  C   C359      1.0  0.08337  0.56307  0.33086  1.0000
  C   C360      1.0  0.07897  0.57849  0.32919  1.0000
  H   H232      1.0  0.07512  0.54057  0.33772  1.0000
  H   H233      1.0  0.08710  0.58676  0.32754  1.0000
  H   H234      1.0  0.04112  0.57409  0.32977  1.0000
  N   N70       1.0  0.05889  0.59698  0.32520  1.0000
  N   N71       1.0  0.04631  0.54477  0.33721  1.0000
  N   N72       1.0  0.09776  0.55870  0.33429  1.0000
  C   C361      1.0  0.31934  0.04139  0.37627  1.0000
  C   C362      1.0  0.30383  0.03788  0.36557  1.0000
  H   H235      1.0  0.29710  0.03688  0.42088  1.0000
  C   C363      1.0  0.37479  0.05817  0.34983  1.0000
  C   C364      1.0  0.36302  0.06112  0.41132  1.0000
  C   C365      1.0  0.34809  0.05589  0.39615  1.0000
  H   H236      1.0  0.36532  0.06712  0.46821  1.0000
  C   C366      1.0  0.33619  0.05818  0.46526  1.0000
  C   C367      1.0  0.32544  0.04428  0.46736  1.0000
  H   H237      1.0  0.32974  0.06842  0.44918  1.0000
  H   H238      1.0  0.34115  0.05965  0.53148  1.0000
  H   H239      1.0  0.31644  0.04641  0.51589  1.0000
  H   H240      1.0  0.33173  0.03425  0.48927  1.0000
  C   C368      1.0  0.38915  0.06417  0.36439  1.0000
  H   H241      1.0  0.39016  0.07319  0.40389  1.0000
  C   C369      1.0  0.67868  0.95739  0.37604  1.0000
  C   C370      1.0  0.69421  0.96085  0.36569  1.0000
  H   H242      1.0  0.70091  0.96180  0.42114  1.0000
  C   C371      1.0  0.62329  0.94039  0.34772  1.0000
  C   C372      1.0  0.63501  0.93751  0.40963  1.0000
  C   C373      1.0  0.64992  0.94286  0.39512  1.0000
  H   H243      1.0  0.63270  0.93147  0.46632  1.0000
  C   C374      1.0  0.66176  0.94061  0.46462  1.0000
  C   C375      1.0  0.67251  0.95451  0.46696  1.0000
  H   H244      1.0  0.66822  0.93036  0.44888  1.0000
  H   H245      1.0  0.65674  0.93916  0.53069  1.0000
  H   H246      1.0  0.68148  0.95238  0.51576  1.0000
  H   H247      1.0  0.66620  0.96454  0.48866  1.0000
  C   C376      1.0  0.60896  0.93428  0.36171  1.0000
  H   H248      1.0  0.60795  0.92531  0.40164  1.0000
  C   C377      1.0  0.95735  0.31930  0.37631  1.0000
  C   C378      1.0  0.96086  0.30379  0.36562  1.0000
  H   H249      1.0  0.96185  0.29706  0.42093  1.0000
  C   C379      1.0  0.94056  0.37476  0.34983  1.0000
  C   C380      1.0  0.93762  0.36299  0.41134  1.0000
  C   C381      1.0  0.94283  0.34806  0.39616  1.0000
  H   H250      1.0  0.93162  0.36528  0.46824  1.0000
  C   C382      1.0  0.94055  0.33616  0.46529  1.0000
  C   C383      1.0  0.95445  0.32540  0.46739  1.0000
  H   H251      1.0  0.93031  0.32971  0.44921  1.0000
  H   H252      1.0  0.93907  0.34111  0.53150  1.0000
  H   H253      1.0  0.95231  0.31640  0.51591  1.0000
  H   H254      1.0  0.96447  0.33169  0.48933  1.0000
  C   C384      1.0  0.93458  0.38911  0.36442  1.0000
  H   H255      1.0  0.92556  0.39013  0.40395  1.0000
  C   C385      1.0  0.04131  0.67866  0.37606  1.0000
  C   C386      1.0  0.03783  0.69418  0.36575  1.0000
  H   H256      1.0  0.03689  0.70089  0.42121  1.0000
  C   C387      1.0  0.05835  0.62328  0.34768  1.0000
  C   C388      1.0  0.06122  0.63501  0.40957  1.0000
  C   C389      1.0  0.05587  0.64991  0.39506  1.0000
  H   H257      1.0  0.06727  0.63270  0.46628  1.0000
  C   C390      1.0  0.05812  0.66175  0.46457  1.0000
  C   C391      1.0  0.04421  0.67248  0.46696  1.0000
  H   H258      1.0  0.06836  0.66823  0.44879  1.0000
  H   H259      1.0  0.05958  0.65673  0.53063  1.0000
  H   H260      1.0  0.04632  0.68145  0.51576  1.0000
  H   H261      1.0  0.03419  0.66617  0.48867  1.0000
  C   C392      1.0  0.06446  0.60895  0.36169  1.0000
  H   H262      1.0  0.07344  0.60795  0.40156  1.0000
  C   C393      1.0  0.20148  0.53658  0.38203  1.0000
  C   C394      1.0  0.19221  0.53914  0.45697  1.0000
  C   C395      1.0  0.17663  0.54280  0.44840  1.0000
  C   C396      1.0  0.16990  0.54361  0.36205  1.0000
  C   C397      1.0  0.15442  0.54831  0.34658  1.0000
  C   C398      1.0  0.14233  0.54448  0.40446  1.0000
  C   C399      1.0  0.12749  0.54963  0.38879  1.0000
  H   H263      1.0  0.14406  0.53761  0.45822  1.0000
  H   H264      1.0  0.11924  0.54692  0.43407  1.0000
  H   H265      1.0  0.19694  0.53892  0.51930  1.0000
  N   N73       1.0  0.16838  0.54697  0.52568  1.0000
  O   O25       1.0  0.16796  0.53643  0.58211  1.0000
  O   O26       1.0  0.17371  0.55865  0.56215  1.0000
  C   C400      1.0  0.21697  0.53464  0.39237  1.0000
  H   H266      1.0  0.22223  0.54025  0.44107  1.0000
  C   C401      1.0  0.79777  0.46216  0.38195  1.0000
  C   C402      1.0  0.80698  0.45966  0.45723  1.0000
  C   C403      1.0  0.82257  0.45602  0.44924  1.0000
  C   C404      1.0  0.82938  0.45516  0.36312  1.0000
  C   C405      1.0  0.84487  0.45041  0.34826  1.0000
  C   C406      1.0  0.85692  0.45417  0.40661  1.0000
  C   C407      1.0  0.87174  0.44889  0.39174  1.0000
  H   H267      1.0  0.85517  0.46109  0.46016  1.0000
  H   H268      1.0  0.87995  0.45158  0.43732  1.0000
  H   H269      1.0  0.80218  0.45990  0.51939  1.0000
  N   N74       1.0  0.83075  0.45191  0.52689  1.0000
  O   O27       1.0  0.83110  0.46249  0.58307  1.0000
  O   O28       1.0  0.82540  0.44025  0.56348  1.0000
  C   C408      1.0  0.78226  0.46406  0.39182  1.0000
  H   H270      1.0  0.77698  0.45844  0.44041  1.0000
  C   C409      1.0  0.53660  0.79724  0.38204  1.0000
  C   C410      1.0  0.53916  0.80651  0.45699  1.0000
  C   C411      1.0  0.54283  0.82209  0.44842  1.0000
  C   C412      1.0  0.54366  0.82881  0.36206  1.0000
  C   C413      1.0  0.54835  0.84429  0.34661  1.0000
  C   C414      1.0  0.54453  0.85638  0.40453  1.0000
  C   C415      1.0  0.54966  0.87123  0.38881  1.0000
  H   H271      1.0  0.53766  0.85465  0.45828  1.0000
  H   H272      1.0  0.54695  0.87947  0.43411  1.0000
  H   H273      1.0  0.53895  0.80178  0.51931  1.0000
  N   N75       1.0  0.54702  0.83033  0.52570  1.0000
  O   O29       1.0  0.53649  0.83076  0.58215  1.0000
  O   O30       1.0  0.55869  0.82498  0.56215  1.0000
  C   C416      1.0  0.53467  0.78175  0.39244  1.0000
  H   H274      1.0  0.54031  0.77650  0.44107  1.0000
  C   C417      1.0  0.46221  0.20098  0.38187  1.0000
  C   C418      1.0  0.45971  0.19178  0.45717  1.0000
  C   C419      1.0  0.45606  0.17618  0.44922  1.0000
  C   C420      1.0  0.45520  0.16937  0.36312  1.0000
  C   C421      1.0  0.45043  0.15388  0.34830  1.0000
  C   C422      1.0  0.45419  0.14184  0.40666  1.0000
  C   C423      1.0  0.44892  0.12701  0.39177  1.0000
  H   H275      1.0  0.46111  0.14358  0.46017  1.0000
  H   H276      1.0  0.45160  0.11880  0.43735  1.0000
  H   H277      1.0  0.45995  0.19657  0.51934  1.0000
  N   N76       1.0  0.45194  0.16801  0.52687  1.0000
  O   O31       1.0  0.46252  0.16766  0.58307  1.0000
  O   O32       1.0  0.44028  0.17337  0.56343  1.0000
  C   C424      1.0  0.46412  0.21648  0.39176  1.0000
  H   H278      1.0  0.45851  0.22176  0.44034  1.0000
  C   C425      1.0  0.21601  0.07089  0.38591  1.0000
  C   C426      1.0  0.21212  0.07975  0.46064  1.0000
  C   C427      1.0  0.20569  0.09441  0.45183  1.0000
  C   C428      1.0  0.20263  0.10039  0.36532  1.0000
  C   C429      1.0  0.19737  0.11570  0.34985  1.0000
  C   C430      1.0  0.18699  0.12320  0.40679  1.0000
  C   C431      1.0  0.18263  0.13832  0.39167  1.0000
  H   H279      1.0  0.18222  0.11770  0.45962  1.0000
  H   H280      1.0  0.17548  0.14337  0.43643  1.0000
  H   H281      1.0  0.21471  0.07586  0.52313  1.0000
  N   N77       1.0  0.20389  0.10347  0.52915  1.0000
  O   O33       1.0  0.19508  0.09745  0.58474  1.0000
  O   O34       1.0  0.21635  0.10620  0.56669  1.0000
  C   C432      1.0  0.22454  0.05780  0.39674  1.0000
  H   H282      1.0  0.23202  0.05746  0.44650  1.0000
  C   C433      1.0  0.78225  0.92773  0.38592  1.0000
  C   C434      1.0  0.78622  0.91889  0.46060  1.0000
  C   C435      1.0  0.79277  0.90429  0.45167  1.0000
  C   C436      1.0  0.79587  0.89835  0.36514  1.0000
  C   C437      1.0  0.80124  0.88308  0.34954  1.0000
  C   C438      1.0  0.81166  0.87562  0.40648  1.0000
  C   C439      1.0  0.81611  0.86054  0.39130  1.0000
  H   H283      1.0  0.81639  0.88114  0.45939  1.0000
  H   H284      1.0  0.82328  0.85552  0.43610  1.0000
  H   H285      1.0  0.78360  0.92276  0.52311  1.0000
  N   N78       1.0  0.79465  0.89524  0.52896  1.0000
  O   O35       1.0  0.80343  0.90132  0.58452  1.0000
  O   O36       1.0  0.78223  0.89240  0.56657  1.0000
  C   C440      1.0  0.77365  0.94078  0.39688  1.0000
  H   H286      1.0  0.76614  0.94105  0.44653  1.0000
  C   C441      1.0  0.92776  0.21598  0.38598  1.0000
  C   C442      1.0  0.91890  0.21208  0.46069  1.0000
  C   C443      1.0  0.90423  0.20568  0.45183  1.0000
  C   C444      1.0  0.89824  0.20265  0.36531  1.0000
  C   C445      1.0  0.88294  0.19738  0.34981  1.0000
  C   C446      1.0  0.87545  0.18699  0.40674  1.0000
  C   C447      1.0  0.86034  0.18259  0.39147  1.0000
  H   H287      1.0  0.88095  0.18222  0.45958  1.0000
  H   H288      1.0  0.85530  0.17543  0.43621  1.0000
  H   H289      1.0  0.92278  0.21468  0.52319  1.0000
  N   N79       1.0  0.89516  0.20391  0.52915  1.0000
  O   O37       1.0  0.90116  0.19508  0.58476  1.0000
  O   O38       1.0  0.89245  0.21637  0.56667  1.0000
  C   C448      1.0  0.94086  0.22449  0.39698  1.0000
  H   H290      1.0  0.94117  0.23201  0.44654  1.0000
  C   C449      1.0  0.07092  0.78223  0.38595  1.0000
  C   C450      1.0  0.07975  0.78620  0.46067  1.0000
  C   C451      1.0  0.09436  0.79272  0.45177  1.0000
  C   C452      1.0  0.10031  0.79583  0.36525  1.0000
  C   C453      1.0  0.11559  0.80117  0.34971  1.0000
  C   C454      1.0  0.12305  0.81158  0.40668  1.0000
  C   C455      1.0  0.13815  0.81600  0.39152  1.0000
  H   H291      1.0  0.11753  0.81632  0.45954  1.0000
  H   H292      1.0  0.14317  0.82317  0.43634  1.0000
  H   H293      1.0  0.07589  0.78355  0.52316  1.0000
  N   N80       1.0  0.10341  0.79458  0.52906  1.0000
  O   O39       1.0  0.09735  0.80335  0.58467  1.0000
  O   O40       1.0  0.10624  0.78214  0.56659  1.0000
  C   C456      1.0  0.05787  0.77363  0.39696  1.0000
  H   H294      1.0  0.05760  0.76613  0.44663  1.0000
  C   C457      1.0  0.29188  0.59120  0.37481  1.0000
  C   C458      1.0  0.28542  0.57670  0.36310  1.0000
  H   H295      1.0  0.28184  0.57079  0.41796  1.0000
  C   C459      1.0  0.31079  0.64606  0.35066  1.0000
  C   C460      1.0  0.30131  0.63820  0.41095  1.0000
  C   C461      1.0  0.29694  0.62301  0.39539  1.0000
  H   H296      1.0  0.29750  0.64358  0.46714  1.0000
  C   C462      1.0  0.28781  0.61472  0.46319  1.0000
  C   C463      1.0  0.29275  0.59785  0.46604  1.0000
  H   H297      1.0  0.27581  0.61551  0.44538  1.0000
  H   H298      1.0  0.28925  0.61960  0.52963  1.0000
  H   H299      1.0  0.28555  0.59182  0.51364  1.0000
  H   H300      1.0  0.30446  0.59706  0.48957  1.0000
  C   C464      1.0  0.31410  0.66128  0.36526  1.0000
  H   H301      1.0  0.30745  0.66718  0.40619  1.0000
  C   C465      1.0  0.70713  0.40754  0.37470  1.0000
  C   C466      1.0  0.71367  0.42201  0.36287  1.0000
  H   H302      1.0  0.71730  0.42791  0.41765  1.0000
  C   C467      1.0  0.68796  0.35276  0.35093  1.0000
  C   C468      1.0  0.69746  0.36060  0.41118  1.0000
  C   C469      1.0  0.70189  0.37577  0.39556  1.0000
  H   H303      1.0  0.70127  0.35521  0.46740  1.0000
  C   C470      1.0  0.71105  0.38403  0.46332  1.0000
  C   C471      1.0  0.70622  0.40093  0.46598  1.0000
  H   H304      1.0  0.72306  0.38317  0.44558  1.0000
  H   H305      1.0  0.70958  0.37918  0.52980  1.0000
  H   H306      1.0  0.71345  0.40693  0.51356  1.0000
  H   H307      1.0  0.69451  0.40179  0.48949  1.0000
  C   C472      1.0  0.68461  0.33755  0.36554  1.0000
  H   H308      1.0  0.69124  0.33164  0.40660  1.0000
  C   C473      1.0  0.59130  0.70690  0.37477  1.0000
  C   C474      1.0  0.57679  0.71334  0.36302  1.0000
  H   H309      1.0  0.57087  0.71693  0.41784  1.0000
  C   C475      1.0  0.64615  0.68795  0.35085  1.0000
  C   C476      1.0  0.63829  0.69744  0.41108  1.0000
  C   C477      1.0  0.62311  0.70184  0.39542  1.0000
  H   H310      1.0  0.64367  0.70125  0.46731  1.0000
  C   C478      1.0  0.61482  0.71098  0.46316  1.0000
  C   C479      1.0  0.59795  0.70605  0.46600  1.0000
  H   H311      1.0  0.61561  0.72298  0.44527  1.0000
  H   H312      1.0  0.61970  0.70955  0.52962  1.0000
  H   H313      1.0  0.59193  0.71327  0.51354  1.0000
  H   H314      1.0  0.59715  0.69435  0.48965  1.0000
  C   C480      1.0  0.66136  0.68462  0.36555  1.0000
  H   H315      1.0  0.66727  0.69127  0.40647  1.0000
  C   C481      1.0  0.40764  0.29162  0.37463  1.0000
  C   C482      1.0  0.42211  0.28508  0.36282  1.0000
  H   H316      1.0  0.42801  0.28145  0.41762  1.0000
  C   C483      1.0  0.35284  0.31073  0.35079  1.0000
  C   C484      1.0  0.36068  0.30123  0.41106  1.0000
  C   C485      1.0  0.37586  0.29682  0.39545  1.0000
  H   H317      1.0  0.35529  0.29743  0.46726  1.0000
  C   C486      1.0  0.38413  0.28767  0.46323  1.0000
  C   C487      1.0  0.40101  0.29252  0.46590  1.0000
  H   H318      1.0  0.38328  0.27566  0.44549  1.0000
  H   H319      1.0  0.37927  0.28914  0.52970  1.0000
  H   H320      1.0  0.40702  0.28530  0.51350  1.0000
  H   H321      1.0  0.40186  0.30424  0.48939  1.0000
  C   C488      1.0  0.33763  0.31407  0.36540  1.0000
  H   H322      1.0  0.33172  0.30745  0.40647  1.0000
  C   C489      1.0  0.22322  0.94637  0.37560  1.0000
  C   C490      1.0  0.22693  0.96184  0.36500  1.0000
  H   H323      1.0  0.22923  0.96824  0.42031  1.0000
  C   C491      1.0  0.21452  0.88906  0.34749  1.0000
  C   C492      1.0  0.22236  0.89838  0.40871  1.0000
  C   C493      1.0  0.22392  0.91414  0.39427  1.0000
  H   H324      1.0  0.22696  0.89367  0.46495  1.0000
  C   C494      1.0  0.23126  0.92382  0.46318  1.0000
  C   C495      1.0  0.22339  0.93953  0.46644  1.0000
  H   H325      1.0  0.24325  0.92522  0.44635  1.0000
  H   H326      1.0  0.23058  0.91865  0.52927  1.0000
  H   H327      1.0  0.22931  0.94667  0.51482  1.0000
  H   H328      1.0  0.21168  0.93817  0.48917  1.0000
  C   C496      1.0  0.21378  0.87351  0.36170  1.0000
  H   H329      1.0  0.22158  0.86867  0.40044  1.0000
  C   C497      1.0  0.77517  0.05220  0.37625  1.0000
  C   C498      1.0  0.77138  0.03675  0.36571  1.0000
  H   H330      1.0  0.76905  0.03037  0.42105  1.0000
  C   C499      1.0  0.78404  0.10950  0.34775  1.0000
  C   C500      1.0  0.77621  0.10021  0.40915  1.0000
  C   C501      1.0  0.77461  0.08444  0.39485  1.0000
  H   H331      1.0  0.77163  0.10494  0.46539  1.0000
  C   C502      1.0  0.76727  0.07480  0.46391  1.0000
  C   C503      1.0  0.77507  0.05905  0.46707  1.0000
  H   H332      1.0  0.75526  0.07345  0.44731  1.0000
  H   H333      1.0  0.76801  0.07997  0.52997  1.0000
  H   H334      1.0  0.76914  0.05194  0.51556  1.0000
  H   H335      1.0  0.78680  0.06036  0.48961  1.0000
  C   C504      1.0  0.78479  0.12506  0.36179  1.0000
  H   H336      1.0  0.77704  0.12990  0.40076  1.0000
  C   C505      1.0  0.05231  0.22322  0.37554  1.0000
  C   C506      1.0  0.03683  0.22688  0.36494  1.0000
  H   H337      1.0  0.03043  0.22918  0.42024  1.0000
  C   C507      1.0  0.10964  0.21467  0.34740  1.0000
  C   C508      1.0  0.10031  0.22249  0.40861  1.0000
  C   C509      1.0  0.08455  0.22402  0.39417  1.0000
  H   H338      1.0  0.10501  0.22711  0.46487  1.0000
  C   C510      1.0  0.07484  0.23134  0.46308  1.0000
  C   C511      1.0  0.05916  0.22343  0.46637  1.0000
  H   H339      1.0  0.07341  0.24333  0.44621  1.0000
  H   H340      1.0  0.08002  0.23067  0.52916  1.0000
  H   H341      1.0  0.05200  0.22933  0.51472  1.0000
  H   H342      1.0  0.06055  0.21172  0.48917  1.0000
  C   C512      1.0  0.12520  0.21396  0.36162  1.0000
  H   H343      1.0  0.13002  0.22176  0.40032  1.0000
  C   C513      1.0  0.94647  0.77519  0.37615  1.0000
  C   C514      1.0  0.96192  0.77139  0.36565  1.0000
  H   H344      1.0  0.96830  0.76904  0.42099  1.0000
  C   C515      1.0  0.88919  0.78412  0.34771  1.0000
  C   C516      1.0  0.89847  0.77628  0.40907  1.0000
  C   C517      1.0  0.91423  0.77465  0.39474  1.0000
  H   H345      1.0  0.89374  0.77170  0.46533  1.0000
  C   C518      1.0  0.92387  0.76730  0.46379  1.0000
  C   C519      1.0  0.93962  0.77509  0.46697  1.0000
  H   H346      1.0  0.92522  0.75529  0.44716  1.0000
  H   H347      1.0  0.91870  0.76804  0.52985  1.0000
  H   H348      1.0  0.94673  0.76916  0.51547  1.0000
  H   H349      1.0  0.93832  0.78682  0.48951  1.0000
  C   C520      1.0  0.87363  0.78490  0.36179  1.0000
  H   H350      1.0  0.86878  0.77715  0.40075  1.0000
  C   C521      1.0  0.27010  0.46819  0.38301  1.0000
  C   C522      1.0  0.27230  0.45887  0.45821  1.0000
  C   C523      1.0  0.27598  0.44329  0.45018  1.0000
  C   C524      1.0  0.27797  0.43675  0.36400  1.0000
  C   C525      1.0  0.28046  0.42073  0.34932  1.0000
  C   C526      1.0  0.28929  0.41160  0.40704  1.0000
  C   C527      1.0  0.29093  0.39593  0.39271  1.0000
  H   H351      1.0  0.29492  0.41624  0.45979  1.0000
  H   H352      1.0  0.29706  0.38976  0.43787  1.0000
  H   H353      1.0  0.27052  0.46327  0.52052  1.0000
  N   N81       1.0  0.27615  0.43419  0.52803  1.0000
  O   O41       1.0  0.28592  0.43861  0.58325  1.0000
  O   O42       1.0  0.26342  0.43379  0.56575  1.0000
  C   C528      1.0  0.26457  0.48281  0.39347  1.0000
  H   H354      1.0  0.25782  0.48496  0.44520  1.0000
  C   C529      1.0  0.72905  0.53046  0.38221  1.0000
  C   C530      1.0  0.72682  0.53976  0.45749  1.0000
  C   C531      1.0  0.72308  0.55533  0.44958  1.0000
  C   C532      1.0  0.72106  0.56188  0.36346  1.0000
  C   C533      1.0  0.71853  0.57789  0.34886  1.0000
  C   C534      1.0  0.70971  0.58701  0.40674  1.0000
  C   C535      1.0  0.70805  0.60268  0.39255  1.0000
  H   H355      1.0  0.70410  0.58235  0.45952  1.0000
  H   H356      1.0  0.70193  0.60884  0.43785  1.0000
  H   H357      1.0  0.72863  0.53535  0.51975  1.0000
  N   N82       1.0  0.72289  0.56441  0.52749  1.0000
  O   O43       1.0  0.71314  0.55994  0.58270  1.0000
  O   O44       1.0  0.73562  0.56484  0.56520  1.0000
  C   C536      1.0  0.73462  0.51585  0.39257  1.0000
  H   H358      1.0  0.74140  0.51371  0.44426  1.0000
  C   C537      1.0  0.46827  0.72859  0.38304  1.0000
  C   C538      1.0  0.45894  0.72641  0.45825  1.0000
  C   C539      1.0  0.44335  0.72279  0.45022  1.0000
  C   C540      1.0  0.43680  0.72084  0.36404  1.0000
  C   C541      1.0  0.42078  0.71838  0.34937  1.0000
  C   C542      1.0  0.41163  0.70957  0.40712  1.0000
  C   C543      1.0  0.39596  0.70795  0.39273  1.0000
  H   H359      1.0  0.41626  0.70392  0.45984  1.0000
  H   H360      1.0  0.38977  0.70184  0.43791  1.0000
  H   H361      1.0  0.46335  0.72819  0.52056  1.0000
  N   N83       1.0  0.43425  0.72267  0.52807  1.0000
  O   O45       1.0  0.43863  0.71288  0.58333  1.0000
  O   O46       1.0  0.43391  0.73540  0.56576  1.0000
  C   C544      1.0  0.48290  0.73410  0.39359  1.0000
  H   H362      1.0  0.48504  0.74087  0.44525  1.0000
  C   C545      1.0  0.53053  0.26971  0.38226  1.0000
  C   C546      1.0  0.53982  0.27194  0.45755  1.0000
  C   C547      1.0  0.55539  0.27569  0.44966  1.0000
  C   C548      1.0  0.56194  0.27773  0.36355  1.0000
  C   C549      1.0  0.57795  0.28027  0.34900  1.0000
  C   C550      1.0  0.58706  0.28910  0.40689  1.0000
  C   C551      1.0  0.60272  0.29079  0.39265  1.0000
  H   H363      1.0  0.58239  0.29471  0.45964  1.0000
  H   H364      1.0  0.60888  0.29691  0.43794  1.0000
  H   H365      1.0  0.53542  0.27011  0.51981  1.0000
  N   N84       1.0  0.56447  0.27588  0.52758  1.0000
  O   O47       1.0  0.55999  0.28563  0.58282  1.0000
  O   O48       1.0  0.56491  0.26315  0.56523  1.0000
  C   C552      1.0  0.51593  0.26412  0.39265  1.0000
  H   H366      1.0  0.51379  0.25734  0.44430  1.0000
  C   C553      1.0  0.20522  0.23626  0.38118  1.0000
  C   C554      1.0  0.21211  0.24312  0.45566  1.0000
  C   C555      1.0  0.22299  0.25485  0.44642  1.0000
  C   C556      1.0  0.22695  0.26024  0.35982  1.0000
  C   C557      1.0  0.23870  0.27135  0.34369  1.0000
  C   C558      1.0  0.24155  0.28374  0.40138  1.0000
  C   C559      1.0  0.25351  0.29393  0.38552  1.0000
  H   H367      1.0  0.23480  0.28571  0.45535  1.0000
  H   H368      1.0  0.25537  0.30240  0.43085  1.0000
  H   H369      1.0  0.20960  0.23921  0.51821  1.0000
  N   N85       1.0  0.23073  0.26005  0.52338  1.0000
  O   O49       1.0  0.22180  0.26568  0.57974  1.0000
  O   O50       1.0  0.23827  0.24968  0.56013  1.0000
  C   C560      1.0  0.19567  0.22392  0.39242  1.0000
  H   H370      1.0  0.19774  0.21670  0.44201  1.0000
  C   C561      1.0  0.79363  0.76256  0.38092  1.0000
  C   C562      1.0  0.78676  0.75570  0.45547  1.0000
  C   C563      1.0  0.77590  0.74395  0.44633  1.0000
  C   C564      1.0  0.77193  0.73855  0.35977  1.0000
  C   C565      1.0  0.76020  0.72741  0.34372  1.0000
  C   C566      1.0  0.75739  0.71502  0.40150  1.0000
  C   C567      1.0  0.74546  0.70479  0.38570  1.0000
  H   H371      1.0  0.76414  0.71307  0.45547  1.0000
  H   H372      1.0  0.74361  0.69633  0.43109  1.0000
  H   H373      1.0  0.78927  0.75963  0.51799  1.0000
  N   N86       1.0  0.76817  0.73876  0.52333  1.0000
  O   O51       1.0  0.77711  0.73315  0.57969  1.0000
  O   O52       1.0  0.76063  0.74912  0.56006  1.0000
  C   C568      1.0  0.80317  0.77491  0.39210  1.0000
  H   H374      1.0  0.80109  0.78214  0.44162  1.0000
  C   C569      1.0  0.76241  0.20508  0.38080  1.0000
  C   C570      1.0  0.75557  0.21196  0.45536  1.0000
  C   C571      1.0  0.74387  0.22288  0.44626  1.0000
  C   C572      1.0  0.73849  0.22687  0.35971  1.0000
  C   C573      1.0  0.72738  0.23864  0.34374  1.0000
  C   C574      1.0  0.71501  0.24149  0.40153  1.0000
  C   C575      1.0  0.70480  0.25344  0.38572  1.0000
  H   H375      1.0  0.71303  0.23473  0.45546  1.0000
  H   H376      1.0  0.69634  0.25530  0.43110  1.0000
  H   H377      1.0  0.75950  0.20944  0.51787  1.0000
  N   N87       1.0  0.73872  0.23062  0.52330  1.0000
  O   O53       1.0  0.73307  0.22170  0.57967  1.0000
  O   O54       1.0  0.74911  0.23812  0.55999  1.0000
  C   C576      1.0  0.77474  0.19551  0.39196  1.0000
  H   H378      1.0  0.78198  0.19758  0.44151  1.0000
  C   C577      1.0  0.23614  0.79352  0.38112  1.0000
  C   C578      1.0  0.24303  0.78666  0.45562  1.0000
  C   C579      1.0  0.25477  0.77580  0.44637  1.0000
  C   C580      1.0  0.26017  0.77186  0.35977  1.0000
  C   C581      1.0  0.27131  0.76013  0.34364  1.0000
  C   C582      1.0  0.28370  0.75730  0.40134  1.0000
  C   C583      1.0  0.29392  0.74537  0.38545  1.0000
  H   H379      1.0  0.28566  0.76406  0.45530  1.0000
  H   H380      1.0  0.30239  0.74352  0.43079  1.0000
  H   H381      1.0  0.23909  0.78914  0.51816  1.0000
  N   N88       1.0  0.25998  0.76807  0.52331  1.0000
  O   O55       1.0  0.26559  0.77700  0.57971  1.0000
  O   O56       1.0  0.24963  0.76051  0.56003  1.0000
  C   C584      1.0  0.22379  0.80305  0.39240  1.0000
  H   H382      1.0  0.21657  0.80096  0.44197  1.0000
  C   C585      1.0  0.53139  0.97391  0.37997  1.0000
  C   C586      1.0  0.52482  0.98064  0.45578  1.0000
  C   C587      1.0  0.51324  0.99171  0.44861  1.0000
  C   C588      1.0  0.50774  0.99602  0.36282  1.0000
  C   C589      1.0  0.49666  0.00785  0.34880  1.0000
  C   C590      1.0  0.48434  0.01043  0.40742  1.0000
  C   C591      1.0  0.47403  0.02233  0.39316  1.0000
  H   H383      1.0  0.48246  0.00348  0.46066  1.0000
  H   H384      1.0  0.46558  0.02399  0.43890  1.0000
  H   H385      1.0  0.52879  0.97781  0.51775  1.0000
  N   N89       1.0  0.50826  0.99924  0.52679  1.0000
  O   O57       1.0  0.50261  0.99018  0.58235  1.0000
  O   O58       1.0  0.51878  0.00650  0.56388  1.0000
  C   C592      1.0  0.54340  0.96393  0.38907  1.0000
  H   H386      1.0  0.55102  0.96576  0.43688  1.0000
  C   C593      1.0  0.02482  0.53138  0.37999  1.0000
  C   C594      1.0  0.01809  0.52480  0.45581  1.0000
  C   C595      1.0  0.00702  0.51322  0.44862  1.0000
  C   C596      1.0  0.00272  0.50773  0.36282  1.0000
  C   C597      1.0  0.99090  0.49663  0.34879  1.0000
  C   C598      1.0  0.98832  0.48431  0.40740  1.0000
  C   C599      1.0  0.97642  0.47399  0.39314  1.0000
  H   H387      1.0  0.99527  0.48244  0.46065  1.0000
  H   H388      1.0  0.97477  0.46555  0.43888  1.0000
  H   H389      1.0  0.02092  0.52877  0.51777  1.0000
  N   N90       1.0  0.99950  0.50824  0.52679  1.0000
  O   O59       1.0  0.00856  0.50258  0.58235  1.0000
  O   O60       1.0  0.99223  0.51875  0.56390  1.0000
  C   C600      1.0  0.03480  0.54339  0.38909  1.0000
  H   H390      1.0  0.03296  0.55101  0.43691  1.0000
