data_image0
_chemical_formula_structural       C4HONC2H3C3HC3H3NC4HONC2H3C3HC3H3NC3HOCOHC2H3CHNH2CH2C2H2NHC3H5C3HOCOHC2H3CHNH2CH2C2H2NHC3H5C7HC6H2NC3H2NC4HC4H2NC3HNC7HC6H2NC3H2NC4HC4H2NC3HNC4OHCOHOC2H3NC3H3NC3H3CH2C3H3NC3H3NC4OHCOHOC2H3NC3H3NC3H3CH2C3H3NC3H3NC4HOC4OHC4HOC4OHC4HOC4OHC2H3NC3H3NC3H3NC3H3NC3H3NC3H3NC5H4C4H4C4H4C3H3NC3H3NC3H3NC3H3NC3H3NC3H3NC4HOC4OHC4HOC4OHC4HOC4OHC2H3NC3H3NC3H3NC3H3NC3H3NC3H3NC5H4C4H4C4H4C3H3NC3H3NC3H3NC3H3NC3H3NC3H3N
_chemical_formula_sum              "C288 H216 O24 N48"
_cell_length_a       46.4806
_cell_length_b       46.4805
_cell_length_c       14.8063
_cell_angle_alpha    90
_cell_angle_beta     90
_cell_angle_gamma    120

_space_group_name_H-M_alt    "P 1"
_space_group_IT_number       1

loop_
  _space_group_symop_operation_xyz
  'x, y, z'

loop_
  _atom_site_type_symbol
  _atom_site_label
  _atom_site_symmetry_multiplicity
  _atom_site_fract_x
  _atom_site_fract_y
  _atom_site_fract_z
  _atom_site_occupancy
  C   C1        1.0  0.02789  0.26561  0.34851  1.0000
  C   C2        1.0  0.04709  0.30120  0.34506  1.0000
  C   C3        1.0  0.08222  0.31934  0.34169  1.0000
  C   C4        1.0  0.09959  0.30162  0.34225  1.0000
  H   H1        1.0  0.03587  0.31516  0.34237  1.0000
  O   O1        1.0  0.13351  0.31867  0.34146  1.0000
  N   N1        1.0  0.11816  0.25409  0.26535  1.0000
  C   C5        1.0  0.11133  0.35544  0.16483  1.0000
  C   C6        1.0  0.11952  0.37008  0.25644  1.0000
  H   H2        1.0  0.11136  0.37349  0.11764  1.0000
  H   H3        1.0  0.08691  0.33309  0.16197  1.0000
  H   H4        1.0  0.12993  0.34910  0.14323  1.0000
  C   C7        1.0  0.10075  0.35443  0.33530  1.0000
  C   C8        1.0  0.08242  0.26657  0.34560  1.0000
  C   C9        1.0  0.04730  0.24943  0.34992  1.0000
  H   H5        1.0  0.03627  0.22427  0.35344  1.0000
  C   C10       1.0  0.10125  0.25024  0.34356  1.0000
  C   C11       1.0  0.11636  0.24685  0.42317  1.0000
  C   C12       1.0  0.10395  0.24701  0.51510  1.0000
  H   H6        1.0  0.10430  0.27033  0.52751  1.0000
  H   H7        1.0  0.11922  0.24423  0.56654  1.0000
  H   H8        1.0  0.07854  0.22644  0.52197  1.0000
  N   N2        1.0  0.11478  0.36998  0.41468  1.0000
  C   C13       1.0  0.02789  0.76561  0.34851  1.0000
  C   C14       1.0  0.04709  0.80120  0.34506  1.0000
  C   C15       1.0  0.08222  0.81934  0.34169  1.0000
  C   C16       1.0  0.09959  0.80162  0.34225  1.0000
  H   H9        1.0  0.03587  0.81516  0.34237  1.0000
  O   O2        1.0  0.13351  0.81867  0.34146  1.0000
  N   N3        1.0  0.11816  0.75408  0.26535  1.0000
  C   C17       1.0  0.11133  0.85544  0.16483  1.0000
  C   C18       1.0  0.11952  0.87008  0.25644  1.0000
  H   H10       1.0  0.11136  0.87349  0.11764  1.0000
  H   H11       1.0  0.08691  0.83309  0.16197  1.0000
  H   H12       1.0  0.12993  0.84910  0.14323  1.0000
  C   C19       1.0  0.10075  0.85443  0.33530  1.0000
  C   C20       1.0  0.08242  0.76657  0.34560  1.0000
  C   C21       1.0  0.04730  0.74943  0.34992  1.0000
  H   H13       1.0  0.03627  0.72427  0.35344  1.0000
  C   C22       1.0  0.10125  0.75024  0.34356  1.0000
  C   C23       1.0  0.11636  0.74685  0.42317  1.0000
  C   C24       1.0  0.10395  0.74701  0.51510  1.0000
  H   H14       1.0  0.10430  0.77033  0.52751  1.0000
  H   H15       1.0  0.11922  0.74423  0.56654  1.0000
  H   H16       1.0  0.07854  0.72644  0.52197  1.0000
  N   N4        1.0  0.11478  0.86998  0.41468  1.0000
  C   C25       1.0  0.21513  0.24910  0.34533  1.0000
  C   C26       1.0  0.19698  0.26608  0.34218  1.0000
  C   C27       1.0  0.21468  0.30116  0.34304  1.0000
  H   H17       1.0  0.20117  0.22391  0.34250  1.0000
  O   O3        1.0  0.19764  0.31805  0.34239  1.0000
  C   C28       1.0  0.21515  0.41685  0.34393  1.0000
  O   O4        1.0  0.19827  0.38292  0.34352  1.0000
  H   H18       1.0  0.22724  0.03263  0.34240  1.0000
  C   C29       1.0  0.16135  0.25890  0.16505  1.0000
  C   C30       1.0  0.14654  0.25266  0.25644  1.0000
  H   H19       1.0  0.14334  0.24086  0.11782  1.0000
  H   H20       1.0  0.18362  0.25667  0.16280  1.0000
  H   H21       1.0  0.16787  0.28384  0.14301  1.0000
  C   C31       1.0  0.16187  0.24952  0.33601  1.0000
  H   H22       1.0  0.23247  0.38716  0.14332  1.0000
  N   N5        1.0  0.14926  0.39847  0.26625  1.0000
  H   H23       1.0  0.24425  0.10746  0.11811  1.0000
  H   H24       1.0  0.14028  0.32282  0.40523  1.0000
  C   C32       1.0  0.24974  0.31905  0.34611  1.0000
  H   H25       1.0  0.19349  0.32064  0.40618  1.0000
  H   H26       1.0  0.22754  0.19786  0.35342  1.0000
  C   C33       1.0  0.19727  0.43403  0.34664  1.0000
  C   C34       1.0  0.21526  0.46916  0.35013  1.0000
  H   H27       1.0  0.19575  0.37624  0.40735  1.0000
  H   H28       1.0  0.20114  0.48021  0.35332  1.0000
  N   N6        1.0  0.14610  0.24791  0.41499  1.0000
  H   H29       1.0  0.24575  0.33725  0.52773  1.0000
  C   C35       1.0  0.16212  0.41525  0.34483  1.0000
  C   C36       1.0  0.14342  0.39972  0.42379  1.0000
  C   C37       1.0  0.15578  0.41180  0.51604  1.0000
  H   H30       1.0  0.17879  0.41153  0.52843  1.0000
  H   H31       1.0  0.13767  0.39627  0.56706  1.0000
  H   H32       1.0  0.16049  0.43714  0.52364  1.0000
  H   H33       1.0  0.24737  0.13485  0.56669  1.0000
  H   H34       1.0  0.22959  0.15773  0.52201  1.0000
  C   C38       1.0  0.21513  0.74910  0.34533  1.0000
  C   C39       1.0  0.19698  0.76608  0.34218  1.0000
  C   C40       1.0  0.21468  0.80116  0.34304  1.0000
  H   H35       1.0  0.20117  0.72391  0.34250  1.0000
  O   O5        1.0  0.19764  0.81805  0.34239  1.0000
  C   C41       1.0  0.21515  0.91685  0.34393  1.0000
  O   O6        1.0  0.19827  0.88292  0.34352  1.0000
  H   H36       1.0  0.22724  0.53263  0.34240  1.0000
  C   C42       1.0  0.16135  0.75890  0.16505  1.0000
  C   C43       1.0  0.14654  0.75266  0.25644  1.0000
  H   H37       1.0  0.14334  0.74086  0.11782  1.0000
  H   H38       1.0  0.18362  0.75667  0.16280  1.0000
  H   H39       1.0  0.16787  0.78384  0.14301  1.0000
  C   C44       1.0  0.16187  0.74952  0.33601  1.0000
  H   H40       1.0  0.23247  0.88716  0.14332  1.0000
  N   N7        1.0  0.14925  0.89847  0.26625  1.0000
  H   H41       1.0  0.24425  0.60746  0.11811  1.0000
  H   H42       1.0  0.14028  0.82282  0.40523  1.0000
  C   C45       1.0  0.24974  0.81905  0.34611  1.0000
  H   H43       1.0  0.19349  0.82064  0.40618  1.0000
  H   H44       1.0  0.22754  0.69786  0.35342  1.0000
  C   C46       1.0  0.19727  0.93403  0.34664  1.0000
  C   C47       1.0  0.21527  0.96916  0.35013  1.0000
  H   H45       1.0  0.19575  0.87624  0.40735  1.0000
  H   H46       1.0  0.20114  0.98021  0.35332  1.0000
  N   N8        1.0  0.14610  0.74791  0.41499  1.0000
  H   H47       1.0  0.24575  0.83725  0.52773  1.0000
  C   C48       1.0  0.16212  0.91525  0.34483  1.0000
  C   C49       1.0  0.14342  0.89972  0.42379  1.0000
  C   C50       1.0  0.15578  0.91180  0.51604  1.0000
  H   H48       1.0  0.17879  0.91153  0.52843  1.0000
  H   H49       1.0  0.13767  0.89627  0.56706  1.0000
  H   H50       1.0  0.16049  0.93714  0.52364  1.0000
  H   H51       1.0  0.24737  0.63485  0.56669  1.0000
  H   H52       1.0  0.22959  0.65773  0.52201  1.0000
  C   C51       1.0  0.25072  0.26550  0.34859  1.0000
  C   C52       1.0  0.26888  0.24759  0.34855  1.0000
  C   C53       1.0  0.30491  0.21193  0.34258  1.0000
  C   C54       1.0  0.30446  0.26399  0.34509  1.0000
  C   C55       1.0  0.25085  0.48856  0.34851  1.0000
  C   C56       1.0  0.26723  0.46936  0.34512  1.0000
  C   C57       1.0  0.25023  0.43422  0.34269  1.0000
  H   H53       1.0  0.29241  0.48057  0.34194  1.0000
  C   C58       1.0  0.26880  0.02463  0.34843  1.0000
  C   C59       1.0  0.30451  0.09634  0.34332  1.0000
  C   C60       1.0  0.26943  0.07897  0.34227  1.0000
  C   C61       1.0  0.25242  0.04384  0.34524  1.0000
  C   C62       1.0  0.25741  0.40564  0.16531  1.0000
  C   C63       1.0  0.26369  0.39712  0.25672  1.0000
  H   H54       1.0  0.27546  0.40569  0.11808  1.0000
  H   H55       1.0  0.25957  0.43010  0.16300  1.0000
  N   N9        1.0  0.26227  0.36732  0.26567  1.0000
  C   C64       1.0  0.26678  0.41570  0.33601  1.0000
  C   C65       1.0  0.26229  0.10748  0.16533  1.0000
  C   C66       1.0  0.25605  0.11604  0.25675  1.0000
  H   H56       1.0  0.26008  0.08299  0.16304  1.0000
  H   H57       1.0  0.28723  0.12592  0.14330  1.0000
  N   N10       1.0  0.25743  0.14583  0.26558  1.0000
  C   C67       1.0  0.25289  0.09754  0.33630  1.0000
  C   C68       1.0  0.26689  0.30109  0.34998  1.0000
  C   C69       1.0  0.25270  0.21200  0.35003  1.0000
  C   C70       1.0  0.26986  0.19403  0.34581  1.0000
  H   H58       1.0  0.29206  0.31523  0.35320  1.0000
  C   C71       1.0  0.30440  0.04403  0.34982  1.0000
  C   C72       1.0  0.26605  0.35419  0.34382  1.0000
  C   C73       1.0  0.26937  0.37272  0.42332  1.0000
  C   C74       1.0  0.26909  0.36020  0.51539  1.0000
  H   H59       1.0  0.27182  0.37829  0.56668  1.0000
  H   H60       1.0  0.28963  0.35534  0.52261  1.0000
  N   N11       1.0  0.26828  0.40138  0.41490  1.0000
  C   C75       1.0  0.25353  0.15888  0.34372  1.0000
  C   C76       1.0  0.25009  0.14038  0.42333  1.0000
  C   C77       1.0  0.25018  0.15291  0.51525  1.0000
  H   H61       1.0  0.27348  0.17588  0.52777  1.0000
  N   N12       1.0  0.25120  0.11172  0.41515  1.0000
  C   C78       1.0  0.25072  0.76550  0.34859  1.0000
  C   C79       1.0  0.26888  0.74759  0.34855  1.0000
  C   C80       1.0  0.30491  0.71193  0.34258  1.0000
  C   C81       1.0  0.30446  0.76399  0.34509  1.0000
  C   C82       1.0  0.25086  0.98857  0.34851  1.0000
  C   C83       1.0  0.26724  0.96936  0.34512  1.0000
  C   C84       1.0  0.25023  0.93422  0.34269  1.0000
  H   H62       1.0  0.29241  0.98057  0.34194  1.0000
  C   C85       1.0  0.26881  0.52463  0.34843  1.0000
  C   C86       1.0  0.30451  0.59634  0.34332  1.0000
  C   C87       1.0  0.26943  0.57897  0.34227  1.0000
  C   C88       1.0  0.25242  0.54384  0.34524  1.0000
  C   C89       1.0  0.25741  0.90564  0.16531  1.0000
  C   C90       1.0  0.26369  0.89712  0.25672  1.0000
  H   H63       1.0  0.27546  0.90569  0.11808  1.0000
  H   H64       1.0  0.25957  0.93010  0.16300  1.0000
  N   N13       1.0  0.26226  0.86732  0.26567  1.0000
  C   C91       1.0  0.26678  0.91570  0.33601  1.0000
  C   C92       1.0  0.26229  0.60748  0.16533  1.0000
  C   C93       1.0  0.25605  0.61604  0.25675  1.0000
  H   H65       1.0  0.26008  0.58299  0.16304  1.0000
  H   H66       1.0  0.28723  0.62592  0.14330  1.0000
  N   N14       1.0  0.25743  0.64583  0.26558  1.0000
  C   C94       1.0  0.25289  0.59754  0.33630  1.0000
  C   C95       1.0  0.26689  0.80109  0.34998  1.0000
  C   C96       1.0  0.25270  0.71200  0.35003  1.0000
  C   C97       1.0  0.26986  0.69403  0.34581  1.0000
  H   H67       1.0  0.29206  0.81523  0.35320  1.0000
  C   C98       1.0  0.30440  0.54403  0.34982  1.0000
  C   C99       1.0  0.26605  0.85419  0.34382  1.0000
  C   C100      1.0  0.26937  0.87272  0.42332  1.0000
  C   C101      1.0  0.26909  0.86020  0.51539  1.0000
  H   H68       1.0  0.27182  0.87829  0.56668  1.0000
  H   H69       1.0  0.28964  0.85534  0.52261  1.0000
  N   N15       1.0  0.26828  0.90138  0.41490  1.0000
  C   C102      1.0  0.25353  0.65888  0.34372  1.0000
  C   C103      1.0  0.25009  0.64038  0.42333  1.0000
  C   C104      1.0  0.25018  0.65291  0.51525  1.0000
  H   H70       1.0  0.27348  0.67588  0.52777  1.0000
  N   N16       1.0  0.25120  0.61172  0.41515  1.0000
  C   C105      1.0  0.49182  0.24747  0.34863  1.0000
  C   C106      1.0  0.42011  0.21144  0.34315  1.0000
  C   C107      1.0  0.43749  0.19373  0.34229  1.0000
  C   C108      1.0  0.47262  0.21188  0.34523  1.0000
  O   O7        1.0  0.38618  0.19439  0.34235  1.0000
  H   H71       1.0  0.48385  0.19792  0.34214  1.0000
  C   C109      1.0  0.32262  0.24701  0.34195  1.0000
  O   O8        1.0  0.32197  0.19506  0.34181  1.0000
  H   H72       1.0  0.31842  0.28917  0.34231  1.0000
  O   O9        1.0  0.32140  0.13027  0.34287  1.0000
  C   C110      1.0  0.35860  0.25423  0.16478  1.0000
  C   C111      1.0  0.37328  0.26054  0.25632  1.0000
  H   H73       1.0  0.37666  0.27228  0.11765  1.0000
  H   H74       1.0  0.33629  0.25638  0.16220  1.0000
  H   H75       1.0  0.35218  0.22930  0.14289  1.0000
  N   N17       1.0  0.40163  0.25908  0.26578  1.0000
  C   C112      1.0  0.35771  0.26359  0.33540  1.0000
  C   C113      1.0  0.40882  0.15788  0.16491  1.0000
  C   C114      1.0  0.40034  0.14313  0.25638  1.0000
  H   H76       1.0  0.40885  0.13985  0.11774  1.0000
  H   H77       1.0  0.43328  0.18019  0.16252  1.0000
  H   H78       1.0  0.39032  0.16431  0.14292  1.0000
  N   N18       1.0  0.37055  0.11476  0.26557  1.0000
  C   C115      1.0  0.41897  0.15864  0.33555  1.0000
  C   C116      1.0  0.47241  0.26364  0.35014  1.0000
  C   C117      1.0  0.43728  0.24649  0.34633  1.0000
  H   H79       1.0  0.37941  0.19022  0.40612  1.0000
  H   H80       1.0  0.48344  0.28881  0.35342  1.0000
  H   H81       1.0  0.32608  0.19240  0.40558  1.0000
  C   C118      1.0  0.32239  0.07916  0.34620  1.0000
  H   H82       1.0  0.32390  0.13695  0.40670  1.0000
  H   H83       1.0  0.31852  0.03299  0.35296  1.0000
  C   C119      1.0  0.41847  0.26281  0.34412  1.0000
  C   C120      1.0  0.40301  0.26600  0.42331  1.0000
  C   C121      1.0  0.41513  0.26566  0.51550  1.0000
  H   H84       1.0  0.41478  0.24234  0.52780  1.0000
  H   H85       1.0  0.39969  0.26831  0.56665  1.0000
  H   H86       1.0  0.44051  0.28624  0.52301  1.0000
  N   N19       1.0  0.37331  0.26498  0.41459  1.0000
  C   C122      1.0  0.35754  0.09798  0.34397  1.0000
  C   C123      1.0  0.37608  0.11326  0.42338  1.0000
  C   C124      1.0  0.36359  0.10110  0.51551  1.0000
  H   H87       1.0  0.34065  0.10149  0.52782  1.0000
  H   H88       1.0  0.38170  0.11650  0.56671  1.0000
  H   H89       1.0  0.35875  0.07570  0.52290  1.0000
  N   N20       1.0  0.40476  0.14299  0.41470  1.0000
  C   C125      1.0  0.49182  0.74747  0.34863  1.0000
  C   C126      1.0  0.42012  0.71144  0.34315  1.0000
  C   C127      1.0  0.43749  0.69373  0.34229  1.0000
  C   C128      1.0  0.47263  0.71188  0.34523  1.0000
  O   O10       1.0  0.38619  0.69439  0.34235  1.0000
  H   H90       1.0  0.48385  0.69792  0.34214  1.0000
  C   C129      1.0  0.32262  0.74701  0.34195  1.0000
  O   O11       1.0  0.32197  0.69506  0.34181  1.0000
  H   H91       1.0  0.31842  0.78917  0.34231  1.0000
  O   O12       1.0  0.32140  0.63027  0.34287  1.0000
  C   C130      1.0  0.35860  0.75424  0.16478  1.0000
  C   C131      1.0  0.37329  0.76054  0.25632  1.0000
  H   H92       1.0  0.37666  0.77228  0.11765  1.0000
  H   H93       1.0  0.33629  0.75638  0.16220  1.0000
  H   H94       1.0  0.35218  0.72930  0.14289  1.0000
  N   N21       1.0  0.40163  0.75908  0.26578  1.0000
  C   C132      1.0  0.35771  0.76359  0.33540  1.0000
  C   C133      1.0  0.40882  0.65788  0.16491  1.0000
  C   C134      1.0  0.40034  0.64313  0.25638  1.0000
  H   H95       1.0  0.40885  0.63985  0.11774  1.0000
  H   H96       1.0  0.43328  0.68019  0.16252  1.0000
  H   H97       1.0  0.39033  0.66431  0.14292  1.0000
  N   N22       1.0  0.37055  0.61476  0.26557  1.0000
  C   C135      1.0  0.41897  0.65864  0.33555  1.0000
  C   C136      1.0  0.47241  0.76364  0.35014  1.0000
  C   C137      1.0  0.43728  0.74649  0.34633  1.0000
  H   H98       1.0  0.37941  0.69022  0.40612  1.0000
  H   H99       1.0  0.48344  0.78881  0.35342  1.0000
  H   H100      1.0  0.32608  0.69240  0.40558  1.0000
  C   C138      1.0  0.32239  0.57916  0.34620  1.0000
  H   H101      1.0  0.32390  0.63695  0.40670  1.0000
  H   H102      1.0  0.31852  0.53299  0.35296  1.0000
  C   C139      1.0  0.41847  0.76281  0.34412  1.0000
  C   C140      1.0  0.40301  0.76600  0.42331  1.0000
  C   C141      1.0  0.41513  0.76566  0.51550  1.0000
  H   H103      1.0  0.41478  0.74234  0.52780  1.0000
  H   H104      1.0  0.39969  0.76831  0.56665  1.0000
  H   H105      1.0  0.44051  0.78624  0.52301  1.0000
  N   N23       1.0  0.37331  0.76499  0.41459  1.0000
  C   C142      1.0  0.35754  0.59798  0.34397  1.0000
  C   C143      1.0  0.37608  0.61326  0.42338  1.0000
  C   C144      1.0  0.36359  0.60110  0.51551  1.0000
  H   H106      1.0  0.34065  0.60149  0.52782  1.0000
  H   H107      1.0  0.38170  0.61650  0.56671  1.0000
  H   H108      1.0  0.35875  0.57570  0.52290  1.0000
  N   N24       1.0  0.40476  0.64299  0.41470  1.0000
  C   C145      1.0  0.52789  0.26561  0.34851  1.0000
  C   C146      1.0  0.54709  0.30120  0.34506  1.0000
  C   C147      1.0  0.58222  0.31934  0.34169  1.0000
  C   C148      1.0  0.59959  0.30162  0.34225  1.0000
  H   H109      1.0  0.53587  0.31516  0.34237  1.0000
  O   O13       1.0  0.63351  0.31867  0.34146  1.0000
  C   C149      1.0  0.99182  0.24747  0.34863  1.0000
  C   C150      1.0  0.92011  0.21144  0.34315  1.0000
  C   C151      1.0  0.93749  0.19373  0.34229  1.0000
  C   C152      1.0  0.97262  0.21188  0.34523  1.0000
  O   O14       1.0  0.88618  0.19439  0.34235  1.0000
  H   H110      1.0  0.98385  0.19792  0.34214  1.0000
  C   C153      1.0  0.75072  0.26550  0.34859  1.0000
  C   C154      1.0  0.71513  0.24910  0.34533  1.0000
  C   C155      1.0  0.69698  0.26608  0.34218  1.0000
  C   C156      1.0  0.71468  0.30116  0.34304  1.0000
  H   H111      1.0  0.70116  0.22391  0.34250  1.0000
  O   O15       1.0  0.69764  0.31805  0.34239  1.0000
  C   C157      1.0  0.76887  0.24759  0.34855  1.0000
  C   C158      1.0  0.80491  0.21193  0.34258  1.0000
  C   C159      1.0  0.82262  0.24701  0.34195  1.0000
  C   C160      1.0  0.80446  0.26399  0.34509  1.0000
  O   O16       1.0  0.82197  0.19506  0.34181  1.0000
  H   H112      1.0  0.81842  0.28917  0.34231  1.0000
  C   C161      1.0  0.75085  0.48856  0.34851  1.0000
  C   C162      1.0  0.76723  0.46936  0.34512  1.0000
  C   C163      1.0  0.75023  0.43422  0.34269  1.0000
  C   C164      1.0  0.71515  0.41685  0.34393  1.0000
  H   H113      1.0  0.79241  0.48057  0.34194  1.0000
  O   O17       1.0  0.69827  0.38292  0.34352  1.0000
  C   C165      1.0  0.76880  0.02463  0.34843  1.0000
  C   C166      1.0  0.80451  0.09634  0.34332  1.0000
  C   C167      1.0  0.76943  0.07897  0.34227  1.0000
  C   C168      1.0  0.75242  0.04384  0.34524  1.0000
  O   O18       1.0  0.82140  0.13027  0.34287  1.0000
  H   H114      1.0  0.72724  0.03263  0.34240  1.0000
  C   C169      1.0  0.66135  0.25890  0.16505  1.0000
  C   C170      1.0  0.64654  0.25266  0.25644  1.0000
  H   H115      1.0  0.64334  0.24086  0.11782  1.0000
  H   H116      1.0  0.68362  0.25667  0.16280  1.0000
  H   H117      1.0  0.66787  0.28384  0.14301  1.0000
  N   N25       1.0  0.61816  0.25409  0.26535  1.0000
  C   C171      1.0  0.66187  0.24952  0.33601  1.0000
  C   C172      1.0  0.75741  0.40564  0.16531  1.0000
  C   C173      1.0  0.76369  0.39712  0.25672  1.0000
  H   H118      1.0  0.77546  0.40569  0.11808  1.0000
  H   H119      1.0  0.75957  0.43010  0.16300  1.0000
  H   H120      1.0  0.73247  0.38716  0.14332  1.0000
  N   N26       1.0  0.76226  0.36732  0.26567  1.0000
  C   C174      1.0  0.76678  0.41570  0.33601  1.0000
  C   C175      1.0  0.61133  0.35544  0.16483  1.0000
  C   C176      1.0  0.61952  0.37008  0.25644  1.0000
  H   H121      1.0  0.61136  0.37349  0.11764  1.0000
  H   H122      1.0  0.58691  0.33309  0.16197  1.0000
  H   H123      1.0  0.62993  0.34910  0.14323  1.0000
  N   N27       1.0  0.64926  0.39847  0.26625  1.0000
  C   C177      1.0  0.60075  0.35443  0.33530  1.0000
  C   C178      1.0  0.85860  0.25423  0.16478  1.0000
  C   C179      1.0  0.87328  0.26054  0.25632  1.0000
  H   H124      1.0  0.87665  0.27228  0.11765  1.0000
  H   H125      1.0  0.83629  0.25638  0.16220  1.0000
  H   H126      1.0  0.85218  0.22930  0.14289  1.0000
  N   N28       1.0  0.90163  0.25908  0.26578  1.0000
  C   C180      1.0  0.85771  0.26359  0.33540  1.0000
  C   C181      1.0  0.76229  0.10748  0.16533  1.0000
  C   C182      1.0  0.75605  0.11604  0.25675  1.0000
  H   H127      1.0  0.74425  0.10746  0.11811  1.0000
  H   H128      1.0  0.76008  0.08299  0.16304  1.0000
  H   H129      1.0  0.78723  0.12592  0.14330  1.0000
  N   N29       1.0  0.75743  0.14583  0.26558  1.0000
  C   C183      1.0  0.75289  0.09754  0.33630  1.0000
  C   C184      1.0  0.90882  0.15788  0.16491  1.0000
  C   C185      1.0  0.90034  0.14313  0.25638  1.0000
  H   H130      1.0  0.90885  0.13985  0.11774  1.0000
  H   H131      1.0  0.93327  0.18019  0.16252  1.0000
  H   H132      1.0  0.89033  0.16431  0.14292  1.0000
  N   N30       1.0  0.87055  0.11476  0.26557  1.0000
  C   C186      1.0  0.91896  0.15864  0.33555  1.0000
  C   C187      1.0  0.58242  0.26657  0.34560  1.0000
  C   C188      1.0  0.54730  0.24943  0.34992  1.0000
  C   C189      1.0  0.97241  0.26364  0.35014  1.0000
  C   C190      1.0  0.93728  0.24649  0.34633  1.0000
  H   H133      1.0  0.64028  0.32282  0.40523  1.0000
  H   H134      1.0  0.87941  0.19022  0.40612  1.0000
  H   H135      1.0  0.53627  0.22427  0.35344  1.0000
  H   H136      1.0  0.98344  0.28881  0.35342  1.0000
  C   C191      1.0  0.74974  0.31905  0.34611  1.0000
  C   C192      1.0  0.76689  0.30109  0.34998  1.0000
  C   C193      1.0  0.75270  0.21200  0.35003  1.0000
  C   C194      1.0  0.76986  0.19403  0.34581  1.0000
  H   H137      1.0  0.69349  0.32064  0.40618  1.0000
  H   H138      1.0  0.82608  0.19240  0.40558  1.0000
  H   H139      1.0  0.79206  0.31523  0.35320  1.0000
  H   H140      1.0  0.72754  0.19786  0.35342  1.0000
  C   C195      1.0  0.69727  0.43403  0.34664  1.0000
  C   C196      1.0  0.71526  0.46916  0.35013  1.0000
  C   C197      1.0  0.80440  0.04403  0.34982  1.0000
  C   C198      1.0  0.82239  0.07916  0.34620  1.0000
  H   H141      1.0  0.69575  0.37624  0.40735  1.0000
  H   H142      1.0  0.82390  0.13695  0.40670  1.0000
  H   H143      1.0  0.70114  0.48021  0.35332  1.0000
  H   H144      1.0  0.81852  0.03299  0.35296  1.0000
  C   C199      1.0  0.60125  0.25024  0.34356  1.0000
  C   C200      1.0  0.61635  0.24685  0.42317  1.0000
  C   C201      1.0  0.60395  0.24701  0.51510  1.0000
  H   H145      1.0  0.60430  0.27033  0.52751  1.0000
  H   H146      1.0  0.61922  0.24423  0.56654  1.0000
  H   H147      1.0  0.57854  0.22644  0.52197  1.0000
  N   N31       1.0  0.64610  0.24791  0.41499  1.0000
  C   C202      1.0  0.76605  0.35419  0.34382  1.0000
  C   C203      1.0  0.76937  0.37272  0.42332  1.0000
  C   C204      1.0  0.76909  0.36020  0.51539  1.0000
  H   H148      1.0  0.74575  0.33725  0.52773  1.0000
  H   H149      1.0  0.77182  0.37829  0.56668  1.0000
  H   H150      1.0  0.78963  0.35534  0.52261  1.0000
  N   N32       1.0  0.76828  0.40138  0.41490  1.0000
  C   C205      1.0  0.66212  0.41525  0.34483  1.0000
  C   C206      1.0  0.64342  0.39972  0.42379  1.0000
  C   C207      1.0  0.65578  0.41180  0.51604  1.0000
  H   H151      1.0  0.67879  0.41153  0.52843  1.0000
  H   H152      1.0  0.63767  0.39627  0.56706  1.0000
  H   H153      1.0  0.66049  0.43714  0.52364  1.0000
  N   N33       1.0  0.61478  0.36998  0.41468  1.0000
  C   C208      1.0  0.91847  0.26281  0.34412  1.0000
  C   C209      1.0  0.90301  0.26600  0.42331  1.0000
  C   C210      1.0  0.91513  0.26566  0.51550  1.0000
  H   H154      1.0  0.91478  0.24234  0.52780  1.0000
  H   H155      1.0  0.89968  0.26831  0.56665  1.0000
  H   H156      1.0  0.94051  0.28624  0.52301  1.0000
  N   N34       1.0  0.87330  0.26498  0.41459  1.0000
  C   C211      1.0  0.75353  0.15888  0.34372  1.0000
  C   C212      1.0  0.75009  0.14038  0.42333  1.0000
  C   C213      1.0  0.75018  0.15291  0.51525  1.0000
  H   H157      1.0  0.77348  0.17588  0.52777  1.0000
  H   H158      1.0  0.74737  0.13485  0.56669  1.0000
  H   H159      1.0  0.72959  0.15773  0.52201  1.0000
  N   N35       1.0  0.75120  0.11172  0.41515  1.0000
  C   C214      1.0  0.85754  0.09798  0.34397  1.0000
  C   C215      1.0  0.87608  0.11326  0.42338  1.0000
  C   C216      1.0  0.86359  0.10110  0.51551  1.0000
  H   H160      1.0  0.84065  0.10149  0.52782  1.0000
  H   H161      1.0  0.88170  0.11650  0.56671  1.0000
  H   H162      1.0  0.85875  0.07570  0.52290  1.0000
  N   N36       1.0  0.90476  0.14299  0.41470  1.0000
  C   C217      1.0  0.52789  0.76561  0.34851  1.0000
  C   C218      1.0  0.54709  0.80120  0.34506  1.0000
  C   C219      1.0  0.58222  0.81934  0.34169  1.0000
  C   C220      1.0  0.59959  0.80162  0.34225  1.0000
  H   H163      1.0  0.53587  0.81516  0.34237  1.0000
  O   O19       1.0  0.63352  0.81867  0.34146  1.0000
  C   C221      1.0  0.99182  0.74747  0.34863  1.0000
  C   C222      1.0  0.92012  0.71144  0.34315  1.0000
  C   C223      1.0  0.93749  0.69373  0.34229  1.0000
  C   C224      1.0  0.97262  0.71188  0.34523  1.0000
  O   O20       1.0  0.88619  0.69439  0.34235  1.0000
  H   H164      1.0  0.98385  0.69792  0.34214  1.0000
  C   C225      1.0  0.75072  0.76550  0.34859  1.0000
  C   C226      1.0  0.71513  0.74910  0.34533  1.0000
  C   C227      1.0  0.69698  0.76608  0.34218  1.0000
  C   C228      1.0  0.71468  0.80116  0.34304  1.0000
  H   H165      1.0  0.70117  0.72391  0.34250  1.0000
  O   O21       1.0  0.69764  0.81805  0.34239  1.0000
  C   C229      1.0  0.76888  0.74759  0.34855  1.0000
  C   C230      1.0  0.80491  0.71193  0.34258  1.0000
  C   C231      1.0  0.82262  0.74701  0.34195  1.0000
  C   C232      1.0  0.80446  0.76399  0.34509  1.0000
  O   O22       1.0  0.82197  0.69506  0.34181  1.0000
  H   H166      1.0  0.81842  0.78917  0.34231  1.0000
  C   C233      1.0  0.75085  0.98857  0.34851  1.0000
  C   C234      1.0  0.76723  0.96936  0.34512  1.0000
  C   C235      1.0  0.75023  0.93422  0.34269  1.0000
  C   C236      1.0  0.71515  0.91685  0.34393  1.0000
  H   H167      1.0  0.79241  0.98057  0.34194  1.0000
  O   O23       1.0  0.69827  0.88292  0.34352  1.0000
  C   C237      1.0  0.76880  0.52463  0.34843  1.0000
  C   C238      1.0  0.80451  0.59634  0.34332  1.0000
  C   C239      1.0  0.76943  0.57897  0.34227  1.0000
  C   C240      1.0  0.75242  0.54384  0.34524  1.0000
  O   O24       1.0  0.82140  0.63027  0.34287  1.0000
  H   H168      1.0  0.72724  0.53263  0.34240  1.0000
  C   C241      1.0  0.66135  0.75890  0.16505  1.0000
  C   C242      1.0  0.64654  0.75266  0.25644  1.0000
  H   H169      1.0  0.64333  0.74086  0.11782  1.0000
  H   H170      1.0  0.68362  0.75667  0.16280  1.0000
  H   H171      1.0  0.66787  0.78384  0.14301  1.0000
  N   N37       1.0  0.61816  0.75408  0.26535  1.0000
  C   C243      1.0  0.66187  0.74952  0.33601  1.0000
  C   C244      1.0  0.75741  0.90564  0.16531  1.0000
  C   C245      1.0  0.76369  0.89712  0.25672  1.0000
  H   H172      1.0  0.77546  0.90569  0.11808  1.0000
  H   H173      1.0  0.75957  0.93010  0.16300  1.0000
  H   H174      1.0  0.73247  0.88716  0.14332  1.0000
  N   N38       1.0  0.76226  0.86732  0.26567  1.0000
  C   C246      1.0  0.76678  0.91570  0.33601  1.0000
  C   C247      1.0  0.61133  0.85544  0.16483  1.0000
  C   C248      1.0  0.61952  0.87008  0.25644  1.0000
  H   H175      1.0  0.61136  0.87349  0.11764  1.0000
  H   H176      1.0  0.58691  0.83309  0.16197  1.0000
  H   H177      1.0  0.62993  0.84910  0.14323  1.0000
  N   N39       1.0  0.64926  0.89847  0.26625  1.0000
  C   C249      1.0  0.60075  0.85443  0.33530  1.0000
  C   C250      1.0  0.85860  0.75424  0.16478  1.0000
  C   C251      1.0  0.87329  0.76054  0.25632  1.0000
  H   H178      1.0  0.87665  0.77228  0.11765  1.0000
  H   H179      1.0  0.83629  0.75638  0.16220  1.0000
  H   H180      1.0  0.85218  0.72930  0.14289  1.0000
  N   N40       1.0  0.90163  0.75908  0.26578  1.0000
  C   C252      1.0  0.85771  0.76359  0.33540  1.0000
  C   C253      1.0  0.76229  0.60748  0.16533  1.0000
  C   C254      1.0  0.75605  0.61604  0.25675  1.0000
  H   H181      1.0  0.74425  0.60746  0.11811  1.0000
  H   H182      1.0  0.76007  0.58299  0.16304  1.0000
  H   H183      1.0  0.78724  0.62592  0.14330  1.0000
  N   N41       1.0  0.75743  0.64583  0.26558  1.0000
  C   C255      1.0  0.75289  0.59754  0.33630  1.0000
  C   C256      1.0  0.90881  0.65788  0.16491  1.0000
  C   C257      1.0  0.90034  0.64313  0.25638  1.0000
  H   H184      1.0  0.90885  0.63985  0.11774  1.0000
  H   H185      1.0  0.93328  0.68019  0.16252  1.0000
  H   H186      1.0  0.89033  0.66431  0.14292  1.0000
  N   N42       1.0  0.87054  0.61476  0.26557  1.0000
  C   C258      1.0  0.91897  0.65864  0.33555  1.0000
  C   C259      1.0  0.58242  0.76657  0.34560  1.0000
  C   C260      1.0  0.54730  0.74943  0.34992  1.0000
  C   C261      1.0  0.97241  0.76364  0.35014  1.0000
  C   C262      1.0  0.93728  0.74649  0.34633  1.0000
  H   H187      1.0  0.64028  0.82282  0.40523  1.0000
  H   H188      1.0  0.87941  0.69022  0.40612  1.0000
  H   H189      1.0  0.53627  0.72427  0.35344  1.0000
  H   H190      1.0  0.98344  0.78881  0.35342  1.0000
  C   C263      1.0  0.74974  0.81905  0.34611  1.0000
  C   C264      1.0  0.76689  0.80109  0.34998  1.0000
  C   C265      1.0  0.75270  0.71200  0.35003  1.0000
  C   C266      1.0  0.76986  0.69403  0.34581  1.0000
  H   H191      1.0  0.69349  0.82064  0.40618  1.0000
  H   H192      1.0  0.82608  0.69240  0.40558  1.0000
  H   H193      1.0  0.79206  0.81523  0.35320  1.0000
  H   H194      1.0  0.72754  0.69786  0.35342  1.0000
  C   C267      1.0  0.69727  0.93403  0.34664  1.0000
  C   C268      1.0  0.71526  0.96916  0.35013  1.0000
  C   C269      1.0  0.80440  0.54403  0.34982  1.0000
  C   C270      1.0  0.82239  0.57916  0.34620  1.0000
  H   H195      1.0  0.69575  0.87624  0.40735  1.0000
  H   H196      1.0  0.82390  0.63695  0.40670  1.0000
  H   H197      1.0  0.70114  0.98021  0.35332  1.0000
  H   H198      1.0  0.81852  0.53299  0.35296  1.0000
  C   C271      1.0  0.60125  0.75024  0.34356  1.0000
  C   C272      1.0  0.61636  0.74685  0.42317  1.0000
  C   C273      1.0  0.60395  0.74701  0.51510  1.0000
  H   H199      1.0  0.60430  0.77033  0.52751  1.0000
  H   H200      1.0  0.61922  0.74423  0.56654  1.0000
  H   H201      1.0  0.57854  0.72644  0.52197  1.0000
  N   N43       1.0  0.64610  0.74791  0.41499  1.0000
  C   C274      1.0  0.76605  0.85419  0.34382  1.0000
  C   C275      1.0  0.76937  0.87272  0.42332  1.0000
  C   C276      1.0  0.76908  0.86020  0.51539  1.0000
  H   H202      1.0  0.74575  0.83725  0.52773  1.0000
  H   H203      1.0  0.77182  0.87829  0.56668  1.0000
  H   H204      1.0  0.78963  0.85534  0.52261  1.0000
  N   N44       1.0  0.76828  0.90138  0.41490  1.0000
  C   C277      1.0  0.66212  0.91525  0.34483  1.0000
  C   C278      1.0  0.64342  0.89972  0.42379  1.0000
  C   C279      1.0  0.65578  0.91180  0.51604  1.0000
  H   H205      1.0  0.67879  0.91153  0.52843  1.0000
  H   H206      1.0  0.63767  0.89627  0.56706  1.0000
  H   H207      1.0  0.66049  0.93714  0.52364  1.0000
  N   N45       1.0  0.61478  0.86998  0.41468  1.0000
  C   C280      1.0  0.91847  0.76281  0.34412  1.0000
  C   C281      1.0  0.90301  0.76600  0.42331  1.0000
  C   C282      1.0  0.91513  0.76566  0.51550  1.0000
  H   H208      1.0  0.91478  0.74234  0.52780  1.0000
  H   H209      1.0  0.89969  0.76831  0.56665  1.0000
  H   H210      1.0  0.94051  0.78624  0.52301  1.0000
  N   N46       1.0  0.87331  0.76499  0.41459  1.0000
  C   C283      1.0  0.75353  0.65888  0.34372  1.0000
  C   C284      1.0  0.75009  0.64038  0.42333  1.0000
  C   C285      1.0  0.75018  0.65291  0.51525  1.0000
  H   H211      1.0  0.77348  0.67588  0.52777  1.0000
  H   H212      1.0  0.74738  0.63485  0.56669  1.0000
  H   H213      1.0  0.72959  0.65773  0.52201  1.0000
  N   N47       1.0  0.75120  0.61172  0.41515  1.0000
  C   C286      1.0  0.85754  0.59798  0.34397  1.0000
  C   C287      1.0  0.87608  0.61326  0.42338  1.0000
  C   C288      1.0  0.86360  0.60110  0.51551  1.0000
  H   H214      1.0  0.84064  0.60149  0.52782  1.0000
  H   H215      1.0  0.88170  0.61650  0.56671  1.0000
  H   H216      1.0  0.85875  0.57570  0.52290  1.0000
  N   N48       1.0  0.90476  0.64299  0.41470  1.0000
