data_image0
_chemical_formula_structural       C2HC2HC2H4C2HC2HC2H4C8H4C8H4C2HC2HC2H4C2HC2HC2H4C8H4C8H4C2HC2HC2H4C2HC2HC2H4C2HC2HC2H4C2HC2HC2H4C8H4C8H4C2HC2HC2H4C2HC2HC2H4C8H4C8H4C2HC2HC2H4C2HC2HC2H4C8H4C8H4C2HC2HC2H4C2HC2HC2H4CNCNCNCNCNCNCNCNCNCNCNCNCNCNCNCNCNCNCNCNCNCNCNCNCNCNCNCNCNCNCNCNCNCNCNCNCNCNCNCNCNCNCNCNCNCNCNCNC8H4C8H4C2HC2HC2H4C2HC2HC2H4C8H4C8H4C2HC2HC2H4C2HC2HC2H4C8H4C8H4C8H4C8H4C2HC2HC2H4C2HC2HC2H4C8H4C8H4C2HC2HC2H4C2HC2HC2H4C8H4C8H4C2HC2HC2H4C2HC2HC2H4C8H4C8H4
_chemical_formula_sum              "C384 H240 N48"
_cell_length_a       66.5236
_cell_length_b       52.1647
_cell_length_c       14.9164
_cell_angle_alpha    90
_cell_angle_beta     90
_cell_angle_gamma    90

_space_group_name_H-M_alt    "P 1"
_space_group_IT_number       1

loop_
  _space_group_symop_operation_xyz
  'x, y, z'

loop_
  _atom_site_type_symbol
  _atom_site_label
  _atom_site_symmetry_multiplicity
  _atom_site_fract_x
  _atom_site_fract_y
  _atom_site_fract_z
  _atom_site_occupancy
  C   C1        1.0  0.01730  0.97539  0.29823  1.0000
  C   C2        1.0  0.01778  0.94821  0.29877  1.0000
  H   H1        1.0  0.02983  0.93903  0.27063  1.0000
  C   C3        1.0  0.01915  0.05755  0.32037  1.0000
  C   C4        1.0  0.01876  0.03036  0.31872  1.0000
  H   H2        1.0  0.03259  0.06668  0.31061  1.0000
  C   C5        1.0  0.03777  0.01582  0.30473  1.0000
  C   C6        1.0  0.03399  0.99004  0.25589  1.0000
  H   H3        1.0  0.04452  0.01207  0.37025  1.0000
  H   H4        1.0  0.04853  0.02695  0.26522  1.0000
  H   H5        1.0  0.04798  0.97902  0.25585  1.0000
  H   H6        1.0  0.02991  0.99387  0.18613  1.0000
  C   C7        1.0  0.51731  0.47530  0.29896  1.0000
  C   C8        1.0  0.51777  0.44812  0.29954  1.0000
  H   H7        1.0  0.52987  0.43892  0.27192  1.0000
  C   C9        1.0  0.51914  0.55747  0.32087  1.0000
  C   C10       1.0  0.51875  0.53028  0.31938  1.0000
  H   H8        1.0  0.53260  0.56659  0.31165  1.0000
  C   C11       1.0  0.53779  0.51571  0.30630  1.0000
  C   C12       1.0  0.53411  0.48993  0.25736  1.0000
  H   H9        1.0  0.54438  0.51197  0.37215  1.0000
  H   H10       1.0  0.54865  0.52683  0.26729  1.0000
  H   H11       1.0  0.54809  0.47890  0.25799  1.0000
  H   H12       1.0  0.53019  0.49375  0.18740  1.0000
  C   C13       1.0  0.03868  0.15351  0.34195  1.0000
  C   C14       1.0  0.05678  0.14442  0.30375  1.0000
  C   C15       1.0  0.07451  0.15933  0.30530  1.0000
  C   C16       1.0  0.07519  0.18378  0.34710  1.0000
  C   C17       1.0  0.09266  0.20058  0.34540  1.0000
  C   C18       1.0  0.11256  0.19225  0.32684  1.0000
  C   C19       1.0  0.12903  0.20940  0.32629  1.0000
  C   C20       1.0  0.12649  0.23586  0.34372  1.0000
  H   H13       1.0  0.11549  0.17335  0.31474  1.0000
  H   H14       1.0  0.14302  0.20230  0.31214  1.0000
  H   H15       1.0  0.05701  0.12718  0.27107  1.0000
  H   H16       1.0  0.08679  0.15227  0.27255  1.0000
  C   C21       1.0  0.96617  0.85185  0.34377  1.0000
  C   C22       1.0  0.94788  0.86103  0.30778  1.0000
  C   C23       1.0  0.93021  0.84604  0.31014  1.0000
  C   C24       1.0  0.92980  0.82143  0.35072  1.0000
  C   C25       1.0  0.91236  0.80459  0.34944  1.0000
  C   C26       1.0  0.89239  0.81293  0.33229  1.0000
  C   C27       1.0  0.87597  0.79571  0.33116  1.0000
  C   C28       1.0  0.87865  0.76918  0.34664  1.0000
  H   H17       1.0  0.88938  0.83186  0.32147  1.0000
  H   H18       1.0  0.86195  0.80281  0.31789  1.0000
  H   H19       1.0  0.94743  0.87840  0.27597  1.0000
  H   H20       1.0  0.91777  0.85320  0.27882  1.0000
  C   C29       1.0  0.94796  0.19418  0.29466  1.0000
  C   C30       1.0  0.96568  0.17919  0.29662  1.0000
  H   H21       1.0  0.97849  0.18644  0.26822  1.0000
  C   C31       1.0  0.89822  0.24531  0.32285  1.0000
  C   C32       1.0  0.91482  0.22840  0.32038  1.0000
  H   H22       1.0  0.90093  0.26438  0.31247  1.0000
  C   C33       1.0  0.93530  0.23902  0.30451  1.0000
  C   C34       1.0  0.94837  0.21985  0.25126  1.0000
  H   H23       1.0  0.94232  0.24290  0.36939  1.0000
  H   H24       1.0  0.93472  0.25703  0.26702  1.0000
  H   H25       1.0  0.96363  0.22751  0.24629  1.0000
  H   H26       1.0  0.94241  0.21796  0.18323  1.0000
  C   C35       1.0  0.05671  0.81274  0.27990  1.0000
  C   C36       1.0  0.03902  0.82778  0.28323  1.0000
  H   H27       1.0  0.02618  0.82080  0.25427  1.0000
  C   C37       1.0  0.10599  0.76078  0.30745  1.0000
  C   C38       1.0  0.08957  0.77797  0.30420  1.0000
  H   H28       1.0  0.10316  0.74180  0.29574  1.0000
  C   C39       1.0  0.06908  0.76771  0.28587  1.0000
  C   C40       1.0  0.05627  0.78744  0.23395  1.0000
  H   H29       1.0  0.06184  0.76328  0.34983  1.0000
  H   H30       1.0  0.06970  0.75004  0.24640  1.0000
  H   H31       1.0  0.04098  0.77998  0.22735  1.0000
  H   H32       1.0  0.06243  0.78984  0.16648  1.0000
  C   C41       1.0  0.53867  0.65329  0.34216  1.0000
  C   C42       1.0  0.55670  0.64425  0.30318  1.0000
  C   C43       1.0  0.57455  0.65890  0.30598  1.0000
  C   C44       1.0  0.57547  0.68300  0.35010  1.0000
  C   C45       1.0  0.59309  0.69959  0.34964  1.0000
  C   C46       1.0  0.61286  0.69134  0.32788  1.0000
  C   C47       1.0  0.62937  0.70843  0.32635  1.0000
  C   C48       1.0  0.62703  0.73478  0.34624  1.0000
  H   H33       1.0  0.61562  0.67257  0.31303  1.0000
  H   H34       1.0  0.64319  0.70145  0.30866  1.0000
  H   H35       1.0  0.55679  0.62723  0.26905  1.0000
  H   H36       1.0  0.58676  0.65189  0.27261  1.0000
  C   C49       1.0  0.46601  0.35192  0.34494  1.0000
  C   C50       1.0  0.44781  0.36101  0.30776  1.0000
  C   C51       1.0  0.43003  0.34625  0.31116  1.0000
  C   C52       1.0  0.42937  0.32199  0.35422  1.0000
  C   C53       1.0  0.41182  0.30531  0.35387  1.0000
  C   C54       1.0  0.39198  0.31353  0.33317  1.0000
  C   C55       1.0  0.37555  0.29632  0.33079  1.0000
  C   C56       1.0  0.37807  0.26990  0.34871  1.0000
  H   H37       1.0  0.38910  0.33235  0.31954  1.0000
  H   H38       1.0  0.36169  0.30328  0.31374  1.0000
  H   H39       1.0  0.44752  0.37815  0.27434  1.0000
  H   H40       1.0  0.41769  0.35332  0.27892  1.0000
  C   C57       1.0  0.44729  0.69296  0.28639  1.0000
  C   C58       1.0  0.46521  0.67835  0.29034  1.0000
  H   H41       1.0  0.47791  0.68541  0.26039  1.0000
  C   C59       1.0  0.39715  0.74374  0.31093  1.0000
  C   C60       1.0  0.41378  0.72691  0.30723  1.0000
  H   H42       1.0  0.39971  0.76272  0.29793  1.0000
  C   C61       1.0  0.43405  0.73764  0.28740  1.0000
  C   C62       1.0  0.44730  0.71787  0.23799  1.0000
  H   H43       1.0  0.44120  0.74302  0.35069  1.0000
  H   H44       1.0  0.43303  0.75484  0.24562  1.0000
  H   H45       1.0  0.46246  0.72576  0.23105  1.0000
  H   H46       1.0  0.44130  0.71472  0.17062  1.0000
  C   C63       1.0  0.55703  0.31343  0.27601  1.0000
  C   C64       1.0  0.53920  0.32817  0.28079  1.0000
  H   H47       1.0  0.52641  0.32125  0.25115  1.0000
  C   C65       1.0  0.60667  0.26183  0.30079  1.0000
  C   C66       1.0  0.59022  0.27895  0.29687  1.0000
  H   H48       1.0  0.60395  0.24290  0.28761  1.0000
  C   C67       1.0  0.56986  0.26855  0.27649  1.0000
  C   C68       1.0  0.55685  0.28859  0.22711  1.0000
  H   H49       1.0  0.56260  0.26320  0.33954  1.0000
  H   H50       1.0  0.57076  0.25140  0.23444  1.0000
  H   H51       1.0  0.54163  0.28095  0.21960  1.0000
  H   H52       1.0  0.56298  0.29176  0.15997  1.0000
  C   C69       1.0  0.35581  0.13626  0.29114  1.0000
  C   C70       1.0  0.35038  0.16239  0.28322  1.0000
  H   H53       1.0  0.34078  0.16791  0.23311  1.0000
  C   C71       1.0  0.37070  0.05673  0.31614  1.0000
  C   C72       1.0  0.36422  0.08263  0.31703  1.0000
  H   H54       1.0  0.36288  0.04352  0.27927  1.0000
  C   C73       1.0  0.34572  0.09030  0.26769  1.0000
  C   C74       1.0  0.34801  0.11726  0.22520  1.0000
  H   H55       1.0  0.33321  0.09059  0.31523  1.0000
  H   H56       1.0  0.34202  0.07660  0.21468  1.0000
  H   H57       1.0  0.33339  0.12316  0.19868  1.0000
  H   H58       1.0  0.35856  0.11623  0.16909  1.0000
  C   C75       1.0  0.65012  0.86840  0.29635  1.0000
  C   C76       1.0  0.65500  0.84216  0.28586  1.0000
  H   H59       1.0  0.66380  0.83656  0.23299  1.0000
  C   C77       1.0  0.63574  0.94793  0.32289  1.0000
  C   C78       1.0  0.64243  0.92211  0.32424  1.0000
  H   H60       1.0  0.64277  0.96089  0.28195  1.0000
  C   C79       1.0  0.66022  0.91426  0.27031  1.0000
  C   C80       1.0  0.65722  0.88733  0.22860  1.0000
  H   H61       1.0  0.67329  0.91381  0.31472  1.0000
  H   H62       1.0  0.66339  0.92792  0.21650  1.0000
  H   H63       1.0  0.67146  0.88127  0.19866  1.0000
  H   H64       1.0  0.64602  0.88846  0.17508  1.0000
  C   C81       1.0  0.64612  0.18101  0.32858  1.0000
  C   C82       1.0  0.63264  0.17311  0.26118  1.0000
  C   C83       1.0  0.62778  0.14711  0.25054  1.0000
  C   C84       1.0  0.63556  0.12801  0.30878  1.0000
  C   C85       1.0  0.62994  0.10132  0.30266  1.0000
  C   C86       1.0  0.61237  0.09322  0.25723  1.0000
  C   C87       1.0  0.60605  0.06762  0.25931  1.0000
  C   C88       1.0  0.61680  0.04878  0.30786  1.0000
  H   H65       1.0  0.60311  0.10593  0.22573  1.0000
  H   H66       1.0  0.59290  0.06314  0.22725  1.0000
  H   H67       1.0  0.62669  0.18615  0.21723  1.0000
  H   H68       1.0  0.61856  0.14252  0.19832  1.0000
  C   C89       1.0  0.35707  0.82375  0.33814  1.0000
  C   C90       1.0  0.36796  0.83204  0.26258  1.0000
  C   C91       1.0  0.37250  0.85809  0.25092  1.0000
  C   C92       1.0  0.36706  0.87674  0.31584  1.0000
  C   C93       1.0  0.37261  0.90341  0.30826  1.0000
  C   C94       1.0  0.38853  0.91166  0.25219  1.0000
  C   C95       1.0  0.39519  0.93712  0.25278  1.0000
  C   C96       1.0  0.38638  0.95557  0.30991  1.0000
  H   H69       1.0  0.39651  0.89909  0.21380  1.0000
  H   H70       1.0  0.40728  0.94175  0.21344  1.0000
  H   H71       1.0  0.37217  0.81928  0.21386  1.0000
  H   H72       1.0  0.37972  0.86306  0.19314  1.0000
  C   C97       1.0  0.85740  0.63730  0.28894  1.0000
  C   C98       1.0  0.85175  0.66341  0.28402  1.0000
  H   H73       1.0  0.84367  0.66982  0.23003  1.0000
  C   C99       1.0  0.87145  0.55745  0.30756  1.0000
  C   C100      1.0  0.86512  0.58339  0.30906  1.0000
  H   H74       1.0  0.86464  0.54484  0.26460  1.0000
  C   C101      1.0  0.84832  0.59197  0.25029  1.0000
  C   C102      1.0  0.85196  0.61949  0.21477  1.0000
  H   H75       1.0  0.83444  0.59163  0.28950  1.0000
  H   H76       1.0  0.84634  0.57915  0.19292  1.0000
  H   H77       1.0  0.83844  0.62591  0.17966  1.0000
  H   H78       1.0  0.86433  0.61923  0.16647  1.0000
  C   C103      1.0  0.14894  0.36818  0.29715  1.0000
  C   C104      1.0  0.15405  0.34195  0.28900  1.0000
  H   H79       1.0  0.16180  0.33577  0.23373  1.0000
  C   C105      1.0  0.13452  0.44782  0.31849  1.0000
  C   C106      1.0  0.14134  0.42207  0.32045  1.0000
  H   H80       1.0  0.14074  0.46041  0.27371  1.0000
  C   C107      1.0  0.15801  0.41374  0.26061  1.0000
  C   C108      1.0  0.15433  0.38635  0.22394  1.0000
  H   H81       1.0  0.17195  0.41388  0.29944  1.0000
  H   H82       1.0  0.15995  0.42680  0.20388  1.0000
  H   H83       1.0  0.16786  0.38008  0.18853  1.0000
  H   H84       1.0  0.14195  0.38679  0.17568  1.0000
  C   C109      1.0  0.14671  0.68050  0.31900  1.0000
  C   C110      1.0  0.13375  0.67225  0.25016  1.0000
  C   C111      1.0  0.12865  0.64624  0.24170  1.0000
  C   C112      1.0  0.13563  0.62759  0.30365  1.0000
  C   C113      1.0  0.12973  0.60096  0.29968  1.0000
  C   C114      1.0  0.11241  0.59272  0.25258  1.0000
  C   C115      1.0  0.10585  0.56722  0.25632  1.0000
  C   C116      1.0  0.11617  0.54863  0.30770  1.0000
  H   H85       1.0  0.10352  0.60531  0.21851  1.0000
  H   H86       1.0  0.09289  0.56260  0.22296  1.0000
  H   H87       1.0  0.12829  0.68502  0.20403  1.0000
  H   H88       1.0  0.11982  0.64130  0.18854  1.0000
  C   C117      1.0  0.85634  0.32440  0.32706  1.0000
  C   C118      1.0  0.85932  0.33586  0.24269  1.0000
  C   C119      1.0  0.86388  0.36209  0.23641  1.0000
  C   C120      1.0  0.86572  0.37764  0.31403  1.0000
  C   C121      1.0  0.87089  0.40445  0.30984  1.0000
  C   C122      1.0  0.88201  0.41490  0.23752  1.0000
  C   C123      1.0  0.88896  0.44029  0.23947  1.0000
  C   C124      1.0  0.88464  0.45638  0.31293  1.0000
  H   H89       1.0  0.88652  0.40374  0.18498  1.0000
  H   H90       1.0  0.89788  0.44664  0.18809  1.0000
  H   H91       1.0  0.85808  0.32525  0.18517  1.0000
  H   H92       1.0  0.86544  0.36969  0.17370  1.0000
  C   C125      1.0  0.52395  0.01836  0.28727  1.0000
  C   C126      1.0  0.54515  0.01906  0.28933  1.0000
  H   H93       1.0  0.55245  0.03366  0.25702  1.0000
  C   C127      1.0  0.46025  0.02228  0.31443  1.0000
  C   C128      1.0  0.48145  0.02154  0.31209  1.0000
  H   H94       1.0  0.45312  0.03933  0.30220  1.0000
  C   C129      1.0  0.49299  0.04532  0.29183  1.0000
  C   C130      1.0  0.51255  0.03890  0.24021  1.0000
  H   H95       1.0  0.49674  0.05480  0.35505  1.0000
  H   H96       1.0  0.48414  0.05869  0.25144  1.0000
  H   H97       1.0  0.52144  0.05641  0.23306  1.0000
  H   H98       1.0  0.50874  0.03207  0.17299  1.0000
  C   C131      1.0  0.02321  0.51803  0.28767  1.0000
  C   C132      1.0  0.04441  0.51883  0.29031  1.0000
  H   H99       1.0  0.05170  0.53352  0.25842  1.0000
  C   C133      1.0  0.95945  0.52171  0.31254  1.0000
  C   C134      1.0  0.98065  0.52101  0.31095  1.0000
  H   H100      1.0  0.95235  0.53877  0.30034  1.0000
  C   C135      1.0  0.99219  0.54485  0.29161  1.0000
  C   C136      1.0  0.01184  0.53858  0.24056  1.0000
  H   H101      1.0  0.99581  0.55423  0.35516  1.0000
  H   H102      1.0  0.98339  0.55828  0.25120  1.0000
  H   H103      1.0  0.02069  0.55615  0.23398  1.0000
  H   H104      1.0  0.00816  0.53183  0.17309  1.0000
  C   C137      1.0  0.19869  0.25986  0.33292  1.0000
  C   C138      1.0  0.20660  0.23979  0.28036  1.0000
  C   C139      1.0  0.22754  0.23621  0.27257  1.0000
  C   C140      1.0  0.24153  0.25206  0.31860  1.0000
  C   C141      1.0  0.26318  0.24935  0.31128  1.0000
  C   C142      1.0  0.27242  0.22659  0.28028  1.0000
  C   C143      1.0  0.29342  0.22379  0.27935  1.0000
  C   C144      1.0  0.30645  0.24345  0.30979  1.0000
  H   H105      1.0  0.26407  0.21110  0.26128  1.0000
  H   H106      1.0  0.29905  0.20662  0.25761  1.0000
  H   H107      1.0  0.19718  0.22832  0.24379  1.0000
  H   H108      1.0  0.23232  0.22220  0.22988  1.0000
  C   C145      1.0  0.80657  0.74472  0.33331  1.0000
  C   C146      1.0  0.79866  0.76471  0.28042  1.0000
  C   C147      1.0  0.77772  0.76815  0.27210  1.0000
  C   C148      1.0  0.76372  0.75225  0.31796  1.0000
  C   C149      1.0  0.74208  0.75490  0.31031  1.0000
  C   C150      1.0  0.73282  0.77759  0.27872  1.0000
  C   C151      1.0  0.71183  0.78037  0.27761  1.0000
  C   C152      1.0  0.69881  0.76075  0.30850  1.0000
  H   H109      1.0  0.74116  0.79306  0.25949  1.0000
  H   H110      1.0  0.70619  0.79749  0.25553  1.0000
  H   H111      1.0  0.80808  0.77621  0.24398  1.0000
  H   H112      1.0  0.77294  0.78211  0.22922  1.0000
  C   C153      1.0  0.77100  0.27203  0.29771  1.0000
  C   C154      1.0  0.79202  0.27569  0.29143  1.0000
  H   H113      1.0  0.79733  0.29022  0.25178  1.0000
  C   C155      1.0  0.70715  0.26650  0.33212  1.0000
  C   C156      1.0  0.72838  0.26946  0.33012  1.0000
  H   H114      1.0  0.69824  0.28103  0.30876  1.0000
  C   C157      1.0  0.73738  0.29384  0.29735  1.0000
  C   C158      1.0  0.75716  0.28883  0.24553  1.0000
  H   H115      1.0  0.74053  0.30603  0.35532  1.0000
  H   H116      1.0  0.72704  0.30423  0.25338  1.0000
  H   H117      1.0  0.76413  0.30730  0.22997  1.0000
  H   H118      1.0  0.75371  0.27929  0.18209  1.0000
  C   C159      1.0  0.23285  0.73214  0.30377  1.0000
  C   C160      1.0  0.21185  0.72852  0.29607  1.0000
  H   H119      1.0  0.20665  0.71414  0.25550  1.0000
  C   C161      1.0  0.29662  0.73794  0.34042  1.0000
  C   C162      1.0  0.27541  0.73487  0.33764  1.0000
  H   H120      1.0  0.30563  0.72355  0.31667  1.0000
  C   C163      1.0  0.26656  0.71052  0.30373  1.0000
  C   C164      1.0  0.24682  0.71553  0.25157  1.0000
  H   H121      1.0  0.26339  0.69814  0.36117  1.0000
  H   H122      1.0  0.27700  0.70034  0.25966  1.0000
  H   H123      1.0  0.23994  0.69705  0.23543  1.0000
  H   H124      1.0  0.25032  0.72521  0.18844  1.0000
  C   C165      1.0  0.98428  0.13987  0.33660  1.0000
  N   N1        1.0  0.98456  0.11378  0.33598  1.0000
  C   C166      1.0  0.00195  0.09985  0.33507  1.0000
  N   N2        1.0  0.01961  0.11324  0.33567  1.0000
  C   C167      1.0  0.02028  0.13935  0.33784  1.0000
  N   N3        1.0  0.00239  0.15197  0.33788  1.0000
  C   C168      1.0  0.02037  0.86652  0.32915  1.0000
  N   N4        1.0  0.01981  0.89265  0.32979  1.0000
  C   C169      1.0  0.00218  0.90604  0.33404  1.0000
  N   N5        1.0  0.98475  0.89227  0.33799  1.0000
  C   C170      1.0  0.98444  0.86619  0.33827  1.0000
  N   N6        1.0  0.00247  0.85396  0.33372  1.0000
  C   C171      1.0  0.48422  0.63977  0.33510  1.0000
  N   N7        1.0  0.48452  0.61368  0.33472  1.0000
  C   C172      1.0  0.50191  0.59977  0.33446  1.0000
  N   N8        1.0  0.51955  0.61319  0.33545  1.0000
  C   C173      1.0  0.52021  0.63930  0.33734  1.0000
  N   N9        1.0  0.50230  0.65195  0.33674  1.0000
  C   C174      1.0  0.52027  0.36644  0.32935  1.0000
  N   N10       1.0  0.51970  0.39256  0.32988  1.0000
  C   C175      1.0  0.50209  0.40596  0.33431  1.0000
  N   N11       1.0  0.48466  0.39219  0.33854  1.0000
  C   C176      1.0  0.48434  0.36610  0.33888  1.0000
  N   N12       1.0  0.50237  0.35383  0.33416  1.0000
  C   C177      1.0  0.39599  0.97961  0.32127  1.0000
  N   N13       1.0  0.38640  0.00241  0.33539  1.0000
  C   C178      1.0  0.39713  0.02448  0.34789  1.0000
  N   N14       1.0  0.41751  0.02300  0.34523  1.0000
  C   C179      1.0  0.42756  0.00080  0.33231  1.0000
  N   N15       1.0  0.41639  0.97944  0.32089  1.0000
  C   C180      1.0  0.60820  0.02407  0.32083  1.0000
  N   N16       1.0  0.61875  0.00217  0.33917  1.0000
  C   C181      1.0  0.60902  0.97959  0.35596  1.0000
  N   N17       1.0  0.58863  0.97952  0.35321  1.0000
  C   C182      1.0  0.57761  0.00066  0.33557  1.0000
  N   N18       1.0  0.58782  0.02258  0.31996  1.0000
  C   C183      1.0  0.89491  0.47985  0.32178  1.0000
  N   N19       1.0  0.88556  0.50273  0.33591  1.0000
  C   C184      1.0  0.89656  0.52454  0.34723  1.0000
  N   N20       1.0  0.91691  0.52280  0.34389  1.0000
  C   C185      1.0  0.92668  0.50035  0.33036  1.0000
  N   N21       1.0  0.91530  0.47903  0.31966  1.0000
  C   C186      1.0  0.10746  0.52404  0.32127  1.0000
  N   N22       1.0  0.11806  0.50221  0.33949  1.0000
  C   C187      1.0  0.10840  0.47963  0.35670  1.0000
  N   N23       1.0  0.08800  0.47941  0.35449  1.0000
  C   C188      1.0  0.07692  0.50053  0.33667  1.0000
  N   N24       1.0  0.08707  0.52251  0.32051  1.0000
  C   C189      1.0  0.14285  0.25391  0.34167  1.0000
  N   N25       1.0  0.16276  0.24733  0.33503  1.0000
  C   C190      1.0  0.17771  0.26541  0.33520  1.0000
  N   N26       1.0  0.17228  0.29048  0.33996  1.0000
  C   C191      1.0  0.15286  0.29783  0.34580  1.0000
  N   N27       1.0  0.13857  0.27939  0.34785  1.0000
  C   C192      1.0  0.86235  0.75107  0.34354  1.0000
  N   N28       1.0  0.84241  0.75751  0.33703  1.0000
  C   C193      1.0  0.82756  0.73930  0.33590  1.0000
  N   N29       1.0  0.83311  0.71425  0.33913  1.0000
  C   C194      1.0  0.85257  0.70707  0.34484  1.0000
  N   N30       1.0  0.86676  0.72561  0.34807  1.0000
  C   C195      1.0  0.86180  0.25462  0.33867  1.0000
  N   N31       1.0  0.84189  0.24779  0.34075  1.0000
  C   C196      1.0  0.82680  0.26567  0.33731  1.0000
  N   N32       1.0  0.83208  0.29080  0.33352  1.0000
  C   C197      1.0  0.85148  0.29831  0.33285  1.0000
  N   N33       1.0  0.86598  0.28017  0.33455  1.0000
  C   C198      1.0  0.14215  0.75071  0.32915  1.0000
  N   N34       1.0  0.16207  0.75710  0.33690  1.0000
  C   C199      1.0  0.17691  0.73888  0.33801  1.0000
  N   N35       1.0  0.17136  0.71386  0.33335  1.0000
  C   C200      1.0  0.15192  0.70663  0.32630  1.0000
  N   N36       1.0  0.13776  0.72525  0.32322  1.0000
  C   C201      1.0  0.64321  0.75302  0.33947  1.0000
  N   N37       1.0  0.66307  0.74694  0.32619  1.0000
  C   C202      1.0  0.67765  0.76538  0.31681  1.0000
  N   N38       1.0  0.67168  0.79025  0.32196  1.0000
  C   C203      1.0  0.65241  0.79728  0.33548  1.0000
  N   N39       1.0  0.63861  0.77843  0.34473  1.0000
  C   C204      1.0  0.36199  0.25156  0.34072  1.0000
  N   N40       1.0  0.34208  0.25748  0.32814  1.0000
  C   C205      1.0  0.32763  0.23893  0.31771  1.0000
  N   N41       1.0  0.33378  0.21410  0.32092  1.0000
  C   C206      1.0  0.35312  0.20722  0.33366  1.0000
  N   N42       1.0  0.36677  0.22620  0.34394  1.0000
  C   C207      1.0  0.36122  0.75350  0.34059  1.0000
  N   N43       1.0  0.34134  0.74733  0.35306  1.0000
  C   C208      1.0  0.32673  0.76570  0.36315  1.0000
  N   N44       1.0  0.33267  0.79061  0.35969  1.0000
  C   C209      1.0  0.35196  0.79768  0.34711  1.0000
  N   N45       1.0  0.36578  0.77893  0.33687  1.0000
  C   C210      1.0  0.64250  0.25150  0.33069  1.0000
  N   N46       1.0  0.66241  0.25744  0.34323  1.0000
  C   C211      1.0  0.67690  0.23891  0.35318  1.0000
  N   N47       1.0  0.67077  0.21407  0.34935  1.0000
  C   C212      1.0  0.65145  0.20714  0.33655  1.0000
  N   N48       1.0  0.63777  0.22612  0.32681  1.0000
  C   C213      1.0  0.00181  0.93348  0.33453  1.0000
  C   C214      1.0  0.98532  0.94705  0.37094  1.0000
  C   C215      1.0  0.98477  0.97403  0.37148  1.0000
  C   C216      1.0  0.00049  0.98894  0.33390  1.0000
  C   C217      1.0  0.00049  0.01677  0.33415  1.0000
  C   C218      1.0  0.98286  0.03165  0.34635  1.0000
  C   C219      1.0  0.98337  0.05863  0.34620  1.0000
  C   C220      1.0  0.00154  0.07233  0.33404  1.0000
  H   H125      1.0  0.96916  0.02313  0.35388  1.0000
  H   H126      1.0  0.97012  0.06819  0.35579  1.0000
  H   H127      1.0  0.97357  0.93738  0.39957  1.0000
  H   H128      1.0  0.97274  0.98253  0.40176  1.0000
  C   C221      1.0  0.50172  0.43340  0.33470  1.0000
  C   C222      1.0  0.48517  0.44700  0.37045  1.0000
  C   C223      1.0  0.48464  0.47398  0.37090  1.0000
  C   C224      1.0  0.50044  0.48887  0.33390  1.0000
  C   C225      1.0  0.50045  0.51669  0.33406  1.0000
  C   C226      1.0  0.48280  0.53158  0.34537  1.0000
  C   C227      1.0  0.48331  0.55856  0.34509  1.0000
  C   C228      1.0  0.50150  0.57225  0.33364  1.0000
  H   H129      1.0  0.46907  0.52306  0.35231  1.0000
  H   H130      1.0  0.47003  0.56812  0.35400  1.0000
  H   H131      1.0  0.47336  0.43735  0.39864  1.0000
  H   H132      1.0  0.47255  0.48250  0.40068  1.0000
  C   C229      1.0  0.05705  0.19258  0.38782  1.0000
  C   C230      1.0  0.03928  0.17774  0.38435  1.0000
  H   H133      1.0  0.02659  0.18465  0.41480  1.0000
  C   C231      1.0  0.10665  0.24411  0.36321  1.0000
  C   C232      1.0  0.09011  0.22711  0.36516  1.0000
  H   H134      1.0  0.10399  0.26303  0.37672  1.0000
  C   C233      1.0  0.06972  0.23750  0.38487  1.0000
  C   C234      1.0  0.05688  0.21758  0.43578  1.0000
  H   H135      1.0  0.06240  0.24236  0.32147  1.0000
  H   H136      1.0  0.07050  0.25492  0.42555  1.0000
  H   H137      1.0  0.04165  0.22517  0.44356  1.0000
  H   H138      1.0  0.06315  0.21469  0.50281  1.0000
  C   C235      1.0  0.94814  0.81251  0.38924  1.0000
  C   C236      1.0  0.96588  0.82743  0.38478  1.0000
  H   H139      1.0  0.97876  0.82046  0.41347  1.0000
  C   C237      1.0  0.89854  0.76093  0.36501  1.0000
  C   C238      1.0  0.91503  0.77799  0.36756  1.0000
  H   H140      1.0  0.90129  0.74194  0.37710  1.0000
  C   C239      1.0  0.93550  0.76757  0.38554  1.0000
  C   C240      1.0  0.94856  0.78734  0.43604  1.0000
  H   H141      1.0  0.94258  0.76282  0.32149  1.0000
  H   H142      1.0  0.93484  0.75007  0.42585  1.0000
  H   H143      1.0  0.96383  0.77976  0.44211  1.0000
  H   H144      1.0  0.94259  0.79000  0.50375  1.0000
  C   C241      1.0  0.96604  0.15436  0.33454  1.0000
  C   C242      1.0  0.94779  0.14487  0.37010  1.0000
  C   C243      1.0  0.93012  0.15988  0.37002  1.0000
  C   C244      1.0  0.92966  0.18487  0.33239  1.0000
  C   C245      1.0  0.91218  0.20162  0.33534  1.0000
  C   C246      1.0  0.89219  0.19302  0.35007  1.0000
  C   C247      1.0  0.87568  0.21009  0.35107  1.0000
  C   C248      1.0  0.87828  0.23675  0.33805  1.0000
  H   H145      1.0  0.88923  0.17396  0.35845  1.0000
  H   H146      1.0  0.86162  0.20276  0.36174  1.0000
  H   H147      1.0  0.94736  0.12717  0.39957  1.0000
  H   H148      1.0  0.91770  0.15242  0.40059  1.0000
  C   C249      1.0  0.03870  0.85227  0.32383  1.0000
  C   C250      1.0  0.05696  0.86142  0.36024  1.0000
  C   C251      1.0  0.07459  0.84632  0.35890  1.0000
  C   C252      1.0  0.07500  0.82160  0.31907  1.0000
  C   C253      1.0  0.09235  0.80461  0.32161  1.0000
  C   C254      1.0  0.11233  0.81280  0.33915  1.0000
  C   C255      1.0  0.12866  0.79546  0.34101  1.0000
  C   C256      1.0  0.12591  0.76892  0.32591  1.0000
  H   H149      1.0  0.11542  0.83174  0.34956  1.0000
  H   H150      1.0  0.14271  0.80249  0.35429  1.0000
  H   H151      1.0  0.05738  0.87883  0.39183  1.0000
  H   H152      1.0  0.08699  0.85345  0.39058  1.0000
  C   C257      1.0  0.55740  0.69172  0.39172  1.0000
  C   C258      1.0  0.53947  0.67718  0.38674  1.0000
  H   H153      1.0  0.52684  0.68399  0.41796  1.0000
  C   C259      1.0  0.60738  0.74287  0.37001  1.0000
  C   C260      1.0  0.59080  0.72594  0.37277  1.0000
  H   H154      1.0  0.60483  0.76172  0.38520  1.0000
  C   C261      1.0  0.57057  0.73643  0.39488  1.0000
  C   C262      1.0  0.55751  0.71617  0.44292  1.0000
  H   H155      1.0  0.56322  0.74233  0.33262  1.0000
  H   H156      1.0  0.57166  0.75325  0.43843  1.0000
  H   H157      1.0  0.54236  0.72394  0.45174  1.0000
  H   H158      1.0  0.56374  0.71242  0.50949  1.0000
  C   C263      1.0  0.44762  0.31322  0.39405  1.0000
  C   C264      1.0  0.46550  0.32785  0.38834  1.0000
  H   H159      1.0  0.47830  0.32101  0.41810  1.0000
  C   C265      1.0  0.39777  0.26184  0.37179  1.0000
  C   C266      1.0  0.41427  0.27888  0.37545  1.0000
  H   H160      1.0  0.40043  0.24293  0.38567  1.0000
  C   C267      1.0  0.43458  0.26843  0.39636  1.0000
  C   C268      1.0  0.44775  0.28859  0.44422  1.0000
  H   H161      1.0  0.44177  0.26264  0.33361  1.0000
  H   H162      1.0  0.43359  0.25153  0.43961  1.0000
  H   H163      1.0  0.46295  0.28087  0.45174  1.0000
  H   H164      1.0  0.44174  0.29210  0.51136  1.0000
  C   C269      1.0  0.46587  0.65402  0.33193  1.0000
  C   C270      1.0  0.44776  0.64467  0.36926  1.0000
  C   C271      1.0  0.42993  0.65937  0.36750  1.0000
  C   C272      1.0  0.42912  0.68385  0.32607  1.0000
  C   C273      1.0  0.41147  0.70037  0.32741  1.0000
  C   C274      1.0  0.39167  0.69186  0.34724  1.0000
  C   C275      1.0  0.37511  0.70888  0.34978  1.0000
  C   C276      1.0  0.37746  0.73538  0.33285  1.0000
  H   H165      1.0  0.38890  0.67296  0.35986  1.0000
  H   H166      1.0  0.36127  0.70170  0.36596  1.0000
  H   H167      1.0  0.44755  0.62731  0.40124  1.0000
  H   H168      1.0  0.41764  0.65204  0.39948  1.0000
  C   C277      1.0  0.53867  0.35236  0.32339  1.0000
  C   C278      1.0  0.55687  0.36151  0.36048  1.0000
  C   C279      1.0  0.57463  0.34666  0.35790  1.0000
  C   C280      1.0  0.57527  0.32224  0.31592  1.0000
  C   C281      1.0  0.59276  0.30545  0.31726  1.0000
  C   C282      1.0  0.61263  0.31362  0.33752  1.0000
  C   C283      1.0  0.62901  0.29634  0.34018  1.0000
  C   C284      1.0  0.62643  0.26987  0.32303  1.0000
  H   H169      1.0  0.61557  0.33247  0.35036  1.0000
  H   H170      1.0  0.64291  0.30329  0.35661  1.0000
  H   H171      1.0  0.55716  0.37872  0.39339  1.0000
  H   H172      1.0  0.58696  0.35377  0.39011  1.0000
  C   C285      1.0  0.35857  0.18114  0.34096  1.0000
  C   C286      1.0  0.37195  0.17321  0.40873  1.0000
  C   C287      1.0  0.37703  0.14725  0.41840  1.0000
  C   C288      1.0  0.36959  0.12829  0.35879  1.0000
  C   C289      1.0  0.37539  0.10166  0.36429  1.0000
  C   C290      1.0  0.39301  0.09369  0.40962  1.0000
  C   C291      1.0  0.39940  0.06813  0.40765  1.0000
  C   C292      1.0  0.38862  0.04923  0.35963  1.0000
  H   H173      1.0  0.40223  0.10648  0.44103  1.0000
  H   H174      1.0  0.41256  0.06367  0.43971  1.0000
  H   H175      1.0  0.37767  0.18617  0.45356  1.0000
  H   H176      1.0  0.38615  0.14259  0.47093  1.0000
  C   C293      1.0  0.64732  0.82341  0.34496  1.0000
  C   C294      1.0  0.63506  0.83142  0.41664  1.0000
  C   C295      1.0  0.63057  0.85748  0.42885  1.0000
  C   C296      1.0  0.63749  0.87651  0.36817  1.0000
  C   C297      1.0  0.63203  0.90324  0.37566  1.0000
  C   C298      1.0  0.61524  0.91145  0.42643  1.0000
  C   C299      1.0  0.60869  0.93696  0.42445  1.0000
  C   C300      1.0  0.61845  0.95554  0.37088  1.0000
  H   H177      1.0  0.60656  0.89882  0.46145  1.0000
  H   H178      1.0  0.59596  0.94151  0.45962  1.0000
  H   H179      1.0  0.62977  0.81842  0.46239  1.0000
  H   H180      1.0  0.62227  0.86216  0.48394  1.0000
  C   C301      1.0  0.64942  0.13597  0.37614  1.0000
  C   C302      1.0  0.65462  0.16216  0.38502  1.0000
  H   H181      1.0  0.66429  0.16763  0.43490  1.0000
  C   C303      1.0  0.63474  0.05639  0.35099  1.0000
  C   C304      1.0  0.64121  0.08230  0.34960  1.0000
  H   H182      1.0  0.64260  0.04325  0.38797  1.0000
  C   C305      1.0  0.65981  0.09003  0.39799  1.0000
  C   C306      1.0  0.65755  0.11690  0.44109  1.0000
  H   H183      1.0  0.67217  0.09048  0.34968  1.0000
  H   H184      1.0  0.66375  0.07627  0.45047  1.0000
  H   H185      1.0  0.67224  0.12287  0.46660  1.0000
  H   H186      1.0  0.64722  0.11571  0.49797  1.0000
  C   C307      1.0  0.35577  0.86835  0.39159  1.0000
  C   C308      1.0  0.35077  0.84213  0.40163  1.0000
  H   H187      1.0  0.34295  0.83626  0.45714  1.0000
  C   C309      1.0  0.37002  0.94792  0.36392  1.0000
  C   C310      1.0  0.36329  0.92212  0.36431  1.0000
  H   H188      1.0  0.36380  0.96082  0.40761  1.0000
  C   C311      1.0  0.34662  0.91414  0.42475  1.0000
  C   C312      1.0  0.35025  0.88694  0.46328  1.0000
  H   H189      1.0  0.33268  0.91410  0.38591  1.0000
  H   H190      1.0  0.34471  0.92752  0.48056  1.0000
  H   H191      1.0  0.33666  0.88086  0.49863  1.0000
  H   H192      1.0  0.36254  0.88765  0.51195  1.0000
  C   C313      1.0  0.85785  0.68101  0.35048  1.0000
  C   C314      1.0  0.86927  0.67207  0.42357  1.0000
  C   C315      1.0  0.87447  0.64606  0.43010  1.0000
  C   C316      1.0  0.86917  0.62822  0.36225  1.0000
  C   C317      1.0  0.87496  0.60157  0.36544  1.0000
  C   C318      1.0  0.89134  0.59285  0.41786  1.0000
  C   C319      1.0  0.89779  0.56729  0.41442  1.0000
  C   C320      1.0  0.88807  0.54922  0.35888  1.0000
  H   H193      1.0  0.89967  0.60517  0.45588  1.0000
  H   H194      1.0  0.91010  0.56217  0.45158  1.0000
  H   H195      1.0  0.87346  0.68431  0.47392  1.0000
  H   H196      1.0  0.88205  0.64046  0.48626  1.0000
  C   C321      1.0  0.14788  0.32395  0.35401  1.0000
  C   C322      1.0  0.13700  0.33260  0.42906  1.0000
  C   C323      1.0  0.13233  0.35871  0.43877  1.0000
  C   C324      1.0  0.13766  0.37699  0.37238  1.0000
  C   C325      1.0  0.13202  0.40370  0.37787  1.0000
  C   C326      1.0  0.11600  0.41226  0.43282  1.0000
  C   C327      1.0  0.10920  0.43767  0.42964  1.0000
  C   C328      1.0  0.11805  0.45576  0.37130  1.0000
  H   H197      1.0  0.10803  0.39988  0.47205  1.0000
  H   H198      1.0  0.09699  0.44252  0.46792  1.0000
  H   H199      1.0  0.13281  0.32007  0.47851  1.0000
  H   H200      1.0  0.12507  0.36400  0.49609  1.0000
  C   C329      1.0  0.14899  0.63594  0.37248  1.0000
  C   C330      1.0  0.15447  0.66210  0.37913  1.0000
  H   H201      1.0  0.16369  0.66792  0.43023  1.0000
  C   C331      1.0  0.13381  0.55638  0.35292  1.0000
  C   C332      1.0  0.14045  0.58221  0.35036  1.0000
  H   H202      1.0  0.14130  0.54344  0.39227  1.0000
  C   C333      1.0  0.15862  0.59012  0.40161  1.0000
  C   C334      1.0  0.15617  0.61739  0.44127  1.0000
  H   H203      1.0  0.17147  0.58995  0.35587  1.0000
  H   H204      1.0  0.16188  0.57679  0.45635  1.0000
  H   H205      1.0  0.17061  0.62337  0.46947  1.0000
  H   H206      1.0  0.14519  0.61686  0.49582  1.0000
  C   C335      1.0  0.86193  0.36610  0.39904  1.0000
  C   C336      1.0  0.85748  0.33964  0.40491  1.0000
  H   H207      1.0  0.85509  0.33141  0.46637  1.0000
  C   C337      1.0  0.87332  0.44647  0.38495  1.0000
  C   C338      1.0  0.86675  0.42065  0.38464  1.0000
  H   H208      1.0  0.87104  0.45754  0.44074  1.0000
  C   C339      1.0  0.85632  0.40976  0.46439  1.0000
  C   C340      1.0  0.86326  0.38185  0.48214  1.0000
  H   H209      1.0  0.84015  0.40990  0.45142  1.0000
  H   H210      1.0  0.85907  0.42118  0.52466  1.0000
  H   H211      1.0  0.85400  0.37379  0.53578  1.0000
  H   H212      1.0  0.87888  0.38191  0.50500  1.0000
  C   C341      1.0  0.55634  0.99982  0.33360  1.0000
  C   C342      1.0  0.54577  0.97987  0.37684  1.0000
  C   C343      1.0  0.52471  0.97910  0.37564  1.0000
  C   C344      1.0  0.51338  0.99797  0.32973  1.0000
  C   C345      1.0  0.49179  0.99821  0.33020  1.0000
  C   C346      1.0  0.48023  0.97579  0.34454  1.0000
  C   C347      1.0  0.45917  0.97662  0.34462  1.0000
  C   C348      1.0  0.44882  0.99993  0.33083  1.0000
  H   H213      1.0  0.48690  0.95833  0.35319  1.0000
  H   H214      1.0  0.45149  0.95993  0.35607  1.0000
  H   H215      1.0  0.55326  0.96596  0.41185  1.0000
  H   H216      1.0  0.51785  0.96489  0.41149  1.0000
  C   C349      1.0  0.05563  0.49960  0.33446  1.0000
  C   C350      1.0  0.04504  0.47951  0.37691  1.0000
  C   C351      1.0  0.02396  0.47863  0.37512  1.0000
  C   C352      1.0  0.01262  0.49753  0.32942  1.0000
  C   C353      1.0  0.99101  0.49769  0.32926  1.0000
  C   C354      1.0  0.97941  0.47527  0.34319  1.0000
  C   C355      1.0  0.95832  0.47607  0.34258  1.0000
  C   C356      1.0  0.94797  0.49937  0.32857  1.0000
  H   H217      1.0  0.98607  0.45782  0.35218  1.0000
  H   H218      1.0  0.95063  0.45939  0.35394  1.0000
  H   H219      1.0  0.05253  0.46555  0.41171  1.0000
  H   H220      1.0  0.01711  0.46430  0.41034  1.0000
  C   C357      1.0  0.23353  0.27204  0.37302  1.0000
  C   C358      1.0  0.21252  0.27567  0.37944  1.0000
  H   H221      1.0  0.20722  0.29011  0.41949  1.0000
  C   C359      1.0  0.29737  0.26649  0.33898  1.0000
  C   C360      1.0  0.27615  0.26945  0.34089  1.0000
  H   H222      1.0  0.30628  0.28099  0.36257  1.0000
  C   C361      1.0  0.26716  0.29381  0.37394  1.0000
  C   C362      1.0  0.24736  0.28876  0.42555  1.0000
  H   H223      1.0  0.26404  0.30607  0.31612  1.0000
  H   H224      1.0  0.27749  0.30414  0.41813  1.0000
  H   H225      1.0  0.24040  0.30722  0.44131  1.0000
  H   H226      1.0  0.25079  0.27914  0.48889  1.0000
  C   C363      1.0  0.77173  0.73235  0.37266  1.0000
  C   C364      1.0  0.79276  0.72883  0.37952  1.0000
  H   H227      1.0  0.79808  0.71443  0.41971  1.0000
  C   C365      1.0  0.70788  0.73776  0.33808  1.0000
  C   C366      1.0  0.72910  0.73482  0.34014  1.0000
  H   H228      1.0  0.69896  0.72330  0.36201  1.0000
  C   C367      1.0  0.73811  0.71051  0.37358  1.0000
  C   C368      1.0  0.75791  0.71562  0.42518  1.0000
  H   H229      1.0  0.74124  0.69819  0.31595  1.0000
  H   H230      1.0  0.72777  0.70022  0.41788  1.0000
  H   H231      1.0  0.76489  0.69718  0.44102  1.0000
  H   H232      1.0  0.75447  0.72525  0.48848  1.0000
  C   C369      1.0  0.80585  0.25988  0.33796  1.0000
  C   C370      1.0  0.79793  0.23977  0.39034  1.0000
  C   C371      1.0  0.77699  0.23615  0.39792  1.0000
  C   C372      1.0  0.76300  0.25202  0.35197  1.0000
  C   C373      1.0  0.74136  0.24932  0.35939  1.0000
  C   C374      1.0  0.73211  0.22654  0.39024  1.0000
  C   C375      1.0  0.71112  0.22374  0.39126  1.0000
  C   C376      1.0  0.69808  0.24344  0.36103  1.0000
  H   H233      1.0  0.74047  0.21103  0.40902  1.0000
  H   H234      1.0  0.70548  0.20656  0.41286  1.0000
  H   H235      1.0  0.80733  0.22835  0.42719  1.0000
  H   H236      1.0  0.77220  0.22214  0.44060  1.0000
  C   C377      1.0  0.19789  0.74432  0.34183  1.0000
  C   C378      1.0  0.20565  0.76432  0.39516  1.0000
  C   C379      1.0  0.22656  0.76786  0.40432  1.0000
  C   C380      1.0  0.24069  0.75206  0.35888  1.0000
  C   C381      1.0  0.26231  0.75484  0.36726  1.0000
  C   C382      1.0  0.27143  0.77756  0.39939  1.0000
  C   C383      1.0  0.29241  0.78046  0.40125  1.0000
  C   C384      1.0  0.30557  0.76096  0.37057  1.0000
  H   H237      1.0  0.26300  0.79296  0.41852  1.0000
  H   H238      1.0  0.29795  0.79760  0.42372  1.0000
  H   H239      1.0  0.19613  0.77578  0.43123  1.0000
  H   H240      1.0  0.23121  0.78184  0.44743  1.0000
