data_image0
_chemical_formula_structural       C8H3NO2C8H3NO2C2HC2HC2H4C2HC2HC2H4C2HC2HC2H4C2HC2HC2H4C8H3NO2C8H3NO2C8H3NO2C8H3NO2C2HC2HC2H4C2HC2HC2H4C2HC2HC2H4C2HC2HC2H4C8H3NO2C8H3NO2C8H3NO2C8H3NO2CNCNCNCNCNCNCNCNCNCNCNCNCNCNCNCNCNCNCNCNCNCNCNCNCNCNCNCNCNCNCNCNCNCNCNCNC2HC2HC2H4C2HC2HC2H4C8H3NO2C8H3NO2C8H3NO2C8H3NO2C2HC2HC2H4C2HC2HC2H4C2HC2HC2H4C2HC2HC2H4C8H3NO2C8H3NO2C8H3NO2C8H3NO2C2HC2HC2H4C2HC2HC2H4C2HC2HC2H4C2HC2HC2H4
_chemical_formula_sum              "C288 H162 N54 O36"
_cell_length_a       51.5175
_cell_length_b       51.3563
_cell_length_c       14.9197
_cell_angle_alpha    90
_cell_angle_beta     90
_cell_angle_gamma    90.1847

_space_group_name_H-M_alt    "P 1"
_space_group_IT_number       1

loop_
  _space_group_symop_operation_xyz
  'x, y, z'

loop_
  _atom_site_type_symbol
  _atom_site_label
  _atom_site_symmetry_multiplicity
  _atom_site_fract_x
  _atom_site_fract_y
  _atom_site_fract_z
  _atom_site_occupancy
  C   C1        1.0  0.95054  0.55054  0.33500  1.0000
  C   C2        1.0  0.94629  0.52742  0.28605  1.0000
  C   C3        1.0  0.96516  0.50743  0.28081  1.0000
  C   C4        1.0  0.98877  0.50954  0.33040  1.0000
  C   C5        1.0  0.00892  0.48978  0.33117  1.0000
  C   C6        1.0  0.00363  0.46276  0.32423  1.0000
  C   C7        1.0  0.02351  0.44406  0.32647  1.0000
  C   C8        1.0  0.04985  0.45123  0.33791  1.0000
  H   H1        1.0  0.98501  0.45606  0.32082  1.0000
  H   H2        1.0  0.01830  0.42491  0.32023  1.0000
  H   H3        1.0  0.92955  0.52543  0.24964  1.0000
  N   N1        1.0  0.96112  0.48659  0.22010  1.0000
  O   O1        1.0  0.94069  0.47409  0.23724  1.0000
  O   O2        1.0  0.96022  0.49440  0.14030  1.0000
  C   C9        1.0  0.45185  0.95067  0.33464  1.0000
  C   C10       1.0  0.47489  0.94630  0.28585  1.0000
  C   C11       1.0  0.49502  0.96516  0.28076  1.0000
  C   C12       1.0  0.49315  0.98882  0.33051  1.0000
  C   C13       1.0  0.51304  0.00896  0.33136  1.0000
  C   C14       1.0  0.53992  0.00357  0.32432  1.0000
  C   C15       1.0  0.55876  0.02346  0.32664  1.0000
  C   C16       1.0  0.55184  0.04990  0.33814  1.0000
  H   H4        1.0  0.54644  0.98488  0.32098  1.0000
  H   H5        1.0  0.57781  0.01821  0.32042  1.0000
  H   H6        1.0  0.47669  0.92954  0.24927  1.0000
  N   N2        1.0  0.51577  0.96104  0.22015  1.0000
  O   O3        1.0  0.52801  0.94049  0.23726  1.0000
  O   O4        1.0  0.50801  0.96018  0.14030  1.0000
  C   C17       1.0  0.05007  0.32286  0.28814  1.0000
  C   C18       1.0  0.05501  0.34999  0.29093  1.0000
  H   H7        1.0  0.04294  0.36242  0.25731  1.0000
  C   C19       1.0  0.02864  0.24236  0.30593  1.0000
  C   C20       1.0  0.03512  0.26919  0.30808  1.0000
  H   H8        1.0  0.00968  0.23718  0.29578  1.0000
  C   C21       1.0  0.01486  0.28920  0.29082  1.0000
  C   C22       1.0  0.02664  0.31288  0.24042  1.0000
  H   H9        1.0  0.00691  0.29561  0.35503  1.0000
  H   H10       1.0  0.99892  0.28127  0.25075  1.0000
  H   H11       1.0  0.01173  0.32786  0.23408  1.0000
  H   H12       1.0  0.03236  0.30693  0.17288  1.0000
  C   C23       1.0  0.95275  0.67968  0.29572  1.0000
  C   C24       1.0  0.94770  0.65256  0.29752  1.0000
  H   H13       1.0  0.95945  0.64023  0.26219  1.0000
  C   C25       1.0  0.97416  0.76020  0.31251  1.0000
  C   C26       1.0  0.96777  0.73335  0.31538  1.0000
  H   H14       1.0  0.99303  0.76543  0.30070  1.0000
  C   C27       1.0  0.98794  0.71338  0.29654  1.0000
  C   C28       1.0  0.97591  0.68975  0.24663  1.0000
  H   H15       1.0  0.99624  0.70691  0.36015  1.0000
  H   H16       1.0  0.00367  0.72136  0.25558  1.0000
  H   H17       1.0  0.99080  0.67479  0.23920  1.0000
  H   H18       1.0  0.96982  0.69575  0.17953  1.0000
  C   C29       1.0  0.67979  0.05004  0.28882  1.0000
  C   C30       1.0  0.65279  0.05507  0.29139  1.0000
  H   H19       1.0  0.64031  0.04289  0.25812  1.0000
  C   C31       1.0  0.75986  0.02838  0.30753  1.0000
  C   C32       1.0  0.73317  0.03495  0.30940  1.0000
  H   H20       1.0  0.76487  0.00932  0.29788  1.0000
  C   C33       1.0  0.71304  0.01465  0.29257  1.0000
  C   C34       1.0  0.68957  0.02641  0.24177  1.0000
  H   H21       1.0  0.70656  0.00683  0.35696  1.0000
  H   H22       1.0  0.72082  0.99855  0.25296  1.0000
  H   H23       1.0  0.67450  0.01147  0.23574  1.0000
  H   H24       1.0  0.69557  0.03199  0.17411  1.0000
  C   C35       1.0  0.32306  0.95278  0.29517  1.0000
  C   C36       1.0  0.35006  0.94771  0.29680  1.0000
  H   H25       1.0  0.36238  0.95938  0.26079  1.0000
  C   C37       1.0  0.24295  0.97434  0.31236  1.0000
  C   C38       1.0  0.26967  0.96792  0.31506  1.0000
  H   H26       1.0  0.23784  0.99323  0.29987  1.0000
  C   C39       1.0  0.28970  0.98809  0.29509  1.0000
  C   C40       1.0  0.31310  0.97584  0.24531  1.0000
  H   H27       1.0  0.29628  0.99663  0.35826  1.0000
  H   H28       1.0  0.28179  0.00372  0.25362  1.0000
  H   H29       1.0  0.32811  0.99074  0.23703  1.0000
  H   H30       1.0  0.30699  0.96951  0.17855  1.0000
  C   C41       1.0  0.42541  0.85976  0.33678  1.0000
  C   C42       1.0  0.41015  0.84228  0.28618  1.0000
  C   C43       1.0  0.41534  0.81521  0.28391  1.0000
  C   C44       1.0  0.43545  0.80463  0.33853  1.0000
  C   C45       1.0  0.44157  0.77710  0.34286  1.0000
  C   C46       1.0  0.42259  0.75723  0.33444  1.0000
  C   C47       1.0  0.42917  0.73069  0.33799  1.0000
  C   C48       1.0  0.45508  0.72257  0.35191  1.0000
  H   H31       1.0  0.40342  0.76170  0.32798  1.0000
  H   H32       1.0  0.41464  0.71733  0.32911  1.0000
  H   H33       1.0  0.39556  0.84942  0.24667  1.0000
  N   N3        1.0  0.40180  0.79941  0.22149  1.0000
  O   O5        1.0  0.37765  0.80002  0.23352  1.0000
  O   O6        1.0  0.40664  0.80599  0.14204  1.0000
  C   C49       1.0  0.57633  0.14216  0.34188  1.0000
  C   C50       1.0  0.59157  0.15992  0.29227  1.0000
  C   C51       1.0  0.58640  0.18698  0.29131  1.0000
  C   C52       1.0  0.56618  0.19728  0.34595  1.0000
  C   C53       1.0  0.56009  0.22479  0.35144  1.0000
  C   C54       1.0  0.57915  0.24464  0.34480  1.0000
  C   C55       1.0  0.57258  0.27118  0.34828  1.0000
  C   C56       1.0  0.54661  0.27931  0.36054  1.0000
  H   H34       1.0  0.59835  0.24015  0.33926  1.0000
  H   H35       1.0  0.58718  0.28453  0.34041  1.0000
  H   H36       1.0  0.60627  0.15303  0.25274  1.0000
  N   N4        1.0  0.60012  0.20306  0.23024  1.0000
  O   O7        1.0  0.62424  0.20239  0.24310  1.0000
  O   O8        1.0  0.59554  0.19685  0.15026  1.0000
  C   C57       1.0  0.85981  0.57660  0.33631  1.0000
  C   C58       1.0  0.84251  0.59196  0.28582  1.0000
  C   C59       1.0  0.81547  0.58688  0.28374  1.0000
  C   C60       1.0  0.80474  0.56674  0.33834  1.0000
  C   C61       1.0  0.77722  0.56074  0.34290  1.0000
  C   C62       1.0  0.75763  0.57989  0.33488  1.0000
  C   C63       1.0  0.73110  0.57342  0.33840  1.0000
  C   C64       1.0  0.72269  0.54747  0.35208  1.0000
  H   H37       1.0  0.76230  0.59910  0.32849  1.0000
  H   H38       1.0  0.71794  0.58808  0.32973  1.0000
  H   H39       1.0  0.84974  0.60664  0.24653  1.0000
  N   N5        1.0  0.79982  0.60060  0.22165  1.0000
  O   O9        1.0  0.80071  0.62481  0.23395  1.0000
  O   O10       1.0  0.80626  0.59580  0.14208  1.0000
  C   C65       1.0  0.14187  0.42690  0.34093  1.0000
  C   C66       1.0  0.15929  0.41165  0.29035  1.0000
  C   C67       1.0  0.18635  0.41651  0.28957  1.0000
  C   C68       1.0  0.19699  0.43639  0.34538  1.0000
  C   C69       1.0  0.22453  0.44209  0.35122  1.0000
  C   C70       1.0  0.24394  0.42272  0.34363  1.0000
  C   C71       1.0  0.27052  0.42894  0.34728  1.0000
  C   C72       1.0  0.27914  0.45483  0.36053  1.0000
  H   H40       1.0  0.23907  0.40355  0.33722  1.0000
  H   H41       1.0  0.28354  0.41416  0.33853  1.0000
  H   H42       1.0  0.15215  0.39715  0.25009  1.0000
  N   N6        1.0  0.20213  0.40282  0.22776  1.0000
  O   O11       1.0  0.20101  0.37859  0.23933  1.0000
  O   O12       1.0  0.19601  0.40786  0.14805  1.0000
  C   C73       1.0  0.14015  0.06138  0.29192  1.0000
  C   C74       1.0  0.15384  0.03763  0.28430  1.0000
  H   H43       1.0  0.16224  0.03267  0.22450  1.0000
  C   C75       1.0  0.09576  0.13134  0.30257  1.0000
  C   C76       1.0  0.11339  0.11026  0.30885  1.0000
  H   H44       1.0  0.09918  0.14588  0.25711  1.0000
  C   C77       1.0  0.13595  0.10834  0.24687  1.0000
  C   C78       1.0  0.13959  0.07982  0.21466  1.0000
  H   H45       1.0  0.15335  0.11465  0.28283  1.0000
  H   H46       1.0  0.13365  0.12093  0.18834  1.0000
  H   H47       1.0  0.15765  0.07877  0.17636  1.0000
  H   H48       1.0  0.12362  0.07432  0.17016  1.0000
  C   C79       1.0  0.86255  0.94105  0.29156  1.0000
  C   C80       1.0  0.84887  0.96478  0.28275  1.0000
  H   H49       1.0  0.84049  0.96949  0.22269  1.0000
  C   C81       1.0  0.90698  0.87114  0.30564  1.0000
  C   C82       1.0  0.88934  0.89225  0.31084  1.0000
  H   H50       1.0  0.90355  0.85641  0.26095  1.0000
  C   C83       1.0  0.86677  0.89390  0.24882  1.0000
  C   C84       1.0  0.86311  0.92229  0.21523  1.0000
  H   H51       1.0  0.84937  0.88773  0.28511  1.0000
  H   H52       1.0  0.86907  0.88107  0.19091  1.0000
  H   H53       1.0  0.84503  0.92316  0.17695  1.0000
  H   H54       1.0  0.87906  0.92761  0.17040  1.0000
  C   C85       1.0  0.94150  0.13943  0.28821  1.0000
  C   C86       1.0  0.96537  0.15291  0.27956  1.0000
  H   H55       1.0  0.97031  0.16114  0.21939  1.0000
  C   C87       1.0  0.87116  0.09550  0.30174  1.0000
  C   C88       1.0  0.89241  0.11306  0.30705  1.0000
  H   H56       1.0  0.85670  0.09884  0.25615  1.0000
  C   C89       1.0  0.89455  0.13548  0.24421  1.0000
  C   C90       1.0  0.92298  0.13880  0.21133  1.0000
  H   H57       1.0  0.88857  0.15310  0.27964  1.0000
  H   H58       1.0  0.88187  0.13310  0.18602  1.0000
  H   H59       1.0  0.92422  0.15679  0.17239  1.0000
  H   H60       1.0  0.92815  0.12260  0.16728  1.0000
  C   C91       1.0  0.06117  0.86345  0.29298  1.0000
  C   C92       1.0  0.03733  0.84989  0.28437  1.0000
  H   H61       1.0  0.03239  0.84170  0.22415  1.0000
  C   C93       1.0  0.13162  0.90722  0.30692  1.0000
  C   C94       1.0  0.11030  0.88973  0.31204  1.0000
  H   H62       1.0  0.14608  0.90387  0.26135  1.0000
  C   C95       1.0  0.10811  0.86736  0.24899  1.0000
  C   C96       1.0  0.07967  0.86415  0.21608  1.0000
  H   H63       1.0  0.11404  0.84969  0.28426  1.0000
  H   H64       1.0  0.12080  0.86976  0.19083  1.0000
  H   H65       1.0  0.07839  0.84622  0.17681  1.0000
  H   H66       1.0  0.07454  0.88042  0.17232  1.0000
  C   C97       1.0  0.34844  0.51882  0.32497  1.0000
  C   C98       1.0  0.36046  0.52538  0.24323  1.0000
  C   C99       1.0  0.37427  0.54901  0.23237  1.0000
  C   C100      1.0  0.37723  0.56615  0.30687  1.0000
  C   C101      1.0  0.39421  0.58861  0.30650  1.0000
  C   C102      1.0  0.41808  0.58862  0.25946  1.0000
  C   C103      1.0  0.43571  0.60939  0.26629  1.0000
  C   C104      1.0  0.43047  0.63109  0.32148  1.0000
  H   H67       1.0  0.42396  0.57273  0.22403  1.0000
  H   H68       1.0  0.45276  0.60817  0.23133  1.0000
  H   H69       1.0  0.35953  0.51260  0.19057  1.0000
  N   N7        1.0  0.38392  0.55581  0.14649  1.0000
  O   O13       1.0  0.39928  0.53899  0.11607  1.0000
  O   O14       1.0  0.36579  0.55886  0.09115  1.0000
  C   C105      1.0  0.65355  0.48293  0.32188  1.0000
  C   C106      1.0  0.64163  0.47585  0.24049  1.0000
  C   C107      1.0  0.62782  0.45215  0.23125  1.0000
  C   C108      1.0  0.62472  0.43550  0.30698  1.0000
  C   C109      1.0  0.60772  0.41304  0.30810  1.0000
  C   C110      1.0  0.58390  0.41272  0.26074  1.0000
  C   C111      1.0  0.56626  0.39199  0.26883  1.0000
  C   C112      1.0  0.57141  0.37066  0.32580  1.0000
  H   H70       1.0  0.57811  0.42835  0.22376  1.0000
  H   H71       1.0  0.54927  0.39297  0.23344  1.0000
  H   H72       1.0  0.64263  0.48828  0.18690  1.0000
  N   N8        1.0  0.61827  0.44480  0.14577  1.0000
  O   O15       1.0  0.60296  0.46143  0.11380  1.0000
  O   O16       1.0  0.63647  0.44137  0.09097  1.0000
  C   C113      1.0  0.51973  0.65400  0.32178  1.0000
  C   C114      1.0  0.52687  0.64273  0.23939  1.0000
  C   C115      1.0  0.55052  0.62912  0.22915  1.0000
  C   C116      1.0  0.56707  0.62557  0.30474  1.0000
  C   C117      1.0  0.58951  0.60873  0.30448  1.0000
  C   C118      1.0  0.58994  0.58520  0.25501  1.0000
  C   C119      1.0  0.61061  0.56762  0.26196  1.0000
  C   C120      1.0  0.63179  0.57255  0.31969  1.0000
  H   H73       1.0  0.57442  0.57953  0.21732  1.0000
  H   H74       1.0  0.60971  0.55080  0.22524  1.0000
  H   H75       1.0  0.51451  0.64405  0.18579  1.0000
  N   N9        1.0  0.55792  0.62025  0.14291  1.0000
  O   O17       1.0  0.54140  0.60499  0.10948  1.0000
  O   O18       1.0  0.56134  0.63893  0.08975  1.0000
  C   C121      1.0  0.48208  0.34791  0.32777  1.0000
  C   C122      1.0  0.47503  0.35925  0.24542  1.0000
  C   C123      1.0  0.45133  0.37275  0.23489  1.0000
  C   C124      1.0  0.43462  0.37611  0.31019  1.0000
  C   C125      1.0  0.41215  0.39292  0.30985  1.0000
  C   C126      1.0  0.41174  0.41647  0.26057  1.0000
  C   C127      1.0  0.39109  0.43407  0.26767  1.0000
  C   C128      1.0  0.36989  0.42914  0.32539  1.0000
  H   H76       1.0  0.42732  0.42223  0.22332  1.0000
  H   H77       1.0  0.39206  0.45094  0.23124  1.0000
  H   H78       1.0  0.48749  0.35807  0.19206  1.0000
  N   N10       1.0  0.44404  0.38170  0.14863  1.0000
  O   O19       1.0  0.46055  0.39707  0.11577  1.0000
  O   O20       1.0  0.44081  0.36307  0.09512  1.0000
  C   C129      1.0  0.11495  0.42060  0.34160  1.0000
  N   N11       1.0  0.09571  0.43874  0.34227  1.0000
  C   C130      1.0  0.07002  0.43203  0.33916  1.0000
  N   N12       1.0  0.06418  0.40608  0.33595  1.0000
  C   C131      1.0  0.08269  0.38727  0.33694  1.0000
  N   N13       1.0  0.10783  0.39515  0.33932  1.0000
  C   C132      1.0  0.88674  0.58272  0.33810  1.0000
  N   N14       1.0  0.90556  0.56419  0.33702  1.0000
  C   C133      1.0  0.93132  0.57045  0.33765  1.0000
  N   N15       1.0  0.93799  0.59618  0.33973  1.0000
  C   C134      1.0  0.91975  0.61532  0.34153  1.0000
  N   N16       1.0  0.89438  0.60803  0.34032  1.0000
  C   C135      1.0  0.58269  0.11521  0.34211  1.0000
  N   N17       1.0  0.56456  0.09585  0.34271  1.0000
  C   C136      1.0  0.57113  0.07010  0.33935  1.0000
  N   N18       1.0  0.59697  0.06431  0.33593  1.0000
  C   C137      1.0  0.61581  0.08293  0.33690  1.0000
  N   N19       1.0  0.60805  0.10813  0.33956  1.0000
  C   C138      1.0  0.41935  0.88673  0.33825  1.0000
  N   N20       1.0  0.43792  0.90561  0.33698  1.0000
  C   C139      1.0  0.43184  0.93144  0.33733  1.0000
  N   N21       1.0  0.40623  0.93812  0.33937  1.0000
  C   C140      1.0  0.38705  0.91981  0.34134  1.0000
  N   N22       1.0  0.39416  0.89436  0.34038  1.0000
  C   C141      1.0  0.00887  0.16254  0.33907  1.0000
  N   N23       1.0  0.01547  0.18794  0.32724  1.0000
  C   C142      1.0  0.04081  0.19570  0.32185  1.0000
  N   N24       1.0  0.05945  0.17692  0.32928  1.0000
  C   C143      1.0  0.05351  0.15134  0.34175  1.0000
  N   N25       1.0  0.02806  0.14480  0.34758  1.0000
  C   C144      1.0  0.99387  0.84013  0.34397  1.0000
  N   N26       1.0  0.98730  0.81468  0.33350  1.0000
  C   C145      1.0  0.96197  0.80686  0.32842  1.0000
  N   N27       1.0  0.94330  0.82565  0.33483  1.0000
  C   C146      1.0  0.94922  0.85129  0.34598  1.0000
  N   N28       1.0  0.97466  0.85788  0.35155  1.0000
  C   C147      1.0  0.83937  0.00851  0.34118  1.0000
  N   N29       1.0  0.81408  0.01510  0.32921  1.0000
  C   C148      1.0  0.80651  0.04052  0.32312  1.0000
  N   N30       1.0  0.82536  0.05923  0.32993  1.0000
  C   C149      1.0  0.85082  0.05331  0.34245  1.0000
  N   N31       1.0  0.85717  0.02780  0.34893  1.0000
  C   C150      1.0  0.16340  0.99417  0.34495  1.0000
  N   N32       1.0  0.18873  0.98759  0.33416  1.0000
  C   C151      1.0  0.19637  0.96216  0.32941  1.0000
  N   N33       1.0  0.17753  0.94343  0.33632  1.0000
  C   C152      1.0  0.15202  0.94937  0.34770  1.0000
  N   N34       1.0  0.14561  0.97489  0.35290  1.0000
  C   C153      1.0  0.49404  0.66267  0.33364  1.0000
  N   N35       1.0  0.48737  0.68806  0.34393  1.0000
  C   C154      1.0  0.46199  0.69559  0.34885  1.0000
  N   N36       1.0  0.44341  0.67661  0.34250  1.0000
  C   C155      1.0  0.44944  0.65103  0.33153  1.0000
  N   N37       1.0  0.47491  0.64471  0.32615  1.0000
  C   C156      1.0  0.50777  0.33925  0.33989  1.0000
  N   N38       1.0  0.51440  0.31389  0.35142  1.0000
  C   C157      1.0  0.53976  0.30631  0.35664  1.0000
  N   N39       1.0  0.55837  0.32525  0.34926  1.0000
  C   C158      1.0  0.55241  0.35079  0.33707  1.0000
  N   N40       1.0  0.52695  0.35713  0.33142  1.0000
  C   C159      1.0  0.66254  0.50868  0.33308  1.0000
  N   N41       1.0  0.68790  0.51525  0.34406  1.0000
  C   C160      1.0  0.69571  0.54068  0.34880  1.0000
  N   N42       1.0  0.67700  0.55941  0.34180  1.0000
  C   C161      1.0  0.65146  0.55348  0.33031  1.0000
  N   N43       1.0  0.64487  0.52797  0.32503  1.0000
  C   C162      1.0  0.33941  0.49316  0.33784  1.0000
  N   N44       1.0  0.31407  0.48675  0.35017  1.0000
  C   C163      1.0  0.30616  0.46139  0.35627  1.0000
  N   N45       1.0  0.32474  0.44253  0.34909  1.0000
  C   C164      1.0  0.35028  0.44828  0.33625  1.0000
  N   N46       1.0  0.35694  0.47376  0.32978  1.0000
  C   C165      1.0  0.99364  0.53348  0.37622  1.0000
  C   C166      1.0  0.97477  0.55346  0.37798  1.0000
  H   H79       1.0  0.97857  0.57019  0.41297  1.0000
  C   C167      1.0  0.05513  0.47808  0.35018  1.0000
  C   C168      1.0  0.03518  0.49705  0.34861  1.0000
  H   H80       1.0  0.07380  0.48405  0.36162  1.0000
  C   C169      1.0  0.04134  0.52485  0.36770  1.0000
  C   C170      1.0  0.01908  0.53762  0.42189  1.0000
  H   H81       1.0  0.04380  0.53510  0.30403  1.0000
  H   H82       1.0  0.05938  0.52685  0.40571  1.0000
  H   H83       1.0  0.02347  0.55832  0.43015  1.0000
  H   H84       1.0  0.01810  0.52884  0.48861  1.0000
  C   C171      1.0  0.46932  0.99378  0.37630  1.0000
  C   C172      1.0  0.44918  0.97496  0.37777  1.0000
  H   H85       1.0  0.43254  0.97881  0.41280  1.0000
  C   C173      1.0  0.52512  0.05526  0.35045  1.0000
  C   C174      1.0  0.50604  0.03531  0.34885  1.0000
  H   H86       1.0  0.51933  0.07400  0.36192  1.0000
  C   C175      1.0  0.47838  0.04158  0.36799  1.0000
  C   C176      1.0  0.46546  0.01928  0.42215  1.0000
  H   H87       1.0  0.46818  0.04409  0.30435  1.0000
  H   H88       1.0  0.47657  0.05968  0.40605  1.0000
  H   H89       1.0  0.44487  0.02376  0.43056  1.0000
  H   H90       1.0  0.47423  0.01824  0.48882  1.0000
  C   C177      1.0  0.07680  0.36018  0.33632  1.0000
  C   C178      1.0  0.09267  0.34252  0.38353  1.0000
  C   C179      1.0  0.08772  0.31538  0.38415  1.0000
  C   C180      1.0  0.06708  0.30492  0.33146  1.0000
  C   C181      1.0  0.06104  0.27736  0.32619  1.0000
  C   C182      1.0  0.08019  0.25767  0.33068  1.0000
  C   C183      1.0  0.07365  0.23108  0.32747  1.0000
  C   C184      1.0  0.04761  0.22274  0.31763  1.0000
  H   H91       1.0  0.09942  0.26233  0.33428  1.0000
  H   H92       1.0  0.08834  0.21785  0.33363  1.0000
  H   H93       1.0  0.10762  0.34953  0.42187  1.0000
  N   N47       1.0  0.10212  0.29935  0.44325  1.0000
  O   O21       1.0  0.12609  0.30039  0.42774  1.0000
  O   O22       1.0  0.09823  0.30531  0.52386  1.0000
  C   C185      1.0  0.92609  0.64230  0.34369  1.0000
  C   C186      1.0  0.91058  0.65982  0.39285  1.0000
  C   C187      1.0  0.91564  0.68694  0.39436  1.0000
  C   C188      1.0  0.93601  0.69753  0.34072  1.0000
  C   C189      1.0  0.94199  0.72511  0.33550  1.0000
  C   C190      1.0  0.92283  0.74478  0.34145  1.0000
  C   C191      1.0  0.92928  0.77138  0.33751  1.0000
  C   C192      1.0  0.95522  0.77979  0.32542  1.0000
  H   H94       1.0  0.90365  0.74008  0.34662  1.0000
  H   H95       1.0  0.91461  0.78459  0.34472  1.0000
  H   H96       1.0  0.89572  0.65270  0.43140  1.0000
  N   N48       1.0  0.90159  0.70283  0.45487  1.0000
  O   O23       1.0  0.87754  0.70191  0.44076  1.0000
  O   O24       1.0  0.90586  0.69660  0.53500  1.0000
  C   C193      1.0  0.64279  0.07703  0.33621  1.0000
  C   C194      1.0  0.66052  0.09300  0.38308  1.0000
  C   C195      1.0  0.68754  0.08800  0.38384  1.0000
  C   C196      1.0  0.69782  0.06717  0.33170  1.0000
  C   C197      1.0  0.72524  0.06102  0.32678  1.0000
  C   C198      1.0  0.74505  0.08018  0.33082  1.0000
  C   C199      1.0  0.77150  0.07354  0.32794  1.0000
  C   C200      1.0  0.77959  0.04738  0.31879  1.0000
  H   H97       1.0  0.74058  0.09949  0.33395  1.0000
  H   H98       1.0  0.78482  0.08826  0.33371  1.0000
  H   H99       1.0  0.65365  0.10811  0.42098  1.0000
  N   N49       1.0  0.70363  0.10255  0.44256  1.0000
  O   O25       1.0  0.70279  0.12657  0.42642  1.0000
  O   O26       1.0  0.69766  0.09883  0.52327  1.0000
  C   C201      1.0  0.36020  0.92617  0.34361  1.0000
  C   C202      1.0  0.34270  0.91078  0.39363  1.0000
  C   C203      1.0  0.31570  0.91587  0.39537  1.0000
  C   C204      1.0  0.30521  0.93613  0.34107  1.0000
  C   C205      1.0  0.27774  0.94213  0.33607  1.0000
  C   C206      1.0  0.25802  0.92294  0.34310  1.0000
  C   C207      1.0  0.23153  0.92941  0.33923  1.0000
  C   C208      1.0  0.22331  0.95539  0.32626  1.0000
  H   H100      1.0  0.26257  0.90371  0.34889  1.0000
  H   H101      1.0  0.21828  0.91472  0.34721  1.0000
  H   H102      1.0  0.34974  0.89599  0.43262  1.0000
  N   N50       1.0  0.29984  0.90200  0.45668  1.0000
  O   O27       1.0  0.30058  0.87782  0.44356  1.0000
  O   O28       1.0  0.30619  0.90655  0.53655  1.0000
  C   C209      1.0  0.45181  0.82248  0.38565  1.0000
  C   C210      1.0  0.44674  0.84955  0.38422  1.0000
  H   H103      1.0  0.45829  0.86190  0.42058  1.0000
  C   C211      1.0  0.47381  0.74234  0.36694  1.0000
  C   C212      1.0  0.46727  0.76911  0.36458  1.0000
  H   H104      1.0  0.49262  0.73729  0.38016  1.0000
  C   C213      1.0  0.48719  0.78925  0.38597  1.0000
  C   C214      1.0  0.47466  0.81248  0.43619  1.0000
  H   H105      1.0  0.49584  0.79612  0.32336  1.0000
  H   H106      1.0  0.50271  0.78130  0.42771  1.0000
  H   H107      1.0  0.48940  0.82758  0.44579  1.0000
  H   H108      1.0  0.46813  0.80607  0.50238  1.0000
  C   C215      1.0  0.54964  0.17920  0.39130  1.0000
  C   C216      1.0  0.55480  0.15213  0.38896  1.0000
  H   H109      1.0  0.54317  0.13961  0.42427  1.0000
  C   C217      1.0  0.52780  0.25954  0.37438  1.0000
  C   C218      1.0  0.53432  0.23275  0.37211  1.0000
  H   H110      1.0  0.50892  0.26458  0.38640  1.0000
  C   C219      1.0  0.51430  0.21256  0.39178  1.0000
  C   C220      1.0  0.52657  0.18901  0.44110  1.0000
  H   H111      1.0  0.50578  0.20604  0.32851  1.0000
  H   H112      1.0  0.49871  0.22039  0.43347  1.0000
  H   H113      1.0  0.51176  0.17389  0.44888  1.0000
  H   H114      1.0  0.53280  0.19504  0.50806  1.0000
  C   C221      1.0  0.82240  0.55019  0.38503  1.0000
  C   C222      1.0  0.84945  0.55519  0.38359  1.0000
  H   H115      1.0  0.86165  0.54353  0.41979  1.0000
  C   C223      1.0  0.74220  0.52856  0.36690  1.0000
  C   C224      1.0  0.76896  0.53499  0.36449  1.0000
  H   H116      1.0  0.73695  0.50971  0.37990  1.0000
  C   C225      1.0  0.78883  0.51488  0.38548  1.0000
  C   C226      1.0  0.81221  0.52727  0.43542  1.0000
  H   H117      1.0  0.79548  0.50619  0.32271  1.0000
  H   H118      1.0  0.78076  0.49935  0.42723  1.0000
  H   H119      1.0  0.82710  0.51239  0.44457  1.0000
  H   H120      1.0  0.80600  0.53379  0.50182  1.0000
  C   C227      1.0  0.17928  0.45302  0.39151  1.0000
  C   C228      1.0  0.15219  0.44818  0.38899  1.0000
  H   H121      1.0  0.13994  0.45980  0.42512  1.0000
  C   C229      1.0  0.25980  0.47392  0.37544  1.0000
  C   C230      1.0  0.23298  0.46774  0.37314  1.0000
  H   H122      1.0  0.26522  0.49273  0.38825  1.0000
  C   C231      1.0  0.21326  0.48801  0.39389  1.0000
  C   C232      1.0  0.18952  0.47582  0.44249  1.0000
  H   H123      1.0  0.20695  0.49694  0.33110  1.0000
  H   H124      1.0  0.22138  0.50333  0.43646  1.0000
  H   H125      1.0  0.17473  0.49084  0.45095  1.0000
  H   H126      1.0  0.19536  0.46920  0.50915  1.0000
  C   C233      1.0  0.15460  0.01991  0.35625  1.0000
  C   C234      1.0  0.14284  0.02697  0.43785  1.0000
  C   C235      1.0  0.12906  0.05059  0.44721  1.0000
  C   C236      1.0  0.12585  0.06718  0.37141  1.0000
  C   C237      1.0  0.10887  0.08953  0.37047  1.0000
  C   C238      1.0  0.08514  0.08974  0.41833  1.0000
  C   C239      1.0  0.06747  0.11032  0.41026  1.0000
  C   C240      1.0  0.07254  0.13165  0.35302  1.0000
  H   H127      1.0  0.07937  0.07407  0.45534  1.0000
  H   H128      1.0  0.05051  0.10924  0.44585  1.0000
  H   H129      1.0  0.14391  0.01457  0.49150  1.0000
  N   N51       1.0  0.11965  0.05794  0.53282  1.0000
  O   O29       1.0  0.10437  0.04124  0.56515  1.0000
  O   O30       1.0  0.13794  0.06149  0.58728  1.0000
  C   C241      1.0  0.84814  0.98281  0.35379  1.0000
  C   C242      1.0  0.85987  0.97606  0.43577  1.0000
  C   C243      1.0  0.87363  0.95247  0.44632  1.0000
  C   C244      1.0  0.87684  0.93558  0.37133  1.0000
  C   C245      1.0  0.89384  0.91322  0.37150  1.0000
  C   C246      1.0  0.91758  0.91323  0.41934  1.0000
  C   C247      1.0  0.93523  0.89259  0.41243  1.0000
  C   C248      1.0  0.93018  0.87104  0.35619  1.0000
  H   H130      1.0  0.92330  0.92902  0.45579  1.0000
  H   H131      1.0  0.95216  0.89381  0.44810  1.0000
  H   H132      1.0  0.85880  0.98869  0.48880  1.0000
  N   N52       1.0  0.88302  0.94548  0.53229  1.0000
  O   O31       1.0  0.89830  0.96230  0.56383  1.0000
  O   O32       1.0  0.86473  0.94216  0.58688  1.0000
  C   C249      1.0  0.98318  0.15374  0.35110  1.0000
  C   C250      1.0  0.97609  0.14231  0.43333  1.0000
  C   C251      1.0  0.95233  0.12877  0.44376  1.0000
  C   C252      1.0  0.93561  0.12545  0.36843  1.0000
  C   C253      1.0  0.91308  0.10860  0.36863  1.0000
  C   C254      1.0  0.91261  0.08496  0.41746  1.0000
  C   C255      1.0  0.89185  0.06736  0.41039  1.0000
  C   C256      1.0  0.87062  0.07237  0.35306  1.0000
  H   H133      1.0  0.92816  0.07923  0.45472  1.0000
  H   H134      1.0  0.89273  0.05048  0.44672  1.0000
  H   H135      1.0  0.98855  0.14350  0.48673  1.0000
  N   N53       1.0  0.94498  0.11977  0.52995  1.0000
  O   O33       1.0  0.96141  0.10441  0.56277  1.0000
  O   O34       1.0  0.94181  0.13837  0.58355  1.0000
  C   C257      1.0  0.01954  0.84901  0.35594  1.0000
  C   C258      1.0  0.02660  0.86047  0.43816  1.0000
  C   C259      1.0  0.05033  0.87406  0.44856  1.0000
  C   C260      1.0  0.06705  0.87742  0.37324  1.0000
  C   C261      1.0  0.08963  0.89423  0.37356  1.0000
  C   C262      1.0  0.09017  0.91783  0.42262  1.0000
  C   C263      1.0  0.11097  0.93538  0.41561  1.0000
  C   C264      1.0  0.13219  0.93034  0.35832  1.0000
  H   H136      1.0  0.07460  0.92362  0.45965  1.0000
  H   H137      1.0  0.11012  0.95228  0.45187  1.0000
  H   H138      1.0  0.01414  0.85927  0.49154  1.0000
  N   N54       1.0  0.05766  0.88310  0.53474  1.0000
  O   O35       1.0  0.04120  0.89844  0.56748  1.0000
  O   O36       1.0  0.06085  0.86452  0.58840  1.0000
  C   C265      1.0  0.36268  0.56084  0.38626  1.0000
  C   C266      1.0  0.34893  0.53707  0.39536  1.0000
  H   H139      1.0  0.34030  0.53251  0.45519  1.0000
  C   C267      1.0  0.40711  0.63099  0.37116  1.0000
  C   C268      1.0  0.38950  0.60975  0.36614  1.0000
  H   H140      1.0  0.40354  0.64584  0.41519  1.0000
  C   C269      1.0  0.36675  0.60813  0.42743  1.0000
  C   C270      1.0  0.36300  0.57983  0.46194  1.0000
  H   H141      1.0  0.34946  0.61408  0.39031  1.0000
  H   H142      1.0  0.36888  0.62116  0.48494  1.0000
  H   H143      1.0  0.34482  0.57895  0.49963  1.0000
  H   H144      1.0  0.37882  0.57476  0.50749  1.0000
  C   C271      1.0  0.63918  0.44132  0.38618  1.0000
  C   C272      1.0  0.65294  0.46513  0.39366  1.0000
  H   H145      1.0  0.66148  0.47007  0.45328  1.0000
  C   C273      1.0  0.59470  0.37109  0.37587  1.0000
  C   C274      1.0  0.61232  0.39230  0.36947  1.0000
  H   H146      1.0  0.59822  0.35652  0.42103  1.0000
  C   C275      1.0  0.63501  0.39430  0.43093  1.0000
  C   C276      1.0  0.63875  0.42282  0.46329  1.0000
  H   H147      1.0  0.65233  0.38809  0.39452  1.0000
  H   H148      1.0  0.63280  0.38165  0.48941  1.0000
  H   H149      1.0  0.65689  0.42392  0.50114  1.0000
  H   H150      1.0  0.62288  0.42820  0.50823  1.0000
  C   C277      1.0  0.56114  0.63936  0.38525  1.0000
  C   C278      1.0  0.53736  0.65287  0.39377  1.0000
  H   H151      1.0  0.53236  0.66093  0.45411  1.0000
  C   C279      1.0  0.63129  0.59555  0.37166  1.0000
  C   C280      1.0  0.61011  0.61308  0.36654  1.0000
  H   H152      1.0  0.64569  0.59880  0.41760  1.0000
  C   C281      1.0  0.60798  0.63531  0.43010  1.0000
  C   C282      1.0  0.57950  0.63848  0.46252  1.0000
  H   H153      1.0  0.61410  0.65305  0.39540  1.0000
  H   H154      1.0  0.62055  0.63278  0.48847  1.0000
  H   H155      1.0  0.57829  0.65633  0.50218  1.0000
  H   H156      1.0  0.57417  0.62213  0.50577  1.0000
  C   C283      1.0  0.44047  0.36221  0.39055  1.0000
  C   C284      1.0  0.46428  0.34876  0.39931  1.0000
  H   H157      1.0  0.46922  0.34066  0.45964  1.0000
  C   C285      1.0  0.37034  0.40606  0.37694  1.0000
  C   C286      1.0  0.39149  0.38851  0.37163  1.0000
  H   H158      1.0  0.35591  0.40277  0.42277  1.0000
  C   C287      1.0  0.39355  0.36615  0.43475  1.0000
  C   C288      1.0  0.42198  0.36292  0.46751  1.0000
  H   H159      1.0  0.38747  0.34848  0.39955  1.0000
  H   H160      1.0  0.38091  0.36857  0.49297  1.0000
  H   H161      1.0  0.42315  0.34497  0.50670  1.0000
  H   H162      1.0  0.42726  0.37917  0.51130  1.0000
