data_image0
_chemical_formula_structural       NCHNCHNCHNCHNCHNCHC2NC2O2HC2NC2O2HC2NC2O2HC2NC2O2HC2NC2O2HC2NC2O2HC2NC2O2HC2NC2O2HC2NC2O2HC2NC2O2HC2NC2O2HC2NC2O2HCNCNCNC18H12CNCNCNC18H12CNCNCNC18H12CNCNCNC18H12CNCNCNC18H12CNCNCNC18H12CNCNCNC18H12CNCNCNC18H12CNCNCNC18H12CNCNCNC18H12CNCNCNC18H12CNCNCNC18H12C2NC2O2HC2NC2O2HC2NC2O2HC2NC2O2HC2NC2O2HC2NC2O2HNCHNCHNCHNCHNCHNCHNCHNCHNCHNCHNCHNCH
_chemical_formula_sum              "N72 C342 H180 O36"
_cell_length_a       74.2434
_cell_length_b       74.2434
_cell_length_c       15.0096
_cell_angle_alpha    90
_cell_angle_beta     90
_cell_angle_gamma    120

_space_group_name_H-M_alt    "P 1"
_space_group_IT_number       1

loop_
  _space_group_symop_operation_xyz
  'x, y, z'

loop_
  _atom_site_type_symbol
  _atom_site_label
  _atom_site_symmetry_multiplicity
  _atom_site_fract_x
  _atom_site_fract_y
  _atom_site_fract_z
  _atom_site_occupancy
  N   N1        1.0  0.20820  0.39859  0.29327  1.0000
  C   C1        1.0  0.19878  0.37763  0.28594  1.0000
  H   H1        1.0  0.20289  0.37138  0.23462  1.0000
  N   N2        1.0  0.58713  0.79609  0.29312  1.0000
  C   C2        1.0  0.60808  0.80763  0.28591  1.0000
  H   H2        1.0  0.61434  0.81800  0.23463  1.0000
  N   N3        1.0  0.18990  0.77769  0.29110  1.0000
  C   C3        1.0  0.17841  0.78716  0.28376  1.0000
  H   H3        1.0  0.16826  0.78328  0.23177  1.0000
  N   N4        1.0  0.78195  0.58293  0.29276  1.0000
  C   C4        1.0  0.79135  0.60388  0.28559  1.0000
  H   H4        1.0  0.78725  0.61014  0.23427  1.0000
  N   N5        1.0  0.40298  0.18550  0.29343  1.0000
  C   C5        1.0  0.38203  0.17396  0.28623  1.0000
  H   H5        1.0  0.37576  0.16360  0.23493  1.0000
  N   N6        1.0  0.80029  0.20390  0.29346  1.0000
  C   C6        1.0  0.81183  0.19448  0.28616  1.0000
  H   H6        1.0  0.82220  0.19861  0.23491  1.0000
  C   C7        1.0  0.18203  0.19917  0.31511  1.0000
  C   C8        1.0  0.20479  0.17838  0.32831  1.0000
  N   N7        1.0  0.19017  0.17370  0.26411  1.0000
  C   C9        1.0  0.17859  0.18312  0.25406  1.0000
  C   C10       1.0  0.16523  0.17747  0.18161  1.0000
  O   O1        1.0  0.15530  0.15909  0.16112  1.0000
  O   O2        1.0  0.16842  0.18963  0.11936  1.0000
  H   H7        1.0  0.17684  0.20328  0.12148  1.0000
  C   C11       1.0  0.78651  0.96924  0.31487  1.0000
  C   C12       1.0  0.80731  0.01279  0.32784  1.0000
  N   N8        1.0  0.81194  0.00282  0.26356  1.0000
  C   C13       1.0  0.80251  0.98183  0.25359  1.0000
  C   C14       1.0  0.80813  0.97408  0.18116  1.0000
  O   O3        1.0  0.82650  0.98254  0.16046  1.0000
  O   O4        1.0  0.79594  0.96507  0.11906  1.0000
  H   H8        1.0  0.78229  0.95983  0.12131  1.0000
  C   C15       1.0  0.01660  0.80381  0.31463  1.0000
  C   C16       1.0  0.97306  0.78107  0.32770  1.0000
  N   N9        1.0  0.98301  0.79568  0.26344  1.0000
  C   C17       1.0  0.00401  0.80725  0.25348  1.0000
  C   C18       1.0  0.01174  0.82060  0.18093  1.0000
  O   O5        1.0  0.00343  0.83071  0.16137  1.0000
  O   O6        1.0  0.02062  0.81728  0.11872  1.0000
  H   H9        1.0  0.02575  0.80877  0.12085  1.0000
  C   C19       1.0  0.80803  0.78225  0.31493  1.0000
  C   C20       1.0  0.78526  0.80303  0.32784  1.0000
  N   N10       1.0  0.79986  0.80766  0.26357  1.0000
  C   C21       1.0  0.81143  0.79824  0.25363  1.0000
  C   C22       1.0  0.82480  0.80386  0.18119  1.0000
  O   O7        1.0  0.83470  0.82223  0.16048  1.0000
  O   O8        1.0  0.82163  0.79166  0.11911  1.0000
  H   H10       1.0  0.81322  0.77802  0.12138  1.0000
  C   C23       1.0  0.20373  0.01223  0.31593  1.0000
  C   C24       1.0  0.18286  0.96869  0.32900  1.0000
  N   N11       1.0  0.17857  0.97867  0.26355  1.0000
  C   C25       1.0  0.18806  0.99966  0.25329  1.0000
  C   C26       1.0  0.18284  0.00739  0.17992  1.0000
  O   O9        1.0  0.16479  0.99806  0.15355  1.0000
  O   O10       1.0  0.19688  0.01800  0.12655  1.0000
  H   H11       1.0  0.19492  0.02256  0.07496  1.0000
  C   C27       1.0  0.97354  0.17774  0.31488  1.0000
  C   C28       1.0  0.01708  0.20048  0.32774  1.0000
  N   N12       1.0  0.00711  0.18590  0.26343  1.0000
  C   C29       1.0  0.98611  0.17433  0.25355  1.0000
  C   C30       1.0  0.97836  0.16101  0.18091  1.0000
  O   O11       1.0  0.98667  0.15091  0.16113  1.0000
  O   O12       1.0  0.96946  0.16435  0.11884  1.0000
  H   H12       1.0  0.96433  0.17285  0.12114  1.0000
  C   C31       1.0  0.21146  0.61764  0.30828  1.0000
  C   C32       1.0  0.21234  0.58102  0.33949  1.0000
  N   N13       1.0  0.21081  0.58709  0.25579  1.0000
  C   C33       1.0  0.20959  0.60437  0.23625  1.0000
  C   C34       1.0  0.20873  0.60925  0.14740  1.0000
  O   O13       1.0  0.21608  0.60309  0.09011  1.0000
  O   O14       1.0  0.19594  0.61395  0.11958  1.0000
  H   H13       1.0  0.18789  0.61677  0.15346  1.0000
  C   C35       1.0  0.36797  0.58033  0.30865  1.0000
  C   C36       1.0  0.40452  0.61781  0.34054  1.0000
  N   N14       1.0  0.39860  0.61025  0.25670  1.0000
  C   C37       1.0  0.38134  0.59175  0.23688  1.0000
  C   C38       1.0  0.37664  0.58604  0.14789  1.0000
  O   O15       1.0  0.38252  0.59959  0.09092  1.0000
  O   O16       1.0  0.37191  0.56854  0.12014  1.0000
  H   H14       1.0  0.36923  0.55772  0.15404  1.0000
  C   C39       1.0  0.40553  0.77427  0.30866  1.0000
  C   C40       1.0  0.36797  0.77326  0.34069  1.0000
  N   N15       1.0  0.37554  0.77486  0.25686  1.0000
  C   C41       1.0  0.39404  0.77613  0.23696  1.0000
  C   C42       1.0  0.39970  0.77701  0.14798  1.0000
  O   O17       1.0  0.38615  0.76967  0.09090  1.0000
  O   O18       1.0  0.41717  0.78980  0.11992  1.0000
  H   H15       1.0  0.42807  0.79784  0.15366  1.0000
  C   C43       1.0  0.77852  0.36372  0.30875  1.0000
  C   C44       1.0  0.77757  0.40027  0.34140  1.0000
  N   N16       1.0  0.77919  0.39440  0.25743  1.0000
  C   C45       1.0  0.78041  0.37714  0.23728  1.0000
  C   C46       1.0  0.78138  0.37247  0.14824  1.0000
  O   O19       1.0  0.77404  0.37870  0.09122  1.0000
  O   O20       1.0  0.79425  0.36789  0.12020  1.0000
  H   H16       1.0  0.80230  0.36505  0.15395  1.0000
  C   C47       1.0  0.62222  0.40120  0.30858  1.0000
  C   C48       1.0  0.58549  0.36375  0.34021  1.0000
  N   N17       1.0  0.59160  0.37128  0.25642  1.0000
  C   C49       1.0  0.60891  0.38974  0.23669  1.0000
  C   C50       1.0  0.61376  0.39537  0.14770  1.0000
  O   O21       1.0  0.60791  0.38176  0.09100  1.0000
  O   O22       1.0  0.61859  0.41286  0.11947  1.0000
  H   H17       1.0  0.62125  0.42372  0.15306  1.0000
  C   C51       1.0  0.58449  0.20710  0.30838  1.0000
  C   C52       1.0  0.62201  0.20802  0.33899  1.0000
  N   N18       1.0  0.61435  0.20644  0.25539  1.0000
  C   C53       1.0  0.59583  0.20520  0.23617  1.0000
  C   C54       1.0  0.59001  0.20430  0.14741  1.0000
  O   O23       1.0  0.60346  0.21162  0.08990  1.0000
  O   O24       1.0  0.57248  0.19150  0.11988  1.0000
  H   H18       1.0  0.56165  0.18346  0.15393  1.0000
  C   C55       1.0  0.13802  0.24398  0.32763  1.0000
  N   N19       1.0  0.14826  0.26510  0.33204  1.0000
  C   C56       1.0  0.13829  0.27622  0.33776  1.0000
  N   N20       1.0  0.11715  0.26536  0.33892  1.0000
  C   C57       1.0  0.10601  0.24425  0.33423  1.0000
  N   N21       1.0  0.11688  0.23403  0.32854  1.0000
  C   C58       1.0  0.14953  0.29835  0.34108  1.0000
  C   C59       1.0  0.17084  0.30976  0.31756  1.0000
  C   C60       1.0  0.18186  0.33162  0.31894  1.0000
  C   C61       1.0  0.17208  0.34296  0.34511  1.0000
  C   C62       1.0  0.15089  0.33159  0.37025  1.0000
  C   C63       1.0  0.13978  0.30973  0.36736  1.0000
  C   C64       1.0  0.14898  0.23279  0.32302  1.0000
  C   C65       1.0  0.17098  0.24318  0.32798  1.0000
  C   C66       1.0  0.18178  0.23211  0.32523  1.0000
  C   C67       1.0  0.17099  0.21024  0.31599  1.0000
  C   C68       1.0  0.14905  0.19976  0.31153  1.0000
  C   C69       1.0  0.13826  0.21083  0.31487  1.0000
  C   C70       1.0  0.08385  0.23333  0.33403  1.0000
  C   C71       1.0  0.07234  0.21218  0.30814  1.0000
  C   C72       1.0  0.05047  0.20152  0.30589  1.0000
  C   C73       1.0  0.03921  0.21144  0.33116  1.0000
  C   C74       1.0  0.05068  0.23253  0.35770  1.0000
  C   C75       1.0  0.07256  0.24329  0.35852  1.0000
  H   H19       1.0  0.19768  0.24024  0.32896  1.0000
  H   H20       1.0  0.17951  0.25900  0.33451  1.0000
  H   H21       1.0  0.14063  0.18387  0.30784  1.0000
  H   H22       1.0  0.12237  0.20252  0.31187  1.0000
  H   H23       1.0  0.07973  0.20430  0.28906  1.0000
  H   H24       1.0  0.04284  0.18624  0.28663  1.0000
  H   H25       1.0  0.08013  0.25856  0.37773  1.0000
  H   H26       1.0  0.04326  0.24053  0.37441  1.0000
  H   H27       1.0  0.12445  0.30222  0.38565  1.0000
  H   H28       1.0  0.14315  0.33914  0.38920  1.0000
  H   H29       1.0  0.19729  0.33915  0.30223  1.0000
  H   H30       1.0  0.17861  0.30229  0.29786  1.0000
  C   C76       1.0  0.74172  0.88042  0.32773  1.0000
  N   N22       1.0  0.72061  0.86954  0.33210  1.0000
  C   C77       1.0  0.70949  0.84845  0.33780  1.0000
  N   N23       1.0  0.72035  0.83818  0.33898  1.0000
  C   C78       1.0  0.74146  0.84814  0.33433  1.0000
  N   N24       1.0  0.75168  0.86925  0.32867  1.0000
  C   C79       1.0  0.68736  0.83757  0.34104  1.0000
  C   C80       1.0  0.67596  0.84750  0.31770  1.0000
  C   C81       1.0  0.65409  0.83666  0.31900  1.0000
  C   C82       1.0  0.64274  0.81552  0.34491  1.0000
  C   C83       1.0  0.65410  0.80568  0.36992  1.0000
  C   C84       1.0  0.67597  0.81643  0.36709  1.0000
  C   C85       1.0  0.75291  0.90258  0.32310  1.0000
  C   C86       1.0  0.74252  0.91419  0.32811  1.0000
  C   C87       1.0  0.75358  0.93605  0.32525  1.0000
  C   C88       1.0  0.77545  0.94713  0.31591  1.0000
  C   C89       1.0  0.78593  0.93567  0.31141  1.0000
  C   C90       1.0  0.77487  0.91382  0.31482  1.0000
  C   C91       1.0  0.75239  0.83692  0.33419  1.0000
  C   C92       1.0  0.77355  0.84657  0.30838  1.0000
  C   C93       1.0  0.78421  0.83538  0.30612  1.0000
  C   C94       1.0  0.77429  0.81418  0.33130  1.0000
  C   C95       1.0  0.75320  0.80455  0.35783  1.0000
  C   C96       1.0  0.74243  0.81566  0.35860  1.0000
  H   H31       1.0  0.74545  0.94382  0.32901  1.0000
  H   H32       1.0  0.72670  0.90689  0.33470  1.0000
  H   H33       1.0  0.80182  0.94315  0.30762  1.0000
  H   H34       1.0  0.78318  0.90624  0.31179  1.0000
  H   H35       1.0  0.78143  0.86185  0.28931  1.0000
  H   H36       1.0  0.79949  0.84303  0.28687  1.0000
  H   H37       1.0  0.72715  0.80795  0.37775  1.0000
  H   H38       1.0  0.74520  0.78913  0.37441  1.0000
  H   H39       1.0  0.68346  0.80858  0.38523  1.0000
  H   H40       1.0  0.64654  0.79037  0.38867  1.0000
  H   H41       1.0  0.64658  0.84457  0.30241  1.0000
  H   H42       1.0  0.68344  0.86275  0.29814  1.0000
  C   C97       1.0  0.10542  0.84779  0.32744  1.0000
  N   N25       1.0  0.11629  0.83754  0.33160  1.0000
  C   C98       1.0  0.13738  0.84750  0.33751  1.0000
  N   N26       1.0  0.14766  0.86864  0.33913  1.0000
  C   C99       1.0  0.13770  0.87979  0.33468  1.0000
  N   N27       1.0  0.11660  0.86892  0.32877  1.0000
  C   C100      1.0  0.14824  0.83624  0.34049  1.0000
  C   C101      1.0  0.13839  0.81502  0.31563  1.0000
  C   C102      1.0  0.14923  0.80398  0.31671  1.0000
  C   C103      1.0  0.17027  0.81366  0.34393  1.0000
  C   C104      1.0  0.18003  0.83476  0.37039  1.0000
  C   C105      1.0  0.16930  0.84589  0.36776  1.0000
  C   C106      1.0  0.08327  0.83683  0.32268  1.0000
  C   C107      1.0  0.07164  0.81483  0.32763  1.0000
  C   C108      1.0  0.04978  0.80404  0.32483  1.0000
  C   C109      1.0  0.03871  0.81484  0.31552  1.0000
  C   C110      1.0  0.05018  0.83678  0.31104  1.0000
  C   C111      1.0  0.07204  0.84756  0.31445  1.0000
  C   C112      1.0  0.14892  0.90193  0.33483  1.0000
  C   C113      1.0  0.13938  0.91346  0.30778  1.0000
  C   C114      1.0  0.15059  0.93532  0.30570  1.0000
  C   C115      1.0  0.17168  0.94657  0.33239  1.0000
  C   C116      1.0  0.18120  0.93509  0.36019  1.0000
  C   C117      1.0  0.17008  0.91321  0.36076  1.0000
  H   H43       1.0  0.04200  0.78814  0.32858  1.0000
  H   H44       1.0  0.07893  0.80630  0.33425  1.0000
  H   H45       1.0  0.04272  0.84520  0.30729  1.0000
  H   H46       1.0  0.07963  0.86345  0.31145  1.0000
  H   H47       1.0  0.12418  0.90607  0.28758  1.0000
  H   H48       1.0  0.14302  0.94296  0.28548  1.0000
  H   H49       1.0  0.17770  0.90563  0.38089  1.0000
  H   H50       1.0  0.19656  0.94252  0.37798  1.0000
  H   H51       1.0  0.17708  0.86116  0.38705  1.0000
  H   H52       1.0  0.19528  0.84242  0.39016  1.0000
  H   H53       1.0  0.14137  0.78862  0.29901  1.0000
  H   H54       1.0  0.12321  0.80733  0.29515  1.0000
  C   C118      1.0  0.85211  0.73751  0.32778  1.0000
  N   N28       1.0  0.84188  0.71639  0.33212  1.0000
  C   C119      1.0  0.85186  0.70528  0.33778  1.0000
  N   N29       1.0  0.87300  0.71615  0.33894  1.0000
  C   C120      1.0  0.88413  0.73726  0.33433  1.0000
  N   N30       1.0  0.87325  0.74748  0.32870  1.0000
  C   C121      1.0  0.84062  0.68315  0.34100  1.0000
  C   C122      1.0  0.81930  0.67175  0.31756  1.0000
  C   C123      1.0  0.80829  0.64988  0.31881  1.0000
  C   C124      1.0  0.81808  0.63854  0.34478  1.0000
  C   C125      1.0  0.83927  0.64990  0.36988  1.0000
  C   C126      1.0  0.85038  0.67177  0.36709  1.0000
  C   C127      1.0  0.84113  0.74869  0.32318  1.0000
  C   C128      1.0  0.81913  0.73828  0.32820  1.0000
  C   C129      1.0  0.80832  0.74933  0.32534  1.0000
  C   C130      1.0  0.81909  0.77120  0.31599  1.0000
  C   C131      1.0  0.84103  0.78169  0.31150  1.0000
  C   C132      1.0  0.85184  0.77064  0.31491  1.0000
  C   C133      1.0  0.90628  0.74819  0.33415  1.0000
  C   C134      1.0  0.91779  0.76936  0.30840  1.0000
  C   C135      1.0  0.93965  0.78002  0.30608  1.0000
  C   C136      1.0  0.95093  0.77010  0.33118  1.0000
  C   C137      1.0  0.93947  0.74901  0.35767  1.0000
  C   C138      1.0  0.91759  0.73823  0.35849  1.0000
  H   H55       1.0  0.79241  0.74119  0.32911  1.0000
  H   H56       1.0  0.81062  0.72246  0.33479  1.0000
  H   H57       1.0  0.84943  0.79758  0.30770  1.0000
  H   H58       1.0  0.86773  0.77896  0.31187  1.0000
  H   H59       1.0  0.91039  0.77723  0.28935  1.0000
  H   H60       1.0  0.94727  0.79530  0.28685  1.0000
  H   H61       1.0  0.91003  0.72296  0.37759  1.0000
  H   H62       1.0  0.94690  0.74101  0.37419  1.0000
  H   H63       1.0  0.86571  0.67927  0.38531  1.0000
  H   H64       1.0  0.84701  0.64234  0.38867  1.0000
  H   H65       1.0  0.79286  0.64236  0.30213  1.0000
  H   H66       1.0  0.81153  0.67922  0.29796  1.0000
  C   C139      1.0  0.24841  0.10104  0.32907  1.0000
  N   N31       1.0  0.26953  0.11194  0.33335  1.0000
  C   C140      1.0  0.28063  0.13303  0.33885  1.0000
  N   N32       1.0  0.26975  0.14329  0.33992  1.0000
  C   C141      1.0  0.24864  0.13330  0.33535  1.0000
  N   N33       1.0  0.23843  0.11220  0.32986  1.0000
  C   C142      1.0  0.30276  0.14393  0.34194  1.0000
  C   C143      1.0  0.31416  0.13403  0.31842  1.0000
  C   C144      1.0  0.33603  0.14489  0.31958  1.0000
  C   C145      1.0  0.34737  0.16603  0.34549  1.0000
  C   C146      1.0  0.33601  0.17585  0.37063  1.0000
  C   C147      1.0  0.31414  0.16508  0.36796  1.0000
  C   C148      1.0  0.23725  0.07888  0.32453  1.0000
  C   C149      1.0  0.24764  0.06729  0.33082  1.0000
  C   C150      1.0  0.23661  0.04543  0.32792  1.0000
  C   C151      1.0  0.21478  0.03433  0.31715  1.0000
  C   C152      1.0  0.20429  0.04577  0.31147  1.0000
  C   C153      1.0  0.21532  0.06763  0.31499  1.0000
  C   C154      1.0  0.23769  0.14451  0.33504  1.0000
  C   C155      1.0  0.21653  0.13484  0.30933  1.0000
  C   C156      1.0  0.20585  0.14602  0.30693  1.0000
  C   C157      1.0  0.21577  0.16723  0.33188  1.0000
  C   C158      1.0  0.23687  0.17689  0.35824  1.0000
  C   C159      1.0  0.24765  0.16579  0.35920  1.0000
  H   H67       1.0  0.24474  0.03767  0.33260  1.0000
  H   H68       1.0  0.26344  0.07460  0.33844  1.0000
  H   H69       1.0  0.18842  0.03828  0.30654  1.0000
  H   H70       1.0  0.20702  0.07520  0.31093  1.0000
  H   H71       1.0  0.20865  0.11955  0.29047  1.0000
  H   H72       1.0  0.19057  0.13835  0.28780  1.0000
  H   H73       1.0  0.26293  0.17352  0.37827  1.0000
  H   H74       1.0  0.24486  0.19232  0.37471  1.0000
  H   H75       1.0  0.30664  0.17291  0.38623  1.0000
  H   H76       1.0  0.34356  0.19115  0.38942  1.0000
  H   H77       1.0  0.34355  0.13698  0.30289  1.0000
  H   H78       1.0  0.30669  0.11878  0.29890  1.0000
  C   C160      1.0  0.88471  0.13373  0.32778  1.0000
  N   N34       1.0  0.87383  0.14396  0.33222  1.0000
  C   C161      1.0  0.85274  0.13399  0.33796  1.0000
  N   N35       1.0  0.84247  0.11285  0.33910  1.0000
  C   C162      1.0  0.85244  0.10171  0.33439  1.0000
  N   N36       1.0  0.87354  0.11259  0.32868  1.0000
  C   C163      1.0  0.84185  0.14523  0.34129  1.0000
  C   C164      1.0  0.85176  0.16654  0.31789  1.0000
  C   C165      1.0  0.84090  0.17756  0.31924  1.0000
  C   C166      1.0  0.81977  0.16776  0.34527  1.0000
  C   C167      1.0  0.80995  0.14657  0.37034  1.0000
  C   C168      1.0  0.82071  0.13546  0.36745  1.0000
  C   C169      1.0  0.90687  0.14469  0.32311  1.0000
  C   C170      1.0  0.91848  0.16669  0.32829  1.0000
  C   C171      1.0  0.94035  0.17749  0.32542  1.0000
  C   C172      1.0  0.95143  0.16671  0.31588  1.0000
  C   C173      1.0  0.93996  0.14476  0.31123  1.0000
  C   C174      1.0  0.91810  0.13398  0.31465  1.0000
  C   C175      1.0  0.84122  0.07956  0.33421  1.0000
  C   C176      1.0  0.85086  0.06805  0.30838  1.0000
  C   C177      1.0  0.83966  0.04618  0.30611  1.0000
  C   C178      1.0  0.81847  0.03492  0.33130  1.0000
  C   C179      1.0  0.80885  0.04638  0.35784  1.0000
  C   C180      1.0  0.81995  0.06826  0.35863  1.0000
  H   H79       1.0  0.94812  0.19339  0.32932  1.0000
  H   H80       1.0  0.91119  0.17521  0.33503  1.0000
  H   H81       1.0  0.94743  0.13635  0.30730  1.0000
  H   H82       1.0  0.91052  0.11808  0.31149  1.0000
  H   H83       1.0  0.86614  0.07545  0.28932  1.0000
  H   H84       1.0  0.84732  0.03856  0.28685  1.0000
  H   H85       1.0  0.81224  0.07582  0.37777  1.0000
  H   H86       1.0  0.79342  0.03895  0.37441  1.0000
  H   H87       1.0  0.81288  0.12012  0.38565  1.0000
  H   H88       1.0  0.79465  0.13882  0.38916  1.0000
  H   H89       1.0  0.84881  0.19298  0.30259  1.0000
  H   H90       1.0  0.86700  0.17432  0.29825  1.0000
  C   C181      1.0  0.24888  0.52975  0.33705  1.0000
  N   N37       1.0  0.23850  0.50866  0.34246  1.0000
  C   C182      1.0  0.24842  0.49741  0.33763  1.0000
  N   N38       1.0  0.26946  0.50808  0.32644  1.0000
  C   C183      1.0  0.28045  0.52912  0.31900  1.0000
  N   N39       1.0  0.26978  0.53949  0.32503  1.0000
  C   C184      1.0  0.23722  0.47527  0.34391  1.0000
  C   C185      1.0  0.21534  0.46410  0.35544  1.0000
  C   C186      1.0  0.20428  0.44226  0.36068  1.0000
  C   C187      1.0  0.21470  0.43075  0.35500  1.0000
  C   C188      1.0  0.23648  0.44177  0.34260  1.0000
  C   C189      1.0  0.24754  0.46360  0.33775  1.0000
  C   C190      1.0  0.23876  0.54165  0.34401  1.0000
  C   C191      1.0  0.21776  0.53359  0.31810  1.0000
  C   C192      1.0  0.20861  0.54629  0.31824  1.0000
  C   C193      1.0  0.21990  0.56704  0.34879  1.0000
  C   C194      1.0  0.24066  0.57492  0.37711  1.0000
  C   C195      1.0  0.24995  0.56249  0.37421  1.0000
  C   C196      1.0  0.30234  0.54038  0.30740  1.0000
  C   C197      1.0  0.31185  0.55966  0.26202  1.0000
  C   C198      1.0  0.33358  0.57203  0.25730  1.0000
  C   C199      1.0  0.34655  0.56562  0.29856  1.0000
  C   C200      1.0  0.33717  0.54628  0.34323  1.0000
  C   C201      1.0  0.31534  0.53358  0.34571  1.0000
  H   H91       1.0  0.19375  0.54037  0.29495  1.0000
  H   H92       1.0  0.20930  0.51876  0.29393  1.0000
  H   H93       1.0  0.24958  0.59015  0.39621  1.0000
  H   H94       1.0  0.26516  0.56901  0.39366  1.0000
  H   H95       1.0  0.30305  0.56524  0.23382  1.0000
  H   H96       1.0  0.33978  0.58641  0.22827  1.0000
  H   H97       1.0  0.30906  0.52002  0.38132  1.0000
  H   H98       1.0  0.34616  0.54160  0.37655  1.0000
  H   H99       1.0  0.26330  0.47084  0.32906  1.0000
  H   H100      1.0  0.24458  0.43397  0.33792  1.0000
  H   H101      1.0  0.18844  0.43483  0.36660  1.0000
  H   H102      1.0  0.20707  0.47171  0.35934  1.0000
  C   C202      1.0  0.45596  0.70556  0.33782  1.0000
  N   N40       1.0  0.47705  0.71628  0.34272  1.0000
  C   C203      1.0  0.48829  0.73744  0.33756  1.0000
  N   N41       1.0  0.47760  0.74779  0.32651  1.0000
  C   C204      1.0  0.45655  0.73774  0.31959  1.0000
  N   N42       1.0  0.44619  0.71670  0.32597  1.0000
  C   C205      1.0  0.51043  0.74837  0.34353  1.0000
  C   C206      1.0  0.52161  0.73766  0.35468  1.0000
  C   C207      1.0  0.54345  0.74844  0.35985  1.0000
  C   C208      1.0  0.55495  0.77038  0.35455  1.0000
  C   C209      1.0  0.54393  0.78115  0.34244  1.0000
  C   C210      1.0  0.52210  0.77036  0.33763  1.0000
  C   C211      1.0  0.44409  0.68357  0.34515  1.0000
  C   C212      1.0  0.45195  0.67060  0.31710  1.0000
  C   C213      1.0  0.43921  0.64876  0.31744  1.0000
  C   C214      1.0  0.41864  0.63932  0.35016  1.0000
  C   C215      1.0  0.41097  0.65223  0.38059  1.0000
  C   C216      1.0  0.42344  0.67396  0.37758  1.0000
  C   C217      1.0  0.44529  0.74837  0.30801  1.0000
  C   C218      1.0  0.42591  0.73852  0.26331  1.0000
  C   C219      1.0  0.41357  0.74790  0.25853  1.0000
  C   C220      1.0  0.42011  0.76740  0.29898  1.0000
  C   C221      1.0  0.43955  0.77744  0.34290  1.0000
  C   C222      1.0  0.45221  0.76827  0.34549  1.0000
  H   H103      1.0  0.44496  0.63980  0.29258  1.0000
  H   H104      1.0  0.46665  0.67695  0.29143  1.0000
  H   H105      1.0  0.39585  0.64597  0.40118  1.0000
  H   H106      1.0  0.41706  0.68268  0.39845  1.0000
  H   H107      1.0  0.42025  0.72407  0.23565  1.0000
  H   H108      1.0  0.39915  0.73972  0.22985  1.0000
  H   H109      1.0  0.46583  0.77560  0.38062  1.0000
  H   H110      1.0  0.44432  0.79120  0.37563  1.0000
  H   H111      1.0  0.51486  0.77890  0.32926  1.0000
  H   H112      1.0  0.55172  0.79704  0.33805  1.0000
  H   H113      1.0  0.55089  0.74003  0.36553  1.0000
  H   H114      1.0  0.51401  0.72178  0.35834  1.0000
  C   C223      1.0  0.28021  0.73684  0.33760  1.0000
  N   N43       1.0  0.26947  0.74721  0.34211  1.0000
  C   C224      1.0  0.24831  0.73726  0.33678  1.0000
  N   N44       1.0  0.23798  0.71621  0.32596  1.0000
  C   C225      1.0  0.24806  0.70523  0.31944  1.0000
  N   N45       1.0  0.26910  0.71593  0.32597  1.0000
  C   C226      1.0  0.23736  0.74845  0.34247  1.0000
  C   C227      1.0  0.24803  0.77031  0.35464  1.0000
  C   C228      1.0  0.23723  0.78135  0.35982  1.0000
  C   C229      1.0  0.21531  0.77092  0.35344  1.0000
  C   C230      1.0  0.20458  0.74917  0.34016  1.0000
  C   C231      1.0  0.21538  0.73814  0.33539  1.0000
  C   C232      1.0  0.30220  0.74700  0.34504  1.0000
  C   C233      1.0  0.31515  0.76777  0.31635  1.0000
  C   C234      1.0  0.33699  0.77688  0.31662  1.0000
  C   C235      1.0  0.34644  0.76581  0.35003  1.0000
  C   C236      1.0  0.33355  0.74531  0.38138  1.0000
  C   C237      1.0  0.31182  0.73603  0.37829  1.0000
  C   C238      1.0  0.23745  0.68333  0.30801  1.0000
  C   C239      1.0  0.24736  0.67379  0.26387  1.0000
  C   C240      1.0  0.23794  0.65206  0.25894  1.0000
  C   C241      1.0  0.21837  0.63911  0.29879  1.0000
  C   C242      1.0  0.20830  0.64851  0.34234  1.0000
  C   C243      1.0  0.21748  0.67035  0.34493  1.0000
  H   H115      1.0  0.34593  0.79153  0.29117  1.0000
  H   H116      1.0  0.30879  0.77604  0.28990  1.0000
  H   H117      1.0  0.33982  0.73651  0.40260  1.0000
  H   H118      1.0  0.30310  0.72098  0.39976  1.0000
  H   H119      1.0  0.26184  0.68257  0.23659  1.0000
  H   H120      1.0  0.24616  0.64583  0.23067  1.0000
  H   H121      1.0  0.21010  0.67665  0.37968  1.0000
  H   H122      1.0  0.19447  0.63953  0.37459  1.0000
  H   H123      1.0  0.20688  0.72239  0.32618  1.0000
  H   H124      1.0  0.18870  0.74108  0.33493  1.0000
  H   H125      1.0  0.24561  0.79718  0.36647  1.0000
  H   H126      1.0  0.26390  0.77858  0.35928  1.0000
  C   C244      1.0  0.74133  0.45176  0.33849  1.0000
  N   N46       1.0  0.75171  0.47286  0.34310  1.0000
  C   C245      1.0  0.74177  0.48409  0.33770  1.0000
  N   N47       1.0  0.72073  0.47337  0.32666  1.0000
  C   C246      1.0  0.70975  0.45232  0.32000  1.0000
  N   N48       1.0  0.72043  0.44196  0.32664  1.0000
  C   C247      1.0  0.75297  0.50623  0.34347  1.0000
  C   C248      1.0  0.77485  0.51742  0.35475  1.0000
  C   C249      1.0  0.78591  0.53925  0.35982  1.0000
  C   C250      1.0  0.77547  0.55075  0.35428  1.0000
  C   C251      1.0  0.75368  0.53972  0.34200  1.0000
  C   C252      1.0  0.74264  0.51788  0.33729  1.0000
  C   C253      1.0  0.75148  0.43992  0.34604  1.0000
  C   C254      1.0  0.77218  0.44766  0.31658  1.0000
  C   C255      1.0  0.78126  0.43489  0.31694  1.0000
  C   C256      1.0  0.77024  0.41444  0.35109  1.0000
  C   C257      1.0  0.74980  0.40693  0.38305  1.0000
  C   C258      1.0  0.74055  0.41940  0.37999  1.0000
  C   C259      1.0  0.68786  0.44104  0.30830  1.0000
  C   C260      1.0  0.67837  0.42169  0.26341  1.0000
  C   C261      1.0  0.65664  0.40933  0.25847  1.0000
  C   C262      1.0  0.64366  0.41584  0.29892  1.0000
  C   C263      1.0  0.65302  0.43524  0.34307  1.0000
  C   C264      1.0  0.67484  0.44792  0.34581  1.0000
  H   H127      1.0  0.79585  0.44053  0.29098  1.0000
  H   H128      1.0  0.78043  0.46225  0.28978  1.0000
  H   H129      1.0  0.74100  0.39189  0.40470  1.0000
  H   H130      1.0  0.72553  0.41313  0.40188  1.0000
  H   H131      1.0  0.68718  0.41606  0.23574  1.0000
  H   H132      1.0  0.65044  0.39493  0.22970  1.0000
  H   H133      1.0  0.68112  0.46153  0.38108  1.0000
  H   H134      1.0  0.64401  0.43998  0.37586  1.0000
  H   H135      1.0  0.72687  0.51063  0.32881  1.0000
  H   H136      1.0  0.74558  0.54751  0.33743  1.0000
  H   H137      1.0  0.80175  0.54670  0.36563  1.0000
  H   H138      1.0  0.78314  0.50982  0.35862  1.0000
  C   C265      1.0  0.53417  0.27597  0.33796  1.0000
  N   N49       1.0  0.51308  0.26526  0.34299  1.0000
  C   C266      1.0  0.50183  0.24409  0.33806  1.0000
  N   N50       1.0  0.51251  0.23372  0.32713  1.0000
  C   C267      1.0  0.53356  0.24377  0.32011  1.0000
  N   N51       1.0  0.54393  0.26481  0.32622  1.0000
  C   C268      1.0  0.47969  0.23317  0.34405  1.0000
  C   C269      1.0  0.46852  0.24388  0.35530  1.0000
  C   C270      1.0  0.44668  0.23311  0.36044  1.0000
  C   C271      1.0  0.43516  0.21118  0.35493  1.0000
  C   C272      1.0  0.44618  0.20040  0.34273  1.0000
  C   C273      1.0  0.46801  0.21118  0.33797  1.0000
  C   C274      1.0  0.54606  0.29798  0.34496  1.0000
  C   C275      1.0  0.53807  0.31093  0.31818  1.0000
  C   C276      1.0  0.55079  0.33277  0.31826  1.0000
  C   C277      1.0  0.57148  0.34222  0.34952  1.0000
  C   C278      1.0  0.57929  0.32935  0.37883  1.0000
  C   C279      1.0  0.56683  0.30762  0.37599  1.0000
  C   C280      1.0  0.54482  0.23313  0.30858  1.0000
  C   C281      1.0  0.56421  0.24298  0.26399  1.0000
  C   C282      1.0  0.57651  0.23356  0.25895  1.0000
  C   C283      1.0  0.56993  0.21402  0.29910  1.0000
  C   C284      1.0  0.55050  0.20400  0.34310  1.0000
  C   C285      1.0  0.53787  0.21321  0.34589  1.0000
  H   H139      1.0  0.54494  0.34171  0.29431  1.0000
  H   H140      1.0  0.52330  0.30456  0.29341  1.0000
  H   H141      1.0  0.59447  0.33564  0.39853  1.0000
  H   H142      1.0  0.57330  0.29893  0.39608  1.0000
  H   H143      1.0  0.56989  0.25744  0.23644  1.0000
  H   H144      1.0  0.59093  0.24174  0.23035  1.0000
  H   H145      1.0  0.52422  0.20586  0.38086  1.0000
  H   H146      1.0  0.54569  0.19021  0.37555  1.0000
  H   H147      1.0  0.47525  0.20264  0.32949  1.0000
  H   H148      1.0  0.43838  0.18451  0.33820  1.0000
  H   H149      1.0  0.43925  0.24153  0.36623  1.0000
  H   H150      1.0  0.47613  0.25976  0.35913  1.0000
  C   C286      1.0  0.70983  0.24463  0.33649  1.0000
  N   N52       1.0  0.72054  0.23424  0.34208  1.0000
  C   C287      1.0  0.74171  0.24414  0.33743  1.0000
  N   N53       1.0  0.75209  0.26518  0.32627  1.0000
  C   C288      1.0  0.74206  0.27619  0.31868  1.0000
  N   N54       1.0  0.72102  0.26553  0.32450  1.0000
  C   C289      1.0  0.75263  0.23293  0.34384  1.0000
  C   C290      1.0  0.74191  0.21105  0.35526  1.0000
  C   C291      1.0  0.75267  0.19998  0.36055  1.0000
  C   C292      1.0  0.77461  0.21039  0.35509  1.0000
  C   C293      1.0  0.78539  0.23218  0.34281  1.0000
  C   C294      1.0  0.77462  0.24324  0.33790  1.0000
  C   C295      1.0  0.68781  0.23452  0.34326  1.0000
  C   C296      1.0  0.67488  0.21346  0.31824  1.0000
  C   C297      1.0  0.65302  0.20427  0.31852  1.0000
  C   C298      1.0  0.64357  0.21563  0.34810  1.0000
  C   C299      1.0  0.65641  0.23647  0.37531  1.0000
  C   C300      1.0  0.67814  0.24577  0.37244  1.0000
  C   C301      1.0  0.75272  0.29808  0.30718  1.0000
  C   C302      1.0  0.74296  0.30763  0.26193  1.0000
  C   C303      1.0  0.75233  0.32936  0.25742  1.0000
  C   C304      1.0  0.77173  0.34229  0.29866  1.0000
  C   C305      1.0  0.78170  0.33288  0.34308  1.0000
  C   C306      1.0  0.77253  0.31105  0.34551  1.0000
  H   H151      1.0  0.64409  0.18933  0.29610  1.0000
  H   H152      1.0  0.68125  0.20492  0.29506  1.0000
  H   H153      1.0  0.65010  0.24543  0.39370  1.0000
  H   H154      1.0  0.68681  0.26103  0.39116  1.0000
  H   H155      1.0  0.72857  0.29885  0.23374  1.0000
  H   H156      1.0  0.74418  0.33559  0.22840  1.0000
  H   H157      1.0  0.77979  0.30473  0.38095  1.0000
  H   H158      1.0  0.79537  0.34185  0.37640  1.0000
  H   H159      1.0  0.78316  0.25900  0.32930  1.0000
  H   H160      1.0  0.80128  0.24027  0.33829  1.0000
  H   H161      1.0  0.74425  0.18413  0.36635  1.0000
  H   H162      1.0  0.72603  0.20278  0.35896  1.0000
  C   C307      1.0  0.20366  0.40865  0.35743  1.0000
  C   C308      1.0  0.18307  0.36508  0.34738  1.0000
  N   N55       1.0  0.17862  0.37519  0.41162  1.0000
  C   C309      1.0  0.18796  0.39622  0.42014  1.0000
  C   C310      1.0  0.18264  0.40416  0.49288  1.0000
  O   O25       1.0  0.16431  0.39586  0.51399  1.0000
  O   O26       1.0  0.19512  0.41327  0.55398  1.0000
  H   H163      1.0  0.20875  0.41844  0.55071  1.0000
  C   C311      1.0  0.57706  0.78143  0.35709  1.0000
  C   C312      1.0  0.62062  0.80441  0.34715  1.0000
  N   N56       1.0  0.61050  0.78980  0.41121  1.0000
  C   C313      1.0  0.58947  0.77812  0.41972  1.0000
  C   C314      1.0  0.58151  0.76478  0.49212  1.0000
  O   O27       1.0  0.58995  0.75492  0.51401  1.0000
  O   O28       1.0  0.57228  0.76795  0.55330  1.0000
  H   H164      1.0  0.56700  0.77632  0.55016  1.0000
  C   C315      1.0  0.20425  0.78196  0.35616  1.0000
  C   C316      1.0  0.18137  0.80263  0.34609  1.0000
  N   N57       1.0  0.19566  0.80680  0.41122  1.0000
  C   C317      1.0  0.20729  0.79739  0.42002  1.0000
  C   C318      1.0  0.22024  0.80240  0.49323  1.0000
  O   O29       1.0  0.22894  0.82037  0.52059  1.0000
  O   O30       1.0  0.21683  0.78820  0.54568  1.0000
  H   H165      1.0  0.22337  0.79002  0.59715  1.0000
  C   C319      1.0  0.78651  0.57285  0.35679  1.0000
  C   C320      1.0  0.80708  0.61642  0.34696  1.0000
  N   N58       1.0  0.81155  0.60630  0.41108  1.0000
  C   C321      1.0  0.80221  0.58527  0.41950  1.0000
  C   C322      1.0  0.80755  0.57731  0.49213  1.0000
  O   O31       1.0  0.82589  0.58561  0.51315  1.0000
  O   O32       1.0  0.79509  0.56818  0.55325  1.0000
  H   H166      1.0  0.78146  0.56301  0.55004  1.0000
  C   C323      1.0  0.41306  0.20013  0.35748  1.0000
  C   C324      1.0  0.36950  0.17716  0.34763  1.0000
  N   N59       1.0  0.37962  0.19174  0.41177  1.0000
  C   C325      1.0  0.40065  0.20341  0.42023  1.0000
  C   C326      1.0  0.40862  0.21673  0.49274  1.0000
  O   O33       1.0  0.40019  0.22658  0.51480  1.0000
  O   O34       1.0  0.41785  0.21352  0.55382  1.0000
  H   H167      1.0  0.42312  0.20514  0.55056  1.0000
  C   C327      1.0  0.78565  0.19933  0.35751  1.0000
  C   C328      1.0  0.80864  0.17875  0.34751  1.0000
  N   N60       1.0  0.79405  0.17427  0.41165  1.0000
  C   C329      1.0  0.78236  0.18362  0.42015  1.0000
  C   C330      1.0  0.76906  0.17825  0.49273  1.0000
  O   O35       1.0  0.75902  0.15991  0.51364  1.0000
  O   O36       1.0  0.77238  0.19069  0.55393  1.0000
  H   H168      1.0  0.78084  0.20433  0.55082  1.0000
  N   N61       1.0  0.19673  0.20398  0.37916  1.0000
  C   C331      1.0  0.20818  0.19449  0.38787  1.0000
  H   H169      1.0  0.21858  0.19879  0.43909  1.0000
  N   N62       1.0  0.78175  0.97914  0.37899  1.0000
  C   C332      1.0  0.79124  0.00008  0.38760  1.0000
  H   H170      1.0  0.78697  0.00620  0.43886  1.0000
  N   N63       1.0  0.00671  0.78914  0.37872  1.0000
  C   C333      1.0  0.98576  0.77770  0.38741  1.0000
  H   H171      1.0  0.97965  0.76729  0.43858  1.0000
  N   N64       1.0  0.79336  0.77748  0.37905  1.0000
  C   C334      1.0  0.78190  0.78696  0.38761  1.0000
  H   H172      1.0  0.77152  0.78269  0.43889  1.0000
  N   N65       1.0  0.20816  0.00233  0.38124  1.0000
  C   C335      1.0  0.19862  0.98138  0.38996  1.0000
  H   H173      1.0  0.20264  0.97526  0.44205  1.0000
  N   N66       1.0  0.98344  0.19240  0.37902  1.0000
  C   C336      1.0  0.00439  0.20384  0.38757  1.0000
  H   H174      1.0  0.01051  0.21422  0.43889  1.0000
  N   N67       1.0  0.21317  0.61164  0.39196  1.0000
  C   C337      1.0  0.21286  0.59365  0.41072  1.0000
  H   H175      1.0  0.21561  0.59091  0.47464  1.0000
  N   N68       1.0  0.37389  0.58796  0.39248  1.0000
  C   C338      1.0  0.39183  0.60566  0.41157  1.0000
  H   H176      1.0  0.39460  0.61107  0.47561  1.0000
  N   N69       1.0  0.39784  0.77251  0.39245  1.0000
  C   C339      1.0  0.38017  0.77279  0.41166  1.0000
  H   H177      1.0  0.37470  0.76998  0.47559  1.0000
  N   N70       1.0  0.77678  0.36961  0.39266  1.0000
  C   C340      1.0  0.77706  0.38755  0.41218  1.0000
  H   H178      1.0  0.77433  0.39020  0.47628  1.0000
  N   N71       1.0  0.61615  0.39358  0.39234  1.0000
  C   C341      1.0  0.59815  0.37592  0.41126  1.0000
  H   H179      1.0  0.59532  0.37051  0.47532  1.0000
  N   N72       1.0  0.59227  0.20885  0.39194  1.0000
  C   C342      1.0  0.60995  0.20852  0.41050  1.0000
  H   H180      1.0  0.61555  0.21137  0.47424  1.0000
