data_image0
_chemical_formula_structural       CHC2N2C2H3C3H2C2NC6NC36H20N4C3NC3NC5NC5NC36H26N4C3NC3NC5NC5NC36H26N4C5H4CHC5H4CHC5H4CHC5H4CHC5H4CHC5H4CHC16H16C16H16C16H16C4HC3H2NO2CHC4HC3H2NO2CHC4HC3H2NO2CHC4HC3H2NO2CHC4HC3H2NO2CHC4HC3H2NO2CH
_chemical_formula_sum              "C288 H180 N30 O12"
_cell_length_a       75.3552
_cell_length_b       75.3552
_cell_length_c       14.969
_cell_angle_alpha    89.8516
_cell_angle_beta     90.1484
_cell_angle_gamma    120

_space_group_name_H-M_alt    "P 1"
_space_group_IT_number       1

loop_
  _space_group_symop_operation_xyz
  'x, y, z'

loop_
  _atom_site_type_symbol
  _atom_site_label
  _atom_site_symmetry_multiplicity
  _atom_site_fract_x
  _atom_site_fract_y
  _atom_site_fract_z
  _atom_site_occupancy
  C   C1        1.0  0.00990  0.58294  0.31036  1.0000
  H   H1        1.0  0.00695  0.61021  0.31399  1.0000
  C   C2        1.0  0.01933  0.49377  0.31311  1.0000
  C   C3        1.0  0.01211  0.50762  0.31096  1.0000
  N   N1        1.0  0.02910  0.52646  0.30915  1.0000
  N   N2        1.0  0.02747  0.58213  0.30922  1.0000
  C   C4        1.0  0.01610  0.60379  0.31263  1.0000
  C   C5        1.0  0.03725  0.61482  0.31348  1.0000
  H   H2        1.0  0.01082  0.47814  0.31503  1.0000
  H   H3        1.0  0.02873  0.53900  0.30700  1.0000
  H   H4        1.0  0.02784  0.56959  0.30686  1.0000
  C   C6        1.0  0.04048  0.50480  0.31231  1.0000
  C   C7        1.0  0.04667  0.52565  0.31025  1.0000
  C   C8        1.0  0.04446  0.60097  0.31117  1.0000
  H   H5        1.0  0.04963  0.49838  0.31366  1.0000
  H   H6        1.0  0.04576  0.63045  0.31554  1.0000
  C   C9        1.0  0.06738  0.54190  0.30948  1.0000
  C   C10       1.0  0.07363  0.56308  0.30905  1.0000
  N   N3        1.0  0.06161  0.57168  0.30984  1.0000
  C   C11       1.0  0.07277  0.59237  0.31006  1.0000
  C   C12       1.0  0.09329  0.59736  0.30911  1.0000
  C   C13       1.0  0.09382  0.57932  0.30867  1.0000
  C   C14       1.0  0.06549  0.60649  0.31129  1.0000
  C   C15       1.0  0.98919  0.56669  0.30947  1.0000
  C   C16       1.0  0.98295  0.54552  0.30891  1.0000
  N   N4        1.0  0.99496  0.53692  0.30965  1.0000
  C   C17       1.0  0.98381  0.51623  0.30988  1.0000
  C   C18       1.0  0.96329  0.51124  0.30903  1.0000
  C   C19       1.0  0.96275  0.52928  0.30861  1.0000
  C   C20       1.0  0.99109  0.50211  0.31112  1.0000
  C   C21       1.0  0.97611  0.48087  0.31427  1.0000
  C   C22       1.0  0.94429  0.43903  0.31988  1.0000
  C   C23       1.0  0.95380  0.44846  0.23813  1.0000
  C   C24       1.0  0.96942  0.46914  0.23518  1.0000
  C   C25       1.0  0.92749  0.41850  0.32197  1.0000
  C   C26       1.0  0.92815  0.40250  0.27534  1.0000
  C   C27       1.0  0.91130  0.38238  0.27611  1.0000
  C   C28       1.0  0.89314  0.37780  0.32171  1.0000
  C   C29       1.0  0.97348  0.57195  0.31076  1.0000
  C   C30       1.0  0.94150  0.58180  0.31384  1.0000
  C   C31       1.0  0.94852  0.57806  0.23215  1.0000
  C   C32       1.0  0.96432  0.57325  0.23048  1.0000
  C   C33       1.0  0.92527  0.58641  0.31566  1.0000
  C   C34       1.0  0.89230  0.59495  0.32242  1.0000
  C   C35       1.0  0.89109  0.57921  0.26742  1.0000
  C   C36       1.0  0.90729  0.57500  0.26403  1.0000
  C   C37       1.0  0.08045  0.62773  0.31444  1.0000
  C   C38       1.0  0.08684  0.63959  0.23549  1.0000
  C   C39       1.0  0.10233  0.66032  0.23847  1.0000
  C   C40       1.0  0.11198  0.66969  0.32010  1.0000
  C   C41       1.0  0.12857  0.69033  0.32220  1.0000
  C   C42       1.0  0.16247  0.73128  0.32214  1.0000
  C   C43       1.0  0.14411  0.72649  0.27747  1.0000
  C   C44       1.0  0.12748  0.70625  0.27659  1.0000
  C   C45       1.0  0.08311  0.53666  0.31068  1.0000
  C   C46       1.0  0.09219  0.53541  0.23035  1.0000
  C   C47       1.0  0.11538  0.52723  0.31370  1.0000
  C   C48       1.0  0.10814  0.53081  0.23199  1.0000
  C   C49       1.0  0.13183  0.52294  0.31551  1.0000
  C   C50       1.0  0.14969  0.53452  0.26348  1.0000
  C   C51       1.0  0.16611  0.53063  0.26689  1.0000
  C   C52       1.0  0.16526  0.51507  0.32240  1.0000
  H   H7        1.0  0.17889  0.53952  0.22931  1.0000
  H   H8        1.0  0.15115  0.54630  0.22412  1.0000
  H   H9        1.0  0.11428  0.52987  0.17250  1.0000
  H   H10       1.0  0.08735  0.53796  0.17024  1.0000
  H   H11       1.0  0.10692  0.57845  0.30832  1.0000
  H   H12       1.0  0.10595  0.61167  0.30885  1.0000
  H   H13       1.0  0.08053  0.63310  0.17518  1.0000
  H   H14       1.0  0.10704  0.66831  0.17971  1.0000
  H   H15       1.0  0.95062  0.49694  0.30889  1.0000
  H   H16       1.0  0.94965  0.53015  0.30840  1.0000
  H   H17       1.0  0.96904  0.57064  0.17037  1.0000
  H   H18       1.0  0.94235  0.57905  0.17269  1.0000
  H   H19       1.0  0.90556  0.56309  0.22505  1.0000
  H   H20       1.0  0.87820  0.57044  0.23014  1.0000
  H   H21       1.0  0.97559  0.47570  0.17478  1.0000
  H   H22       1.0  0.94884  0.44060  0.17926  1.0000
  H   H23       1.0  0.91224  0.37116  0.24171  1.0000
  H   H24       1.0  0.94104  0.40532  0.24110  1.0000
  H   H25       1.0  0.11443  0.70330  0.24309  1.0000
  H   H26       1.0  0.14286  0.73766  0.24383  1.0000
  N   N5        1.0  0.87743  0.35866  0.32020  1.0000
  N   N6        1.0  0.18164  0.51271  0.32308  1.0000
  N   N7        1.0  0.17797  0.75054  0.32077  1.0000
  N   N8        1.0  0.87611  0.59762  0.32312  1.0000
  C   C53       1.0  0.57947  0.61928  0.31458  1.0000
  C   C54       1.0  0.59050  0.60916  0.31533  1.0000
  C   C55       1.0  0.57665  0.58810  0.31322  1.0000
  N   N9        1.0  0.55780  0.58625  0.31143  1.0000
  C   C56       1.0  0.55862  0.60463  0.31251  1.0000
  C   C57       1.0  0.54236  0.60909  0.31173  1.0000
  C   C58       1.0  0.52119  0.59416  0.31129  1.0000
  N   N10       1.0  0.51259  0.57354  0.31209  1.0000
  C   C59       1.0  0.49190  0.56401  0.31233  1.0000
  C   C60       1.0  0.48691  0.57954  0.31139  1.0000
  C   C61       1.0  0.50495  0.59811  0.31094  1.0000
  C   C62       1.0  0.47778  0.54261  0.31357  1.0000
  C   C63       1.0  0.48329  0.52710  0.31341  1.0000
  N   N11       1.0  0.50213  0.52895  0.31145  1.0000
  C   C64       1.0  0.50132  0.51057  0.31259  1.0000
  C   C65       1.0  0.48047  0.49592  0.31483  1.0000
  C   C66       1.0  0.46944  0.50604  0.31573  1.0000
  C   C67       1.0  0.51757  0.50611  0.31171  1.0000
  C   C68       1.0  0.53874  0.52104  0.31116  1.0000
  N   N12       1.0  0.54734  0.54165  0.31191  1.0000
  C   C69       1.0  0.56803  0.55119  0.31215  1.0000
  C   C70       1.0  0.57302  0.53565  0.31129  1.0000
  C   C71       1.0  0.55498  0.51708  0.31088  1.0000
  C   C72       1.0  0.58216  0.57259  0.31334  1.0000
  C   C73       1.0  0.60339  0.57885  0.31650  1.0000
  C   C74       1.0  0.64523  0.58886  0.32212  1.0000
  C   C75       1.0  0.63579  0.58898  0.24034  1.0000
  C   C76       1.0  0.61512  0.58395  0.23741  1.0000
  C   C77       1.0  0.66577  0.59259  0.32421  1.0000
  C   C78       1.0  0.68176  0.60927  0.27744  1.0000
  C   C79       1.0  0.70187  0.61253  0.27818  1.0000
  C   C80       1.0  0.70646  0.59892  0.32384  1.0000
  C   C81       1.0  0.51231  0.48513  0.31300  1.0000
  C   C82       1.0  0.50247  0.44331  0.31607  1.0000
  C   C83       1.0  0.50620  0.45415  0.23439  1.0000
  C   C84       1.0  0.51100  0.47476  0.23271  1.0000
  C   C85       1.0  0.49786  0.42247  0.31789  1.0000
  C   C86       1.0  0.48931  0.38095  0.32461  1.0000
  C   C87       1.0  0.50505  0.39553  0.26959  1.0000
  C   C88       1.0  0.50928  0.41595  0.26627  1.0000
  C   C89       1.0  0.45654  0.53633  0.31671  1.0000
  C   C90       1.0  0.44469  0.53097  0.23775  1.0000
  C   C91       1.0  0.42396  0.52573  0.24071  1.0000
  C   C92       1.0  0.41458  0.52589  0.32236  1.0000
  C   C93       1.0  0.39393  0.52183  0.32447  1.0000
  C   C94       1.0  0.35298  0.51479  0.32419  1.0000
  C   C95       1.0  0.35778  0.50129  0.27942  1.0000
  C   C96       1.0  0.37802  0.50489  0.27865  1.0000
  C   C97       1.0  0.54761  0.63006  0.31292  1.0000
  C   C98       1.0  0.54886  0.64048  0.23258  1.0000
  C   C99       1.0  0.55704  0.67176  0.31589  1.0000
  C   C100      1.0  0.55346  0.66102  0.23421  1.0000
  C   C101      1.0  0.56133  0.69250  0.31771  1.0000
  C   C102      1.0  0.54975  0.69882  0.26564  1.0000
  C   C103      1.0  0.55362  0.71912  0.26906  1.0000
  C   C104      1.0  0.56917  0.73378  0.32459  1.0000
  H   H27       1.0  0.54473  0.72305  0.23148  1.0000
  H   H28       1.0  0.53797  0.68855  0.22627  1.0000
  H   H29       1.0  0.55440  0.66815  0.17471  1.0000
  H   H30       1.0  0.54631  0.63314  0.17246  1.0000
  H   H31       1.0  0.58589  0.63486  0.31581  1.0000
  H   H32       1.0  0.60613  0.61628  0.31719  1.0000
  H   H33       1.0  0.54526  0.57334  0.30933  1.0000
  H   H34       1.0  0.51467  0.54186  0.30910  1.0000
  H   H35       1.0  0.50582  0.61209  0.31059  1.0000
  H   H36       1.0  0.47260  0.57790  0.31116  1.0000
  H   H37       1.0  0.45118  0.53122  0.17743  1.0000
  H   H38       1.0  0.41597  0.52251  0.18195  1.0000
  H   H39       1.0  0.45381  0.49891  0.31784  1.0000
  H   H40       1.0  0.47405  0.48034  0.31628  1.0000
  H   H41       1.0  0.58733  0.53729  0.31112  1.0000
  H   H42       1.0  0.55411  0.50311  0.31062  1.0000
  H   H43       1.0  0.51361  0.48215  0.17260  1.0000
  H   H44       1.0  0.50520  0.44704  0.17492  1.0000
  H   H45       1.0  0.52116  0.42616  0.22722  1.0000
  H   H46       1.0  0.51382  0.39146  0.23231  1.0000
  H   H47       1.0  0.60856  0.58361  0.17699  1.0000
  H   H48       1.0  0.64366  0.59197  0.18149  1.0000
  H   H49       1.0  0.71308  0.62470  0.24362  1.0000
  H   H50       1.0  0.67894  0.61937  0.24314  1.0000
  H   H51       1.0  0.38099  0.49486  0.24498  1.0000
  H   H52       1.0  0.34663  0.48894  0.24554  1.0000
  N   N13       1.0  0.72559  0.60232  0.32219  1.0000
  N   N14       1.0  0.57151  0.75251  0.32533  1.0000
  N   N15       1.0  0.33373  0.51105  0.32257  1.0000
  N   N16       1.0  0.48664  0.36209  0.32530  1.0000
  C   C105      1.0  0.46497  0.04377  0.31646  1.0000
  C   C106      1.0  0.47509  0.06492  0.31738  1.0000
  C   C107      1.0  0.49615  0.07214  0.31537  1.0000
  N   N17       1.0  0.49801  0.05516  0.31352  1.0000
  C   C108      1.0  0.47963  0.03758  0.31444  1.0000
  C   C109      1.0  0.47518  0.01688  0.31354  1.0000
  C   C110      1.0  0.49011  0.01064  0.31320  1.0000
  N   N18       1.0  0.51073  0.02265  0.31413  1.0000
  C   C111      1.0  0.52027  0.01151  0.31445  1.0000
  C   C112      1.0  0.50474  0.99098  0.31347  1.0000
  C   C113      1.0  0.48617  0.99044  0.31287  1.0000
  C   C114      1.0  0.54167  0.01879  0.31575  1.0000
  C   C115      1.0  0.55717  0.03981  0.31555  1.0000
  N   N19       1.0  0.55531  0.05680  0.31360  1.0000
  C   C116      1.0  0.57370  0.07437  0.31459  1.0000
  C   C117      1.0  0.58835  0.06818  0.31673  1.0000
  C   C118      1.0  0.57824  0.04703  0.31774  1.0000
  C   C119      1.0  0.57815  0.09508  0.31366  1.0000
  C   C120      1.0  0.56322  0.10132  0.31326  1.0000
  N   N20       1.0  0.54260  0.08930  0.31406  1.0000
  C   C121      1.0  0.53306  0.10045  0.31436  1.0000
  C   C122      1.0  0.54859  0.12098  0.31348  1.0000
  C   C123      1.0  0.56717  0.12152  0.31295  1.0000
  C   C124      1.0  0.51166  0.09317  0.31559  1.0000
  C   C125      1.0  0.50540  0.10814  0.31874  1.0000
  C   C126      1.0  0.49538  0.13996  0.32435  1.0000
  C   C127      1.0  0.49527  0.13048  0.24258  1.0000
  C   C128      1.0  0.50029  0.11484  0.23964  1.0000
  C   C129      1.0  0.49165  0.15676  0.32644  1.0000
  C   C130      1.0  0.47497  0.15612  0.27963  1.0000
  C   C131      1.0  0.47172  0.17297  0.28033  1.0000
  C   C132      1.0  0.48533  0.19113  0.32602  1.0000
  C   C133      1.0  0.59913  0.11081  0.31459  1.0000
  C   C134      1.0  0.64095  0.14278  0.31686  1.0000
  C   C135      1.0  0.63003  0.13571  0.23537  1.0000
  C   C136      1.0  0.60942  0.11990  0.23409  1.0000
  C   C137      1.0  0.66180  0.15902  0.31827  1.0000
  C   C138      1.0  0.70333  0.19197  0.32406  1.0000
  C   C139      1.0  0.68869  0.19315  0.26931  1.0000
  C   C140      1.0  0.66826  0.17696  0.26641  1.0000
  C   C141      1.0  0.54795  0.00383  0.31891  1.0000
  C   C142      1.0  0.55332  0.99743  0.23996  1.0000
  C   C143      1.0  0.55857  0.98193  0.24294  1.0000
  C   C144      1.0  0.55840  0.97231  0.32459  1.0000
  C   C145      1.0  0.56246  0.95572  0.32668  1.0000
  C   C146      1.0  0.56948  0.92180  0.32636  1.0000
  C   C147      1.0  0.58299  0.94015  0.28163  1.0000
  C   C148      1.0  0.57939  0.95679  0.28086  1.0000
  C   C149      1.0  0.45421  0.00114  0.31441  1.0000
  C   C150      1.0  0.44386  0.99211  0.23388  1.0000
  C   C151      1.0  0.41251  0.96886  0.31666  1.0000
  C   C152      1.0  0.42332  0.97616  0.23515  1.0000
  C   C153      1.0  0.39177  0.95241  0.31809  1.0000
  C   C154      1.0  0.38549  0.93460  0.26583  1.0000
  C   C155      1.0  0.36518  0.91817  0.26884  1.0000
  C   C156      1.0  0.35047  0.91899  0.32407  1.0000
  H   H53       1.0  0.36128  0.90543  0.23108  1.0000
  H   H54       1.0  0.39580  0.93315  0.22665  1.0000
  H   H55       1.0  0.41624  0.97006  0.17553  1.0000
  H   H56       1.0  0.45125  0.99700  0.17389  1.0000
  H   H57       1.0  0.44940  0.03461  0.31763  1.0000
  H   H58       1.0  0.46796  0.07343  0.31925  1.0000
  H   H59       1.0  0.51092  0.05553  0.31145  1.0000
  H   H60       1.0  0.54240  0.05643  0.31138  1.0000
  H   H61       1.0  0.47220  0.97734  0.31249  1.0000
  H   H62       1.0  0.50639  0.97832  0.31328  1.0000
  H   H63       1.0  0.55306  0.00371  0.17963  1.0000
  H   H64       1.0  0.56177  0.97722  0.18417  1.0000
  H   H65       1.0  0.58537  0.03853  0.31977  1.0000
  H   H66       1.0  0.60393  0.07734  0.31805  1.0000
  H   H67       1.0  0.54695  0.13364  0.31331  1.0000
  H   H68       1.0  0.58114  0.13462  0.31265  1.0000
  H   H69       1.0  0.60197  0.11514  0.17411  1.0000
  H   H70       1.0  0.63709  0.14184  0.17577  1.0000
  H   H71       1.0  0.65802  0.17867  0.22759  1.0000
  H   H72       1.0  0.69273  0.20601  0.23190  1.0000
  H   H73       1.0  0.50064  0.10869  0.17922  1.0000
  H   H74       1.0  0.49228  0.13542  0.18372  1.0000
  H   H75       1.0  0.45955  0.17205  0.24578  1.0000
  H   H76       1.0  0.46487  0.14323  0.24534  1.0000
  H   H77       1.0  0.58943  0.96983  0.24723  1.0000
  H   H78       1.0  0.59534  0.94138  0.24777  1.0000
  N   N21       1.0  0.48192  0.20686  0.32431  1.0000
  N   N22       1.0  0.33173  0.90261  0.32433  1.0000
  N   N23       1.0  0.57322  0.90629  0.32477  1.0000
  N   N24       1.0  0.72220  0.20815  0.32429  1.0000
  C   C157      1.0  0.21414  0.50426  0.27564  1.0000
  C   C158      1.0  0.23346  0.50588  0.26596  1.0000
  C   C159      1.0  0.28011  0.52710  0.28039  1.0000
  C   C160      1.0  0.30045  0.53127  0.27334  1.0000
  C   C161      1.0  0.30674  0.51830  0.31373  1.0000
  H   H79       1.0  0.27638  0.53726  0.25296  1.0000
  H   H80       1.0  0.31077  0.54425  0.24004  1.0000
  H   H81       1.0  0.20612  0.50368  0.21939  1.0000
  H   H82       1.0  0.23890  0.50646  0.20278  1.0000
  C   C162      1.0  0.32735  0.52390  0.31197  1.0000
  H   H83       1.0  0.33764  0.53861  0.30182  1.0000
  C   C163      1.0  0.57998  0.79352  0.27787  1.0000
  C   C164      1.0  0.57837  0.81123  0.26817  1.0000
  C   C165      1.0  0.55716  0.83666  0.28267  1.0000
  C   C166      1.0  0.55299  0.85283  0.27560  1.0000
  C   C167      1.0  0.56597  0.87206  0.31593  1.0000
  H   H84       1.0  0.54699  0.82279  0.25526  1.0000
  H   H85       1.0  0.54001  0.85021  0.24234  1.0000
  H   H86       1.0  0.58054  0.78613  0.22161  1.0000
  H   H87       1.0  0.57778  0.81615  0.20499  1.0000
  C   C168      1.0  0.56037  0.88707  0.31415  1.0000
  H   H88       1.0  0.54566  0.88267  0.30397  1.0000
  C   C169      1.0  0.29075  0.87017  0.27588  1.0000
  C   C170      1.0  0.27306  0.85087  0.26576  1.0000
  C   C171      1.0  0.24762  0.80420  0.27949  1.0000
  C   C172      1.0  0.23145  0.78387  0.27200  1.0000
  C   C173      1.0  0.21220  0.77755  0.31210  1.0000
  H   H89       1.0  0.26151  0.80796  0.25218  1.0000
  H   H90       1.0  0.23411  0.77358  0.23859  1.0000
  H   H91       1.0  0.29820  0.87825  0.21981  1.0000
  H   H92       1.0  0.26820  0.84548  0.20246  1.0000
  C   C174      1.0  0.19718  0.75694  0.30990  1.0000
  H   H93       1.0  0.20159  0.74666  0.29933  1.0000
  C   C175      1.0  0.84403  0.60676  0.27532  1.0000
  C   C176      1.0  0.82486  0.60549  0.26572  1.0000
  C   C177      1.0  0.77828  0.58499  0.28111  1.0000
  C   C178      1.0  0.75805  0.58117  0.27416  1.0000
  C   C179      1.0  0.75215  0.59444  0.31398  1.0000
  H   H94       1.0  0.78174  0.57463  0.25393  1.0000
  H   H95       1.0  0.74753  0.56823  0.24125  1.0000
  H   H96       1.0  0.85188  0.60711  0.21904  1.0000
  H   H97       1.0  0.81935  0.60492  0.20257  1.0000
  C   C180      1.0  0.73164  0.58920  0.31233  1.0000
  H   H98       1.0  0.72114  0.57453  0.30289  1.0000
  C   C181      1.0  0.47749  0.32091  0.27752  1.0000
  C   C182      1.0  0.47875  0.30301  0.26788  1.0000
  C   C183      1.0  0.49924  0.27691  0.28310  1.0000
  C   C184      1.0  0.50306  0.26051  0.27619  1.0000
  C   C185      1.0  0.48979  0.24130  0.31609  1.0000
  H   H99       1.0  0.50961  0.29076  0.25604  1.0000
  H   H100      1.0  0.51601  0.26296  0.24338  1.0000
  H   H101      1.0  0.47714  0.32848  0.22125  1.0000
  H   H102      1.0  0.47930  0.29813  0.20472  1.0000
  C   C186      1.0  0.49504  0.22604  0.31455  1.0000
  H   H103      1.0  0.50972  0.23022  0.30523  1.0000
  C   C187      1.0  0.76334  0.24016  0.27554  1.0000
  C   C188      1.0  0.78123  0.25931  0.26548  1.0000
  C   C189      1.0  0.80735  0.30590  0.27985  1.0000
  C   C190      1.0  0.82374  0.32613  0.27256  1.0000
  C   C191      1.0  0.84299  0.33207  0.31219  1.0000
  H   H104      1.0  0.79348  0.30243  0.25299  1.0000
  H   H105      1.0  0.82126  0.33663  0.23966  1.0000
  H   H106      1.0  0.75572  0.23224  0.21946  1.0000
  H   H107      1.0  0.78605  0.26475  0.20220  1.0000
  C   C192      1.0  0.85824  0.35259  0.31030  1.0000
  H   H108      1.0  0.85405  0.36307  0.30070  1.0000
  C   C193      1.0  0.96705  0.47149  0.39636  1.0000
  C   C194      1.0  0.95132  0.45087  0.39895  1.0000
  C   C195      1.0  0.89251  0.39361  0.36968  1.0000
  C   C196      1.0  0.90941  0.41364  0.36965  1.0000
  C   C197      1.0  0.96662  0.57564  0.39257  1.0000
  C   C198      1.0  0.95090  0.58056  0.39392  1.0000
  C   C199      1.0  0.92651  0.60235  0.36999  1.0000
  C   C200      1.0  0.91034  0.60661  0.37321  1.0000
  C   C201      1.0  0.10527  0.65771  0.39902  1.0000
  C   C202      1.0  0.08968  0.63704  0.39640  1.0000
  C   C203      1.0  0.14685  0.69538  0.36894  1.0000
  C   C204      1.0  0.16353  0.71553  0.36908  1.0000
  C   C205      1.0  0.09017  0.53310  0.39250  1.0000
  C   C206      1.0  0.10604  0.52839  0.39382  1.0000
  C   C207      1.0  0.14736  0.50325  0.37361  1.0000
  C   C208      1.0  0.13096  0.50717  0.37035  1.0000
  H   H109      1.0  0.14605  0.49167  0.41378  1.0000
  H   H110      1.0  0.11822  0.49819  0.40789  1.0000
  H   H111      1.0  0.11107  0.52633  0.45442  1.0000
  H   H112      1.0  0.08394  0.53410  0.45165  1.0000
  H   H113      1.0  0.08536  0.62873  0.45446  1.0000
  H   H114      1.0  0.11173  0.66395  0.45945  1.0000
  H   H115      1.0  0.97292  0.57464  0.45168  1.0000
  H   H116      1.0  0.94604  0.58275  0.45451  1.0000
  H   H117      1.0  0.91192  0.61830  0.41304  1.0000
  H   H118      1.0  0.93937  0.61122  0.40722  1.0000
  H   H119      1.0  0.90815  0.42477  0.40323  1.0000
  H   H120      1.0  0.87969  0.39066  0.40476  1.0000
  H   H121      1.0  0.94498  0.44459  0.45947  1.0000
  H   H122      1.0  0.97157  0.47971  0.45451  1.0000
  H   H123      1.0  0.14841  0.68430  0.40183  1.0000
  H   H124      1.0  0.17651  0.71862  0.40349  1.0000
  C   C209      1.0  0.61278  0.57911  0.39860  1.0000
  C   C210      1.0  0.63340  0.58399  0.40121  1.0000
  C   C211      1.0  0.69066  0.58245  0.37195  1.0000
  C   C212      1.0  0.67063  0.57933  0.37193  1.0000
  C   C213      1.0  0.50863  0.47450  0.39481  1.0000
  C   C214      1.0  0.50372  0.45387  0.39615  1.0000
  C   C215      1.0  0.48192  0.40771  0.37222  1.0000
  C   C216      1.0  0.47766  0.38728  0.37543  1.0000
  C   C217      1.0  0.42654  0.53106  0.40130  1.0000
  C   C218      1.0  0.44722  0.53615  0.39869  1.0000
  C   C219      1.0  0.38887  0.53498  0.37136  1.0000
  C   C220      1.0  0.36872  0.53152  0.37136  1.0000
  C   C221      1.0  0.55116  0.64060  0.39473  1.0000
  C   C222      1.0  0.55588  0.66118  0.39603  1.0000
  C   C223      1.0  0.58100  0.72765  0.37583  1.0000
  C   C224      1.0  0.57708  0.70734  0.37256  1.0000
  H   H125      1.0  0.59256  0.73787  0.41604  1.0000
  H   H126      1.0  0.58606  0.70353  0.41012  1.0000
  H   H127      1.0  0.55793  0.66821  0.45663  1.0000
  H   H128      1.0  0.55016  0.63331  0.45388  1.0000
  H   H129      1.0  0.45552  0.54006  0.45676  1.0000
  H   H130      1.0  0.42030  0.53119  0.46174  1.0000
  H   H131      1.0  0.50963  0.48175  0.45391  1.0000
  H   H132      1.0  0.50152  0.44675  0.45674  1.0000
  H   H133      1.0  0.46597  0.37712  0.41525  1.0000
  H   H134      1.0  0.47305  0.41166  0.40946  1.0000
  H   H135      1.0  0.65950  0.56693  0.40567  1.0000
  H   H136      1.0  0.69361  0.57255  0.40708  1.0000
  H   H137      1.0  0.63969  0.58388  0.46173  1.0000
  H   H138      1.0  0.60456  0.57535  0.45676  1.0000
  H   H139      1.0  0.39993  0.54756  0.40434  1.0000
  H   H140      1.0  0.36562  0.54136  0.40583  1.0000
  C   C225      1.0  0.50513  0.11718  0.40084  1.0000
  C   C226      1.0  0.50025  0.13292  0.40344  1.0000
  C   C227      1.0  0.50179  0.19174  0.37416  1.0000
  C   C228      1.0  0.50491  0.17483  0.37419  1.0000
  C   C229      1.0  0.60983  0.11772  0.39619  1.0000
  C   C230      1.0  0.63047  0.13344  0.39715  1.0000
  C   C231      1.0  0.67660  0.15781  0.37235  1.0000
  C   C232      1.0  0.69704  0.17397  0.37509  1.0000
  C   C233      1.0  0.55323  0.97903  0.40352  1.0000
  C   C234      1.0  0.54814  0.99462  0.40089  1.0000
  C   C235      1.0  0.54930  0.93745  0.37357  1.0000
  C   C236      1.0  0.55276  0.92076  0.37356  1.0000
  C   C237      1.0  0.44360  0.99403  0.39603  1.0000
  C   C238      1.0  0.42302  0.97816  0.39698  1.0000
  C   C239      1.0  0.35655  0.93685  0.37551  1.0000
  C   C240      1.0  0.37688  0.95325  0.37267  1.0000
  H   H141      1.0  0.34629  0.93814  0.41551  1.0000
  H   H142      1.0  0.38065  0.96597  0.41036  1.0000
  H   H143      1.0  0.41594  0.97309  0.45745  1.0000
  H   H144      1.0  0.45084  0.00022  0.45532  1.0000
  H   H145      1.0  0.54423  0.99895  0.45896  1.0000
  H   H146      1.0  0.55310  0.97259  0.46397  1.0000
  H   H147      1.0  0.60264  0.11145  0.45544  1.0000
  H   H148      1.0  0.63764  0.13835  0.45760  1.0000
  H   H149      1.0  0.70724  0.17242  0.41473  1.0000
  H   H150      1.0  0.67269  0.14498  0.40971  1.0000
  H   H151      1.0  0.51731  0.17608  0.40791  1.0000
  H   H152      1.0  0.51169  0.20456  0.40929  1.0000
  H   H153      1.0  0.50036  0.13925  0.46396  1.0000
  H   H154      1.0  0.50890  0.11267  0.45900  1.0000
  H   H155      1.0  0.53672  0.93590  0.40656  1.0000
  H   H156      1.0  0.54292  0.90779  0.40802  1.0000
  C   C241      1.0  0.20601  0.50358  0.36134  1.0000
  C   C242      1.0  0.24526  0.50681  0.34141  1.0000
  C   C243      1.0  0.23720  0.50603  0.42805  1.0000
  C   C244      1.0  0.21764  0.50424  0.43677  1.0000
  H   H157      1.0  0.21218  0.50404  0.49958  1.0000
  C   C245      1.0  0.26537  0.50988  0.32874  1.0000
  C   C246      1.0  0.29183  0.50074  0.36003  1.0000
  C   C247      1.0  0.27147  0.49660  0.36732  1.0000
  H   H158      1.0  0.29579  0.49114  0.39145  1.0000
  H   H159      1.0  0.26118  0.48396  0.40253  1.0000
  N   N25       1.0  0.24910  0.50797  0.50473  1.0000
  O   O1        1.0  0.24013  0.49259  0.55494  1.0000
  O   O2        1.0  0.25321  0.52374  0.54886  1.0000
  C   C248      1.0  0.18720  0.50242  0.37295  1.0000
  H   H160      1.0  0.17858  0.49454  0.42467  1.0000
  C   C249      1.0  0.58066  0.78598  0.36356  1.0000
  C   C250      1.0  0.57745  0.82203  0.34362  1.0000
  C   C251      1.0  0.57824  0.81467  0.43025  1.0000
  C   C252      1.0  0.58001  0.79688  0.43898  1.0000
  H   H161      1.0  0.58022  0.79156  0.50180  1.0000
  C   C253      1.0  0.57439  0.83910  0.33093  1.0000
  C   C254      1.0  0.58353  0.87466  0.36223  1.0000
  C   C255      1.0  0.58767  0.85844  0.36951  1.0000
  H   H162      1.0  0.59315  0.88820  0.39354  1.0000
  H   H163      1.0  0.60033  0.86076  0.40464  1.0000
  N   N26       1.0  0.57632  0.82457  0.50694  1.0000
  O   O3        1.0  0.59171  0.83092  0.55709  1.0000
  O   O4        1.0  0.56056  0.81288  0.55113  1.0000
  C   C256      1.0  0.58180  0.76831  0.37520  1.0000
  H   H164      1.0  0.58972  0.76754  0.42678  1.0000
  C   C257      1.0  0.29821  0.87824  0.36175  1.0000
  C   C258      1.0  0.26220  0.83900  0.34095  1.0000
  C   C259      1.0  0.26947  0.84699  0.42777  1.0000
  C   C260      1.0  0.28725  0.86654  0.43692  1.0000
  H   H165      1.0  0.29251  0.87196  0.49986  1.0000
  C   C261      1.0  0.24514  0.81891  0.32785  1.0000
  C   C262      1.0  0.20956  0.79242  0.35851  1.0000
  C   C263      1.0  0.22577  0.81278  0.36611  1.0000
  H   H166      1.0  0.19599  0.78845  0.38961  1.0000
  H   H167      1.0  0.22342  0.82304  0.40136  1.0000
  N   N27       1.0  0.25950  0.83503  0.50420  1.0000
  O   O5        1.0  0.25310  0.84396  0.55436  1.0000
  O   O6        1.0  0.27116  0.83088  0.54850  1.0000
  C   C264      1.0  0.31586  0.89704  0.37379  1.0000
  H   H168      1.0  0.31658  0.90562  0.42549  1.0000
  C   C265      1.0  0.85224  0.60740  0.36098  1.0000
  C   C266      1.0  0.81329  0.60488  0.34122  1.0000
  C   C267      1.0  0.82144  0.60563  0.42781  1.0000
  C   C268      1.0  0.84084  0.60705  0.43644  1.0000
  H   H169      1.0  0.84638  0.60724  0.49924  1.0000
  C   C269      1.0  0.79330  0.60216  0.32869  1.0000
  C   C270      1.0  0.76733  0.61195  0.35957  1.0000
  C   C271      1.0  0.78758  0.61574  0.36673  1.0000
  H   H170      1.0  0.76366  0.62177  0.39056  1.0000
  H   H171      1.0  0.79808  0.62836  0.40141  1.0000
  N   N28       1.0  0.80976  0.60402  0.50459  1.0000
  O   O7        1.0  0.81903  0.61944  0.55418  1.0000
  O   O8        1.0  0.80545  0.58824  0.54935  1.0000
  C   C272      1.0  0.87090  0.60820  0.37255  1.0000
  H   H172      1.0  0.87972  0.61613  0.42371  1.0000
  C   C273      1.0  0.47687  0.32840  0.36318  1.0000
  C   C274      1.0  0.47937  0.29198  0.34337  1.0000
  C   C275      1.0  0.47863  0.29929  0.42997  1.0000
  C   C276      1.0  0.47721  0.31727  0.43863  1.0000
  H   H173      1.0  0.47705  0.32256  0.50144  1.0000
  C   C277      1.0  0.48208  0.27472  0.33080  1.0000
  C   C278      1.0  0.47230  0.23893  0.36174  1.0000
  C   C279      1.0  0.46851  0.25539  0.36888  1.0000
  H   H174      1.0  0.46248  0.22541  0.39281  1.0000
  H   H175      1.0  0.45590  0.25324  0.40364  1.0000
  N   N29       1.0  0.48027  0.28915  0.50672  1.0000
  O   O9        1.0  0.46486  0.28296  0.55639  1.0000
  O   O10       1.0  0.49606  0.30059  0.55141  1.0000
  C   C280      1.0  0.47607  0.34625  0.37478  1.0000
  H   H176      1.0  0.46816  0.34709  0.42600  1.0000
  C   C281      1.0  0.75592  0.23204  0.36140  1.0000
  C   C282      1.0  0.79233  0.27096  0.34069  1.0000
  C   C283      1.0  0.78510  0.26290  0.42748  1.0000
  C   C284      1.0  0.76712  0.24351  0.43659  1.0000
  H   H177      1.0  0.76190  0.23805  0.49952  1.0000
  C   C285      1.0  0.80959  0.29093  0.32768  1.0000
  C   C286      1.0  0.84539  0.31693  0.35802  1.0000
  C   C287      1.0  0.82895  0.29668  0.36553  1.0000
  H   H178      1.0  0.85895  0.32063  0.38884  1.0000
  H   H179      1.0  0.83113  0.28622  0.40034  1.0000
  N   N30       1.0  0.79531  0.27467  0.50397  1.0000
  O   O11       1.0  0.80154  0.26544  0.55367  1.0000
  O   O12       1.0  0.78393  0.27903  0.54876  1.0000
  C   C288      1.0  0.73809  0.21339  0.37342  1.0000
  H   H180      1.0  0.73730  0.20463  0.42473  1.0000
