data_image0
_chemical_formula_structural       NC2HNC2HNC2HNC2HCNCHCNCHNC2HNC2HCNCHCNCHNC2HNC2HNC2HNC2HCNCHCNCHCNCHCNCHC6H3C6H3C6H3C6H3C6H3C6H3C6H3C6H3C6H3C6H3C6H3C6H3CNCHCNCHCNCHCNCHNC2HNC2HCNCHCNCHNC2HNC2HCNCHCNCHCNCHCNCHNC2HNC2HNC2HNC2HNC2HNC2HNC2HNC2HCNCHCNCHNC2HNC2HCNCHCNCHNC2HNC2HNC2HNC2HCNCHCNCHCNCHCNCHC6H3C6H3C6H3C6H3C6H3C6H3C6H3C6H3C6H3C6H3C6H3C6H3CNCHCNCHCNCHCNCHNC2HNC2HCNCHCNCHNC2HNC2HCNCHCNCHCNCHCNCHNC2HNC2HNC2HNC2H
_chemical_formula_sum              "N72 C288 H144"
_cell_length_a       42.785
_cell_length_b       55.469
_cell_length_c       14.9417
_cell_angle_alpha    90
_cell_angle_beta     90
_cell_angle_gamma    90

_space_group_name_H-M_alt    "P 1"
_space_group_IT_number       1

loop_
  _space_group_symop_operation_xyz
  'x, y, z'

loop_
  _atom_site_type_symbol
  _atom_site_label
  _atom_site_symmetry_multiplicity
  _atom_site_fract_x
  _atom_site_fract_y
  _atom_site_fract_z
  _atom_site_occupancy
  N   N1        1.0  0.26921  0.18671  0.25939  1.0000
  C   C1        1.0  0.23795  0.18672  0.25359  1.0000
  C   C2        1.0  0.21991  0.16898  0.29807  1.0000
  H   H1        1.0  0.22811  0.20074  0.21947  1.0000
  N   N2        1.0  0.23492  0.81741  0.26185  1.0000
  C   C3        1.0  0.26623  0.81691  0.25899  1.0000
  C   C4        1.0  0.28418  0.83443  0.30480  1.0000
  H   H2        1.0  0.27610  0.80276  0.22569  1.0000
  N   N3        1.0  0.01829  0.68336  0.24209  1.0000
  C   C5        1.0  0.48694  0.68353  0.23924  1.0000
  C   C6        1.0  0.46933  0.66674  0.28971  1.0000
  H   H3        1.0  0.47673  0.69719  0.20401  1.0000
  N   N4        1.0  0.48544  0.35569  0.35195  1.0000
  C   C7        1.0  0.01742  0.35620  0.35267  1.0000
  C   C8        1.0  0.03476  0.33653  0.38794  1.0000
  H   H4        1.0  0.02823  0.36938  0.31642  1.0000
  C   C9        1.0  0.11345  0.11489  0.32753  1.0000
  N   N5        1.0  0.08877  0.09916  0.33140  1.0000
  C   C10       1.0  0.06001  0.10584  0.36192  1.0000
  H   H5        1.0  0.13353  0.10879  0.29860  1.0000
  C   C11       1.0  0.39006  0.88803  0.33332  1.0000
  N   N6        1.0  0.41446  0.90405  0.33365  1.0000
  C   C12       1.0  0.44369  0.89782  0.36155  1.0000
  H   H6        1.0  0.36957  0.89390  0.30618  1.0000
  N   N7        1.0  0.45098  0.13129  0.33615  1.0000
  C   C13       1.0  0.42847  0.14802  0.33119  1.0000
  C   C14       1.0  0.39662  0.14202  0.34425  1.0000
  H   H7        1.0  0.43600  0.16477  0.31393  1.0000
  N   N8        1.0  0.05319  0.87376  0.32599  1.0000
  C   C15       1.0  0.07596  0.85725  0.32165  1.0000
  C   C16       1.0  0.10743  0.86328  0.34071  1.0000
  H   H8        1.0  0.06904  0.84059  0.30104  1.0000
  C   C17       1.0  0.36299  0.61475  0.33387  1.0000
  N   N9        1.0  0.33828  0.59908  0.33727  1.0000
  C   C18       1.0  0.30976  0.60555  0.37007  1.0000
  H   H9        1.0  0.38276  0.60872  0.30308  1.0000
  C   C19       1.0  0.14109  0.38811  0.32235  1.0000
  N   N10       1.0  0.16561  0.40398  0.31716  1.0000
  C   C20       1.0  0.19606  0.39669  0.31624  1.0000
  H   H10       1.0  0.11918  0.39528  0.32029  1.0000
  N   N11       1.0  0.20041  0.63079  0.35415  1.0000
  C   C21       1.0  0.17766  0.64730  0.34848  1.0000
  C   C22       1.0  0.14565  0.64069  0.35031  1.0000
  H   H11       1.0  0.18540  0.66438  0.33810  1.0000
  N   N12       1.0  0.30814  0.37594  0.26881  1.0000
  C   C23       1.0  0.33167  0.35989  0.26956  1.0000
  C   C24       1.0  0.36052  0.36527  0.31153  1.0000
  H   H12       1.0  0.32722  0.34374  0.23975  1.0000
  N   N13       1.0  0.13952  0.26856  0.27678  1.0000
  C   C25       1.0  0.14839  0.24512  0.27118  1.0000
  C   C26       1.0  0.13356  0.22707  0.32325  1.0000
  H   H13       1.0  0.16608  0.24093  0.22801  1.0000
  N   N14       1.0  0.40343  0.74389  0.29400  1.0000
  C   C27       1.0  0.39593  0.76765  0.29584  1.0000
  C   C28       1.0  0.36918  0.77571  0.34259  1.0000
  H   H14       1.0  0.40956  0.77937  0.26036  1.0000
  C   C29       1.0  0.35533  0.24733  0.28514  1.0000
  N   N15       1.0  0.36361  0.27083  0.29336  1.0000
  C   C30       1.0  0.38469  0.27857  0.35502  1.0000
  H   H15       1.0  0.33979  0.24296  0.23588  1.0000
  C   C31       1.0  0.10616  0.76841  0.29069  1.0000
  N   N16       1.0  0.09872  0.74465  0.28920  1.0000
  C   C32       1.0  0.11659  0.72728  0.32839  1.0000
  H   H16       1.0  0.09191  0.78022  0.25768  1.0000
  C   C33       1.0  0.97727  0.01388  0.30643  1.0000
  N   N17       1.0  0.97758  0.98936  0.30740  1.0000
  C   C34       1.0  0.00107  0.97633  0.34522  1.0000
  H   H17       1.0  0.95905  0.02216  0.27482  1.0000
  C   C35       1.0  0.22742  0.51396  0.30153  1.0000
  N   N18       1.0  0.22789  0.48946  0.29801  1.0000
  C   C36       1.0  0.25141  0.47601  0.33361  1.0000
  H   H18       1.0  0.20919  0.52255  0.27117  1.0000
  C   C37       1.0  0.14371  0.20235  0.32288  1.0000
  C   C38       1.0  0.17553  0.19656  0.31446  1.0000
  C   C39       1.0  0.18715  0.17258  0.31064  1.0000
  C   C40       1.0  0.16514  0.15378  0.32492  1.0000
  C   C41       1.0  0.13268  0.15827  0.33766  1.0000
  C   C42       1.0  0.12294  0.18284  0.33282  1.0000
  H   H19       1.0  0.17302  0.13643  0.32580  1.0000
  H   H20       1.0  0.09972  0.18696  0.33166  1.0000
  H   H21       1.0  0.19089  0.21063  0.31666  1.0000
  C   C43       1.0  0.35941  0.80050  0.34121  1.0000
  C   C44       1.0  0.32789  0.80640  0.32683  1.0000
  C   C45       1.0  0.31669  0.83046  0.32055  1.0000
  C   C46       1.0  0.33883  0.84916  0.33495  1.0000
  C   C47       1.0  0.37122  0.84463  0.34959  1.0000
  C   C48       1.0  0.38047  0.81988  0.35018  1.0000
  H   H22       1.0  0.33112  0.86653  0.33273  1.0000
  H   H23       1.0  0.40346  0.81533  0.35512  1.0000
  H   H24       1.0  0.31257  0.79235  0.32288  1.0000
  C   C49       1.0  0.35968  0.20439  0.33500  1.0000
  C   C50       1.0  0.32868  0.19788  0.31585  1.0000
  C   C51       1.0  0.31818  0.17362  0.31511  1.0000
  C   C52       1.0  0.34048  0.15523  0.33150  1.0000
  C   C53       1.0  0.37293  0.16037  0.34165  1.0000
  C   C54       1.0  0.38100  0.18532  0.34804  1.0000
  H   H25       1.0  0.33308  0.13778  0.32705  1.0000
  H   H26       1.0  0.40321  0.19026  0.36375  1.0000
  H   H27       1.0  0.31270  0.21152  0.31088  1.0000
  C   C55       1.0  0.14345  0.80100  0.33119  1.0000
  C   C56       1.0  0.17448  0.80709  0.31107  1.0000
  C   C57       1.0  0.18564  0.83118  0.31367  1.0000
  C   C58       1.0  0.16366  0.84978  0.33118  1.0000
  C   C59       1.0  0.13106  0.84494  0.33961  1.0000
  C   C60       1.0  0.12248  0.82013  0.34557  1.0000
  H   H28       1.0  0.17134  0.86718  0.32825  1.0000
  H   H29       1.0  0.10042  0.81539  0.36448  1.0000
  H   H30       1.0  0.18962  0.79316  0.29942  1.0000
  C   C61       1.0  0.39541  0.70172  0.33277  1.0000
  C   C62       1.0  0.42638  0.69533  0.31234  1.0000
  C   C63       1.0  0.43707  0.67112  0.30782  1.0000
  C   C64       1.0  0.41495  0.65280  0.32785  1.0000
  C   C65       1.0  0.38302  0.65782  0.34761  1.0000
  C   C66       1.0  0.37434  0.68268  0.34915  1.0000
  H   H31       1.0  0.42235  0.63534  0.32634  1.0000
  H   H32       1.0  0.35151  0.68748  0.35657  1.0000
  H   H33       1.0  0.44212  0.70910  0.30730  1.0000
  C   C67       1.0  0.10736  0.30089  0.33749  1.0000
  C   C68       1.0  0.07698  0.30751  0.36294  1.0000
  C   C69       1.0  0.06692  0.33185  0.36925  1.0000
  C   C70       1.0  0.08958  0.35000  0.35134  1.0000
  C   C71       1.0  0.12152  0.34463  0.33233  1.0000
  C   C72       1.0  0.12868  0.31968  0.32064  1.0000
  H   H34       1.0  0.08299  0.36750  0.36011  1.0000
  H   H35       1.0  0.15013  0.31451  0.29842  1.0000
  H   H36       1.0  0.06105  0.29386  0.36802  1.0000
  C   C73       1.0  0.10797  0.70234  0.32447  1.0000
  C   C74       1.0  0.07800  0.69533  0.29626  1.0000
  C   C75       1.0  0.06750  0.67109  0.30056  1.0000
  C   C76       1.0  0.08955  0.65313  0.32497  1.0000
  C   C77       1.0  0.12156  0.65865  0.34195  1.0000
  C   C78       1.0  0.12877  0.68372  0.34843  1.0000
  H   H37       1.0  0.08230  0.63562  0.32357  1.0000
  H   H38       1.0  0.14990  0.68909  0.37214  1.0000
  H   H39       1.0  0.06244  0.70875  0.28172  1.0000
  C   C79       1.0  0.39409  0.30324  0.35797  1.0000
  C   C80       1.0  0.42465  0.30952  0.38324  1.0000
  C   C81       1.0  0.43628  0.33342  0.37614  1.0000
  C   C82       1.0  0.41509  0.35168  0.34876  1.0000
  C   C83       1.0  0.38312  0.34678  0.32912  1.0000
  C   C84       1.0  0.37391  0.32207  0.33222  1.0000
  H   H40       1.0  0.42331  0.36890  0.34329  1.0000
  H   H41       1.0  0.35117  0.31733  0.32211  1.0000
  H   H42       1.0  0.43957  0.29572  0.39860  1.0000
  C   C85       1.0  0.03216  0.09180  0.35890  1.0000
  C   C86       1.0  0.50314  0.10388  0.36410  1.0000
  C   C87       1.0  0.47357  0.09264  0.35662  1.0000
  C   C88       1.0  0.47371  0.06714  0.35352  1.0000
  C   C89       1.0  0.00201  0.05354  0.34840  1.0000
  C   C90       1.0  0.03082  0.06655  0.34668  1.0000
  H   H43       1.0  0.45264  0.05847  0.35339  1.0000
  H   H44       1.0  0.05148  0.05747  0.34020  1.0000
  H   H45       1.0  0.50357  0.12216  0.37080  1.0000
  C   C91       1.0  0.47123  0.91217  0.35574  1.0000
  C   C92       1.0  0.00047  0.90029  0.35756  1.0000
  C   C93       1.0  0.02987  0.91188  0.35144  1.0000
  C   C94       1.0  0.02937  0.93736  0.35123  1.0000
  C   C95       1.0  0.50080  0.95054  0.34674  1.0000
  C   C96       1.0  0.47206  0.93752  0.34516  1.0000
  H   H46       1.0  0.05022  0.94636  0.34842  1.0000
  H   H47       1.0  0.45134  0.94671  0.34396  1.0000
  H   H48       1.0  0.00033  0.88195  0.36185  1.0000
  C   C97       1.0  0.28199  0.59141  0.36656  1.0000
  C   C98       1.0  0.25291  0.60326  0.37526  1.0000
  C   C99       1.0  0.22343  0.59201  0.36489  1.0000
  C   C100      1.0  0.22373  0.56660  0.35635  1.0000
  C   C101      1.0  0.25209  0.55316  0.34956  1.0000
  C   C102      1.0  0.28079  0.56631  0.35006  1.0000
  H   H49       1.0  0.20271  0.55789  0.35418  1.0000
  H   H50       1.0  0.30149  0.55740  0.34165  1.0000
  H   H51       1.0  0.25324  0.62143  0.38536  1.0000
  C   C103      1.0  0.22327  0.41149  0.31187  1.0000
  C   C104      1.0  0.25284  0.40035  0.30100  1.0000
  C   C105      1.0  0.28188  0.41241  0.30808  1.0000
  C   C106      1.0  0.28061  0.43749  0.32470  1.0000
  C   C107      1.0  0.25175  0.45030  0.32622  1.0000
  C   C108      1.0  0.22339  0.43693  0.31974  1.0000
  H   H52       1.0  0.30122  0.44676  0.32911  1.0000
  H   H53       1.0  0.20245  0.44570  0.32567  1.0000
  H   H54       1.0  0.25332  0.38215  0.29151  1.0000
  C   C109      1.0  0.23757  0.14915  0.33087  1.0000
  N   N19       1.0  0.26952  0.15013  0.33389  1.0000
  C   C110      1.0  0.28589  0.16932  0.30139  1.0000
  H   H55       1.0  0.22690  0.13520  0.36328  1.0000
  C   C111      1.0  0.26661  0.85449  0.33620  1.0000
  N   N20       1.0  0.23463  0.85395  0.33646  1.0000
  C   C112      1.0  0.21814  0.83504  0.30221  1.0000
  H   H56       1.0  0.27723  0.86826  0.36975  1.0000
  C   C113      1.0  0.48709  0.64728  0.32498  1.0000
  N   N21       1.0  0.01904  0.64812  0.32511  1.0000
  C   C114      1.0  0.03528  0.66653  0.28639  1.0000
  H   H57       1.0  0.47669  0.63413  0.36237  1.0000
  C   C115      1.0  0.01667  0.31968  0.43677  1.0000
  N   N22       1.0  0.48531  0.32019  0.43318  1.0000
  C   C116      1.0  0.46871  0.33735  0.38948  1.0000
  H   H58       1.0  0.02652  0.30574  0.47130  1.0000
  N   N23       1.0  0.05781  0.12869  0.39367  1.0000
  C   C117      1.0  0.08094  0.14500  0.39186  1.0000
  C   C118      1.0  0.11006  0.13961  0.35165  1.0000
  H   H59       1.0  0.07609  0.16128  0.42032  1.0000
  N   N24       1.0  0.44664  0.87515  0.39449  1.0000
  C   C119      1.0  0.42376  0.85860  0.39646  1.0000
  C   C120      1.0  0.39396  0.86347  0.35951  1.0000
  H   H60       1.0  0.42936  0.84263  0.42596  1.0000
  C   C121      1.0  0.39166  0.11674  0.35560  1.0000
  N   N25       1.0  0.41595  0.10062  0.35955  1.0000
  C   C122      1.0  0.44644  0.10751  0.35223  1.0000
  H   H61       1.0  0.36974  0.10999  0.36469  1.0000
  C   C123      1.0  0.11208  0.88844  0.35511  1.0000
  N   N26       1.0  0.08756  0.90438  0.35824  1.0000
  C   C124      1.0  0.05728  0.89735  0.34631  1.0000
  H   H62       1.0  0.13382  0.89511  0.36800  1.0000
  N   N27       1.0  0.30786  0.62820  0.40398  1.0000
  C   C125      1.0  0.33113  0.64446  0.40291  1.0000
  C   C126      1.0  0.36012  0.63928  0.36146  1.0000
  H   H63       1.0  0.32644  0.66052  0.43312  1.0000
  N   N28       1.0  0.20043  0.37260  0.32444  1.0000
  C   C127      1.0  0.17764  0.35607  0.33000  1.0000
  C   C128      1.0  0.14564  0.36264  0.32689  1.0000
  H   H64       1.0  0.18525  0.33896  0.34089  1.0000
  C   C129      1.0  0.14115  0.61521  0.35489  1.0000
  N   N29       1.0  0.16570  0.59935  0.36006  1.0000
  C   C130      1.0  0.19611  0.60670  0.36157  1.0000
  H   H65       1.0  0.11927  0.60797  0.35548  1.0000
  C   C131      1.0  0.36327  0.38981  0.33858  1.0000
  N   N30       1.0  0.33832  0.40526  0.33552  1.0000
  C   C132      1.0  0.30984  0.39855  0.30309  1.0000
  H   H66       1.0  0.38295  0.39588  0.36984  1.0000
  C   C133      1.0  0.10895  0.23530  0.37861  1.0000
  N   N31       1.0  0.10115  0.25900  0.38098  1.0000
  C   C134      1.0  0.11594  0.27606  0.33098  1.0000
  H   H67       1.0  0.09728  0.22380  0.42025  1.0000
  C   C135      1.0  0.35178  0.75746  0.38650  1.0000
  N   N32       1.0  0.36061  0.73397  0.38205  1.0000
  C   C136      1.0  0.38632  0.72655  0.33610  1.0000
  H   H68       1.0  0.33231  0.76160  0.42292  1.0000
  N   N33       1.0  0.39794  0.26166  0.40902  1.0000
  C   C137      1.0  0.39056  0.23789  0.40436  1.0000
  C   C138      1.0  0.36856  0.22938  0.34107  1.0000
  H   H69       1.0  0.40098  0.22647  0.44889  1.0000
  N   N34       1.0  0.14308  0.73468  0.37062  1.0000
  C   C139      1.0  0.15201  0.75812  0.37440  1.0000
  C   C140      1.0  0.13378  0.77631  0.33339  1.0000
  H   H70       1.0  0.17218  0.76224  0.40764  1.0000
  N   N35       1.0  0.02476  0.98894  0.38377  1.0000
  C   C141      1.0  0.02573  0.01341  0.38537  1.0000
  C   C142      1.0  0.00171  0.02748  0.34600  1.0000
  H   H71       1.0  0.04401  0.02126  0.41817  1.0000
  N   N36       1.0  0.27515  0.48821  0.37381  1.0000
  C   C143      1.0  0.27596  0.51264  0.37985  1.0000
  C   C144      1.0  0.25187  0.52713  0.34301  1.0000
  H   H72       1.0  0.29430  0.52014  0.41350  1.0000
  N   N37       1.0  0.76921  0.18671  0.25939  1.0000
  C   C145      1.0  0.73795  0.18672  0.25359  1.0000
  C   C146      1.0  0.71991  0.16898  0.29807  1.0000
  H   H73       1.0  0.72811  0.20074  0.21947  1.0000
  N   N38       1.0  0.73492  0.81741  0.26185  1.0000
  C   C147      1.0  0.76623  0.81691  0.25899  1.0000
  C   C148      1.0  0.78418  0.83443  0.30480  1.0000
  H   H74       1.0  0.77610  0.80276  0.22569  1.0000
  N   N39       1.0  0.51829  0.68336  0.24209  1.0000
  C   C149      1.0  0.98694  0.68353  0.23924  1.0000
  C   C150      1.0  0.96933  0.66674  0.28971  1.0000
  H   H75       1.0  0.97673  0.69719  0.20401  1.0000
  N   N40       1.0  0.98544  0.35569  0.35195  1.0000
  C   C151      1.0  0.51742  0.35620  0.35267  1.0000
  C   C152      1.0  0.53476  0.33653  0.38794  1.0000
  H   H76       1.0  0.52823  0.36938  0.31642  1.0000
  C   C153      1.0  0.61345  0.11489  0.32753  1.0000
  N   N41       1.0  0.58877  0.09916  0.33140  1.0000
  C   C154      1.0  0.56000  0.10584  0.36192  1.0000
  H   H77       1.0  0.63353  0.10879  0.29860  1.0000
  C   C155      1.0  0.89006  0.88803  0.33332  1.0000
  N   N42       1.0  0.91446  0.90405  0.33365  1.0000
  C   C156      1.0  0.94370  0.89782  0.36155  1.0000
  H   H78       1.0  0.86957  0.89390  0.30618  1.0000
  N   N43       1.0  0.95098  0.13129  0.33615  1.0000
  C   C157      1.0  0.92847  0.14802  0.33119  1.0000
  C   C158      1.0  0.89662  0.14202  0.34425  1.0000
  H   H79       1.0  0.93600  0.16477  0.31393  1.0000
  N   N44       1.0  0.55319  0.87376  0.32599  1.0000
  C   C159      1.0  0.57595  0.85725  0.32165  1.0000
  C   C160      1.0  0.60743  0.86328  0.34071  1.0000
  H   H80       1.0  0.56904  0.84059  0.30104  1.0000
  C   C161      1.0  0.86299  0.61475  0.33387  1.0000
  N   N45       1.0  0.83828  0.59908  0.33727  1.0000
  C   C162      1.0  0.80976  0.60555  0.37007  1.0000
  H   H81       1.0  0.88276  0.60872  0.30308  1.0000
  C   C163      1.0  0.64109  0.38811  0.32235  1.0000
  N   N46       1.0  0.66561  0.40398  0.31716  1.0000
  C   C164      1.0  0.69606  0.39669  0.31624  1.0000
  H   H82       1.0  0.61918  0.39528  0.32029  1.0000
  N   N47       1.0  0.70041  0.63079  0.35415  1.0000
  C   C165      1.0  0.67766  0.64730  0.34848  1.0000
  C   C166      1.0  0.64564  0.64069  0.35031  1.0000
  H   H83       1.0  0.68540  0.66438  0.33810  1.0000
  N   N48       1.0  0.80814  0.37594  0.26881  1.0000
  C   C167      1.0  0.83167  0.35989  0.26956  1.0000
  C   C168      1.0  0.86052  0.36527  0.31153  1.0000
  H   H84       1.0  0.82722  0.34374  0.23975  1.0000
  N   N49       1.0  0.63952  0.26856  0.27678  1.0000
  C   C169      1.0  0.64839  0.24512  0.27118  1.0000
  C   C170      1.0  0.63356  0.22707  0.32325  1.0000
  H   H85       1.0  0.66608  0.24093  0.22801  1.0000
  N   N50       1.0  0.90343  0.74389  0.29400  1.0000
  C   C171      1.0  0.89593  0.76765  0.29584  1.0000
  C   C172      1.0  0.86918  0.77571  0.34259  1.0000
  H   H86       1.0  0.90956  0.77937  0.26036  1.0000
  C   C173      1.0  0.85533  0.24733  0.28514  1.0000
  N   N51       1.0  0.86361  0.27083  0.29336  1.0000
  C   C174      1.0  0.88469  0.27857  0.35502  1.0000
  H   H87       1.0  0.83979  0.24296  0.23588  1.0000
  C   C175      1.0  0.60616  0.76841  0.29069  1.0000
  N   N52       1.0  0.59871  0.74465  0.28920  1.0000
  C   C176      1.0  0.61659  0.72728  0.32839  1.0000
  H   H88       1.0  0.59192  0.78022  0.25768  1.0000
  C   C177      1.0  0.47727  0.01388  0.30643  1.0000
  N   N53       1.0  0.47758  0.98936  0.30740  1.0000
  C   C178      1.0  0.50107  0.97633  0.34522  1.0000
  H   H89       1.0  0.45905  0.02216  0.27482  1.0000
  C   C179      1.0  0.72742  0.51396  0.30153  1.0000
  N   N54       1.0  0.72789  0.48946  0.29801  1.0000
  C   C180      1.0  0.75141  0.47601  0.33361  1.0000
  H   H90       1.0  0.70919  0.52255  0.27117  1.0000
  C   C181      1.0  0.64371  0.20235  0.32288  1.0000
  C   C182      1.0  0.67553  0.19656  0.31446  1.0000
  C   C183      1.0  0.68715  0.17258  0.31064  1.0000
  C   C184      1.0  0.66514  0.15378  0.32492  1.0000
  C   C185      1.0  0.63267  0.15827  0.33766  1.0000
  C   C186      1.0  0.62294  0.18284  0.33282  1.0000
  H   H91       1.0  0.67302  0.13643  0.32580  1.0000
  H   H92       1.0  0.59972  0.18696  0.33166  1.0000
  H   H93       1.0  0.69089  0.21063  0.31666  1.0000
  C   C187      1.0  0.85941  0.80050  0.34121  1.0000
  C   C188      1.0  0.82790  0.80640  0.32683  1.0000
  C   C189      1.0  0.81669  0.83046  0.32055  1.0000
  C   C190      1.0  0.83883  0.84916  0.33495  1.0000
  C   C191      1.0  0.87122  0.84463  0.34959  1.0000
  C   C192      1.0  0.88047  0.81988  0.35018  1.0000
  H   H94       1.0  0.83112  0.86653  0.33273  1.0000
  H   H95       1.0  0.90345  0.81533  0.35512  1.0000
  H   H96       1.0  0.81258  0.79235  0.32288  1.0000
  C   C193      1.0  0.85968  0.20439  0.33500  1.0000
  C   C194      1.0  0.82868  0.19788  0.31585  1.0000
  C   C195      1.0  0.81818  0.17362  0.31511  1.0000
  C   C196      1.0  0.84048  0.15523  0.33150  1.0000
  C   C197      1.0  0.87293  0.16037  0.34165  1.0000
  C   C198      1.0  0.88100  0.18532  0.34804  1.0000
  H   H97       1.0  0.83308  0.13778  0.32705  1.0000
  H   H98       1.0  0.90321  0.19026  0.36375  1.0000
  H   H99       1.0  0.81270  0.21152  0.31088  1.0000
  C   C199      1.0  0.64345  0.80100  0.33119  1.0000
  C   C200      1.0  0.67448  0.80709  0.31107  1.0000
  C   C201      1.0  0.68564  0.83118  0.31367  1.0000
  C   C202      1.0  0.66366  0.84978  0.33118  1.0000
  C   C203      1.0  0.63106  0.84494  0.33961  1.0000
  C   C204      1.0  0.62248  0.82013  0.34557  1.0000
  H   H100      1.0  0.67134  0.86718  0.32825  1.0000
  H   H101      1.0  0.60042  0.81539  0.36448  1.0000
  H   H102      1.0  0.68962  0.79316  0.29942  1.0000
  C   C205      1.0  0.89541  0.70172  0.33277  1.0000
  C   C206      1.0  0.92638  0.69533  0.31234  1.0000
  C   C207      1.0  0.93707  0.67112  0.30782  1.0000
  C   C208      1.0  0.91495  0.65280  0.32785  1.0000
  C   C209      1.0  0.88302  0.65782  0.34761  1.0000
  C   C210      1.0  0.87434  0.68268  0.34915  1.0000
  H   H103      1.0  0.92235  0.63534  0.32634  1.0000
  H   H104      1.0  0.85151  0.68748  0.35657  1.0000
  H   H105      1.0  0.94212  0.70910  0.30730  1.0000
  C   C211      1.0  0.60736  0.30089  0.33749  1.0000
  C   C212      1.0  0.57698  0.30751  0.36294  1.0000
  C   C213      1.0  0.56692  0.33185  0.36925  1.0000
  C   C214      1.0  0.58958  0.35000  0.35134  1.0000
  C   C215      1.0  0.62152  0.34463  0.33233  1.0000
  C   C216      1.0  0.62868  0.31968  0.32064  1.0000
  H   H106      1.0  0.58299  0.36750  0.36011  1.0000
  H   H107      1.0  0.65013  0.31451  0.29842  1.0000
  H   H108      1.0  0.56105  0.29386  0.36802  1.0000
  C   C217      1.0  0.60797  0.70234  0.32447  1.0000
  C   C218      1.0  0.57800  0.69533  0.29626  1.0000
  C   C219      1.0  0.56750  0.67109  0.30056  1.0000
  C   C220      1.0  0.58955  0.65313  0.32497  1.0000
  C   C221      1.0  0.62156  0.65865  0.34195  1.0000
  C   C222      1.0  0.62877  0.68372  0.34843  1.0000
  H   H109      1.0  0.58230  0.63562  0.32357  1.0000
  H   H110      1.0  0.64990  0.68909  0.37214  1.0000
  H   H111      1.0  0.56244  0.70875  0.28172  1.0000
  C   C223      1.0  0.89409  0.30324  0.35797  1.0000
  C   C224      1.0  0.92465  0.30952  0.38324  1.0000
  C   C225      1.0  0.93628  0.33342  0.37614  1.0000
  C   C226      1.0  0.91509  0.35168  0.34876  1.0000
  C   C227      1.0  0.88313  0.34678  0.32912  1.0000
  C   C228      1.0  0.87391  0.32207  0.33222  1.0000
  H   H112      1.0  0.92331  0.36890  0.34329  1.0000
  H   H113      1.0  0.85117  0.31733  0.32211  1.0000
  H   H114      1.0  0.93958  0.29572  0.39860  1.0000
  C   C229      1.0  0.53216  0.09180  0.35890  1.0000
  C   C230      1.0  0.00314  0.10388  0.36410  1.0000
  C   C231      1.0  0.97357  0.09264  0.35662  1.0000
  C   C232      1.0  0.97371  0.06714  0.35352  1.0000
  C   C233      1.0  0.50201  0.05354  0.34840  1.0000
  C   C234      1.0  0.53082  0.06655  0.34668  1.0000
  H   H115      1.0  0.95264  0.05847  0.35339  1.0000
  H   H116      1.0  0.55148  0.05747  0.34020  1.0000
  H   H117      1.0  0.00357  0.12216  0.37080  1.0000
  C   C235      1.0  0.97123  0.91217  0.35574  1.0000
  C   C236      1.0  0.50047  0.90029  0.35756  1.0000
  C   C237      1.0  0.52987  0.91188  0.35144  1.0000
  C   C238      1.0  0.52937  0.93736  0.35123  1.0000
  C   C239      1.0  0.00080  0.95054  0.34674  1.0000
  C   C240      1.0  0.97206  0.93752  0.34516  1.0000
  H   H118      1.0  0.55022  0.94636  0.34842  1.0000
  H   H119      1.0  0.95134  0.94671  0.34396  1.0000
  H   H120      1.0  0.50033  0.88195  0.36185  1.0000
  C   C241      1.0  0.78199  0.59141  0.36656  1.0000
  C   C242      1.0  0.75291  0.60326  0.37526  1.0000
  C   C243      1.0  0.72343  0.59201  0.36489  1.0000
  C   C244      1.0  0.72373  0.56660  0.35635  1.0000
  C   C245      1.0  0.75209  0.55316  0.34956  1.0000
  C   C246      1.0  0.78079  0.56631  0.35006  1.0000
  H   H121      1.0  0.70271  0.55789  0.35418  1.0000
  H   H122      1.0  0.80149  0.55740  0.34165  1.0000
  H   H123      1.0  0.75325  0.62143  0.38536  1.0000
  C   C247      1.0  0.72327  0.41149  0.31187  1.0000
  C   C248      1.0  0.75284  0.40035  0.30100  1.0000
  C   C249      1.0  0.78188  0.41241  0.30808  1.0000
  C   C250      1.0  0.78061  0.43749  0.32470  1.0000
  C   C251      1.0  0.75175  0.45030  0.32622  1.0000
  C   C252      1.0  0.72338  0.43693  0.31974  1.0000
  H   H124      1.0  0.80122  0.44676  0.32911  1.0000
  H   H125      1.0  0.70245  0.44570  0.32567  1.0000
  H   H126      1.0  0.75332  0.38215  0.29151  1.0000
  C   C253      1.0  0.73757  0.14915  0.33087  1.0000
  N   N55       1.0  0.76952  0.15013  0.33389  1.0000
  C   C254      1.0  0.78590  0.16932  0.30139  1.0000
  H   H127      1.0  0.72691  0.13520  0.36328  1.0000
  C   C255      1.0  0.76661  0.85449  0.33620  1.0000
  N   N56       1.0  0.73463  0.85395  0.33646  1.0000
  C   C256      1.0  0.71814  0.83504  0.30221  1.0000
  H   H128      1.0  0.77723  0.86826  0.36975  1.0000
  C   C257      1.0  0.98708  0.64728  0.32498  1.0000
  N   N57       1.0  0.51904  0.64812  0.32511  1.0000
  C   C258      1.0  0.53528  0.66653  0.28639  1.0000
  H   H129      1.0  0.97669  0.63413  0.36237  1.0000
  C   C259      1.0  0.51667  0.31968  0.43677  1.0000
  N   N58       1.0  0.98532  0.32019  0.43318  1.0000
  C   C260      1.0  0.96871  0.33735  0.38948  1.0000
  H   H130      1.0  0.52653  0.30574  0.47130  1.0000
  N   N59       1.0  0.55781  0.12869  0.39367  1.0000
  C   C261      1.0  0.58094  0.14500  0.39186  1.0000
  C   C262      1.0  0.61006  0.13961  0.35165  1.0000
  H   H131      1.0  0.57609  0.16128  0.42032  1.0000
  N   N60       1.0  0.94664  0.87515  0.39449  1.0000
  C   C263      1.0  0.92376  0.85860  0.39646  1.0000
  C   C264      1.0  0.89395  0.86347  0.35951  1.0000
  H   H132      1.0  0.92936  0.84263  0.42596  1.0000
  C   C265      1.0  0.89166  0.11674  0.35560  1.0000
  N   N61       1.0  0.91595  0.10062  0.35955  1.0000
  C   C266      1.0  0.94644  0.10751  0.35223  1.0000
  H   H133      1.0  0.86974  0.10999  0.36469  1.0000
  C   C267      1.0  0.61208  0.88844  0.35511  1.0000
  N   N62       1.0  0.58756  0.90438  0.35824  1.0000
  C   C268      1.0  0.55728  0.89735  0.34631  1.0000
  H   H134      1.0  0.63382  0.89511  0.36800  1.0000
  N   N63       1.0  0.80786  0.62820  0.40398  1.0000
  C   C269      1.0  0.83113  0.64446  0.40291  1.0000
  C   C270      1.0  0.86012  0.63928  0.36146  1.0000
  H   H135      1.0  0.82644  0.66052  0.43312  1.0000
  N   N64       1.0  0.70043  0.37260  0.32444  1.0000
  C   C271      1.0  0.67764  0.35607  0.33000  1.0000
  C   C272      1.0  0.64563  0.36264  0.32689  1.0000
  H   H136      1.0  0.68525  0.33896  0.34089  1.0000
  C   C273      1.0  0.64115  0.61521  0.35489  1.0000
  N   N65       1.0  0.66570  0.59935  0.36006  1.0000
  C   C274      1.0  0.69611  0.60670  0.36157  1.0000
  H   H137      1.0  0.61928  0.60797  0.35548  1.0000
  C   C275      1.0  0.86327  0.38981  0.33858  1.0000
  N   N66       1.0  0.83832  0.40526  0.33552  1.0000
  C   C276      1.0  0.80984  0.39855  0.30309  1.0000
  H   H138      1.0  0.88295  0.39588  0.36984  1.0000
  C   C277      1.0  0.60894  0.23530  0.37861  1.0000
  N   N67       1.0  0.60115  0.25900  0.38098  1.0000
  C   C278      1.0  0.61594  0.27606  0.33098  1.0000
  H   H139      1.0  0.59728  0.22380  0.42025  1.0000
  C   C279      1.0  0.85178  0.75746  0.38650  1.0000
  N   N68       1.0  0.86061  0.73397  0.38205  1.0000
  C   C280      1.0  0.88632  0.72655  0.33610  1.0000
  H   H140      1.0  0.83231  0.76160  0.42292  1.0000
  N   N69       1.0  0.89794  0.26166  0.40902  1.0000
  C   C281      1.0  0.89056  0.23789  0.40436  1.0000
  C   C282      1.0  0.86856  0.22938  0.34107  1.0000
  H   H141      1.0  0.90097  0.22647  0.44889  1.0000
  N   N70       1.0  0.64308  0.73468  0.37062  1.0000
  C   C283      1.0  0.65201  0.75812  0.37440  1.0000
  C   C284      1.0  0.63378  0.77631  0.33339  1.0000
  H   H142      1.0  0.67218  0.76224  0.40764  1.0000
  N   N71       1.0  0.52476  0.98894  0.38377  1.0000
  C   C285      1.0  0.52573  0.01341  0.38537  1.0000
  C   C286      1.0  0.50171  0.02748  0.34600  1.0000
  H   H143      1.0  0.54401  0.02126  0.41817  1.0000
  N   N72       1.0  0.77515  0.48821  0.37381  1.0000
  C   C287      1.0  0.77596  0.51264  0.37985  1.0000
  C   C288      1.0  0.75187  0.52713  0.34301  1.0000
  H   H144      1.0  0.79430  0.52014  0.41350  1.0000
