data_image0
_chemical_formula_structural       C4HCH3C4HCH3N12C4HCH3C4HCH3N4C4HCH3C4HCH3N8C4HCH3C4HCH3N4C4HCH3C4HCH3N8C4HCH3C4HCH3CNCNCNCNCNCNCNCNCNCNCNCNCNCNCNCNCNCNCNCNCNCNCNCNCNCNCNCNCNCNCNCNCNCNCNCNCNCNCNCNCNCNCNCNCNCNCNCNCNCNCNCNCNCNCNCNCNCNCNCN5C4HCH3C4HCH3C4HCH3C4HCH3C4HCH3C4HCH3N4C4HCH3C4HCH3N4C4HCH3C4HCH3C4HCH3C4HCH3N4C4HCH3C4HCH3N4C4HCH3C4HCH3C4HCH3C4HCH3N4C4HCH3C4HCH3N12C4HCH3C4HCH3N4C4HCH3C4HCH3N8C4HCH3C4HCH3N4C4HCH3C4HCH3N8C4HCH3C4HCH3CNCNCNCNCNCNCNCNCNCNCNCNCNCNCNCNCNCNCNCNCNCNCNCNCNCNCNCNCNCNCNCNCNCNCNCNCNCNCNCNCNCNCNCNCNCNCNCNCNCNCNCNCNCNCNCNCNCNCNCN5C4HCH3C4HCH3C4HCH3C4HCH3C4HCH3C4HCH3N4C4HCH3C4HCH3N4C4HCH3C4HCH3C4HCH3C4HCH3N4C4HCH3C4HCH3N4C4HCH3C4HCH3C4HCH3C4HCH3N4
_chemical_formula_sum              "C420 H240 N240"
_cell_length_a       83.4075
_cell_length_b       43.9348
_cell_length_c       14.8411
_cell_angle_alpha    90
_cell_angle_beta     90
_cell_angle_gamma    90

_space_group_name_H-M_alt    "P 1"
_space_group_IT_number       1

loop_
  _space_group_symop_operation_xyz
  'x, y, z'

loop_
  _atom_site_type_symbol
  _atom_site_label
  _atom_site_symmetry_multiplicity
  _atom_site_fract_x
  _atom_site_fract_y
  _atom_site_fract_z
  _atom_site_occupancy
  C   C1        1.0  0.23797  0.13854  0.31373  1.0000
  C   C2        1.0  0.24233  0.11503  0.25397  1.0000
  C   C3        1.0  0.25868  0.10712  0.24234  1.0000
  C   C4        1.0  0.27049  0.12367  0.29173  1.0000
  H   H1        1.0  0.23359  0.10369  0.21912  1.0000
  C   C5        1.0  0.26308  0.08270  0.17742  1.0000
  H   H2        1.0  0.25283  0.07502  0.13761  1.0000
  H   H3        1.0  0.26783  0.06298  0.21312  1.0000
  H   H4        1.0  0.27215  0.09113  0.13068  1.0000
  C   C6        1.0  0.77217  0.36956  0.31228  1.0000
  C   C7        1.0  0.76778  0.39316  0.25293  1.0000
  C   C8        1.0  0.75143  0.40112  0.24183  1.0000
  C   C9        1.0  0.73965  0.38456  0.29155  1.0000
  H   H5        1.0  0.77650  0.40457  0.21810  1.0000
  C   C10       1.0  0.74702  0.42568  0.17735  1.0000
  H   H6        1.0  0.75722  0.43323  0.13701  1.0000
  H   H7        1.0  0.74242  0.44543  0.21348  1.0000
  H   H8        1.0  0.73782  0.41743  0.13105  1.0000
  N   N1        1.0  0.75213  0.10516  0.38105  1.0000
  N   N2        1.0  0.76717  0.11386  0.38591  1.0000
  N   N3        1.0  0.25932  0.40336  0.38060  1.0000
  N   N4        1.0  0.24428  0.39471  0.38508  1.0000
  N   N5        1.0  0.29136  0.49329  0.36947  1.0000
  N   N6        1.0  0.29088  0.02262  0.35705  1.0000
  N   N7        1.0  0.71966  0.01511  0.36967  1.0000
  N   N8        1.0  0.71991  0.48577  0.35726  1.0000
  N   N9        1.0  0.81585  0.24090  0.39273  1.0000
  N   N10       1.0  0.81645  0.27023  0.37874  1.0000
  N   N11       1.0  0.19515  0.26803  0.39296  1.0000
  N   N12       1.0  0.19431  0.23868  0.37975  1.0000
  C   C11       1.0  0.36212  0.15062  0.30788  1.0000
  C   C12       1.0  0.35708  0.13008  0.24057  1.0000
  C   C13       1.0  0.34085  0.12102  0.23449  1.0000
  C   C14       1.0  0.32976  0.13321  0.29794  1.0000
  H   H9        1.0  0.36535  0.12120  0.19687  1.0000
  C   C15       1.0  0.33592  0.09901  0.16338  1.0000
  H   H10       1.0  0.34556  0.09421  0.11567  1.0000
  H   H11       1.0  0.32584  0.10829  0.12537  1.0000
  H   H12       1.0  0.33232  0.07746  0.19368  1.0000
  C   C16       1.0  0.64799  0.35798  0.30870  1.0000
  C   C17       1.0  0.65292  0.37910  0.24264  1.0000
  C   C18       1.0  0.66912  0.38842  0.23675  1.0000
  C   C19       1.0  0.68029  0.37592  0.29920  1.0000
  H   H13       1.0  0.64460  0.38816  0.19965  1.0000
  C   C20       1.0  0.67391  0.41091  0.16666  1.0000
  H   H14       1.0  0.66423  0.41581  0.11931  1.0000
  H   H15       1.0  0.68402  0.40202  0.12805  1.0000
  H   H16       1.0  0.67742  0.43235  0.19796  1.0000
  N   N13       1.0  0.66748  0.10813  0.37661  1.0000
  N   N14       1.0  0.65265  0.11712  0.37097  1.0000
  N   N15       1.0  0.34405  0.40054  0.38091  1.0000
  N   N16       1.0  0.35889  0.39145  0.37594  1.0000
  C   C21       1.0  0.86298  0.39757  0.28784  1.0000
  C   C22       1.0  0.85819  0.37418  0.22842  1.0000
  C   C23       1.0  0.84224  0.36328  0.22878  1.0000
  C   C24       1.0  0.83117  0.37701  0.28925  1.0000
  H   H17       1.0  0.86650  0.36429  0.18699  1.0000
  C   C25       1.0  0.83757  0.33795  0.16761  1.0000
  H   H18       1.0  0.84716  0.33173  0.12105  1.0000
  H   H19       1.0  0.82719  0.34472  0.12757  1.0000
  H   H20       1.0  0.83451  0.31774  0.20662  1.0000
  C   C26       1.0  0.14711  0.11111  0.28965  1.0000
  C   C27       1.0  0.15181  0.13495  0.23154  1.0000
  C   C28       1.0  0.16774  0.14597  0.23204  1.0000
  C   C29       1.0  0.17888  0.13196  0.29153  1.0000
  H   H21       1.0  0.14346  0.14496  0.19062  1.0000
  C   C30       1.0  0.17232  0.17159  0.17176  1.0000
  H   H22       1.0  0.16269  0.17792  0.12557  1.0000
  H   H23       1.0  0.18271  0.16509  0.13133  1.0000
  H   H24       1.0  0.17535  0.19167  0.21148  1.0000
  N   N17       1.0  0.16754  0.35888  0.37436  1.0000
  N   N18       1.0  0.15281  0.36816  0.36512  1.0000
  N   N19       1.0  0.84403  0.14979  0.37926  1.0000
  N   N20       1.0  0.85877  0.14039  0.37072  1.0000
  N   N21       1.0  0.07800  0.14849  0.32523  1.0000
  N   N22       1.0  0.06847  0.17262  0.32586  1.0000
  N   N23       1.0  0.93176  0.35903  0.32594  1.0000
  N   N24       1.0  0.94130  0.33498  0.32733  1.0000
  C   C31       1.0  0.93710  0.19715  0.32233  1.0000
  C   C32       1.0  0.92058  0.19954  0.30206  1.0000
  C   C33       1.0  0.91020  0.17416  0.30034  1.0000
  C   C34       1.0  0.91644  0.14484  0.32483  1.0000
  H   H25       1.0  0.91590  0.22035  0.28585  1.0000
  C   C35       1.0  0.89350  0.18021  0.26804  1.0000
  H   H26       1.0  0.89217  0.20223  0.23466  1.0000
  H   H27       1.0  0.88522  0.18007  0.32490  1.0000
  H   H28       1.0  0.88994  0.16302  0.21888  1.0000
  C   C36       1.0  0.07457  0.31041  0.31856  1.0000
  C   C37       1.0  0.09115  0.30751  0.30156  1.0000
  C   C38       1.0  0.10160  0.33281  0.29971  1.0000
  C   C39       1.0  0.09530  0.36242  0.32076  1.0000
  H   H29       1.0  0.09579  0.28642  0.28816  1.0000
  C   C40       1.0  0.11849  0.32626  0.27170  1.0000
  H   H30       1.0  0.12005  0.30368  0.24214  1.0000
  H   H31       1.0  0.12640  0.32747  0.33005  1.0000
  H   H32       1.0  0.12234  0.34258  0.22064  1.0000
  N   N25       1.0  0.57860  0.39664  0.33806  1.0000
  N   N26       1.0  0.56891  0.42058  0.33803  1.0000
  N   N27       1.0  0.43121  0.11096  0.33920  1.0000
  N   N28       1.0  0.44088  0.08707  0.33996  1.0000
  C   C41       1.0  0.43701  0.44914  0.33305  1.0000
  C   C42       1.0  0.42050  0.45132  0.31243  1.0000
  C   C43       1.0  0.41022  0.42579  0.31091  1.0000
  C   C44       1.0  0.41656  0.39658  0.33596  1.0000
  H   H33       1.0  0.41577  0.47207  0.29597  1.0000
  C   C45       1.0  0.39350  0.43163  0.27852  1.0000
  H   H34       1.0  0.39211  0.45358  0.24480  1.0000
  H   H35       1.0  0.38523  0.43151  0.33540  1.0000
  H   H36       1.0  0.38999  0.41432  0.22963  1.0000
  C   C46       1.0  0.57463  0.05849  0.32923  1.0000
  C   C47       1.0  0.59120  0.05579  0.31209  1.0000
  C   C48       1.0  0.60157  0.08123  0.31065  1.0000
  C   C49       1.0  0.59516  0.11073  0.33222  1.0000
  H   H37       1.0  0.59589  0.03476  0.29841  1.0000
  C   C50       1.0  0.61847  0.07487  0.28270  1.0000
  H   H38       1.0  0.62011  0.05235  0.25290  1.0000
  H   H39       1.0  0.62637  0.07608  0.34113  1.0000
  H   H40       1.0  0.62229  0.09129  0.23185  1.0000
  N   N29       1.0  0.09602  0.02068  0.33682  1.0000
  N   N30       1.0  0.09619  0.49048  0.33912  1.0000
  N   N31       1.0  0.91463  0.48665  0.33863  1.0000
  N   N32       1.0  0.91467  0.01684  0.34194  1.0000
  N   N33       1.0  0.59614  0.26945  0.35190  1.0000
  N   N34       1.0  0.59612  0.23923  0.35324  1.0000
  N   N35       1.0  0.41448  0.23793  0.35404  1.0000
  N   N36       1.0  0.41471  0.26814  0.35623  1.0000
  C   C51       1.0  0.98828  0.25528  0.32583  1.0000
  C   C52       1.0  0.99605  0.28166  0.29326  1.0000
  C   C53       1.0  0.01299  0.28373  0.28905  1.0000
  C   C54       1.0  0.02225  0.25859  0.32101  1.0000
  H   H41       1.0  0.98927  0.29944  0.27010  1.0000
  C   C55       1.0  0.02010  0.31149  0.24739  1.0000
  H   H42       1.0  0.01112  0.32659  0.21791  1.0000
  H   H43       1.0  0.02830  0.30499  0.19341  1.0000
  H   H44       1.0  0.02656  0.32456  0.29819  1.0000
  C   C56       1.0  0.48822  0.00631  0.33856  1.0000
  C   C57       1.0  0.49635  0.03219  0.30555  1.0000
  C   C58       1.0  0.51331  0.03324  0.30039  1.0000
  C   C59       1.0  0.52228  0.00763  0.33220  1.0000
  H   H45       1.0  0.48980  0.05030  0.28259  1.0000
  C   C60       1.0  0.52074  0.06052  0.25765  1.0000
  H   H46       1.0  0.51194  0.07588  0.22768  1.0000
  H   H47       1.0  0.52885  0.55346  0.20380  1.0000
  H   H48       1.0  0.52738  0.07353  0.30789  1.0000
  C   C61       1.0  0.31477  0.11912  0.31462  1.0000
  N   N37       1.0  0.30000  0.13126  0.29638  1.0000
  C   C62       1.0  0.28647  0.11374  0.30438  1.0000
  N   N38       1.0  0.28805  0.08461  0.33276  1.0000
  C   C63       1.0  0.30242  0.07217  0.35263  1.0000
  N   N39       1.0  0.31562  0.08972  0.34217  1.0000
  C   C64       1.0  0.69537  0.38982  0.31530  1.0000
  N   N40       1.0  0.71008  0.37739  0.29687  1.0000
  C   C65       1.0  0.72371  0.39464  0.30458  1.0000
  N   N41       1.0  0.72229  0.42378  0.33313  1.0000
  C   C66       1.0  0.70801  0.43651  0.35333  1.0000
  N   N42       1.0  0.69471  0.41923  0.34305  1.0000
  C   C67       1.0  0.69542  0.11120  0.40150  1.0000
  N   N43       1.0  0.71024  0.12427  0.40853  1.0000
  C   C68       1.0  0.72401  0.10731  0.41228  1.0000
  N   N44       1.0  0.72264  0.07650  0.40980  1.0000
  C   C69       1.0  0.70818  0.06245  0.40541  1.0000
  N   N45       1.0  0.69507  0.08034  0.40019  1.0000
  C   C70       1.0  0.31601  0.39755  0.40358  1.0000
  N   N46       1.0  0.30120  0.38442  0.41041  1.0000
  C   C71       1.0  0.28739  0.40129  0.41301  1.0000
  N   N47       1.0  0.28873  0.43208  0.40958  1.0000
  C   C72       1.0  0.30316  0.44623  0.40522  1.0000
  N   N48       1.0  0.31632  0.42841  0.40121  1.0000
  C   C73       1.0  0.81660  0.36288  0.31378  1.0000
  N   N49       1.0  0.80173  0.37520  0.30073  1.0000
  C   C74       1.0  0.78821  0.35991  0.32714  1.0000
  N   N50       1.0  0.79015  0.33243  0.36711  1.0000
  C   C75       1.0  0.80469  0.31973  0.38169  1.0000
  N   N51       1.0  0.81781  0.33503  0.35303  1.0000
  C   C76       1.0  0.19354  0.14587  0.31588  1.0000
  N   N52       1.0  0.20835  0.13326  0.30273  1.0000
  C   C77       1.0  0.22196  0.14833  0.32882  1.0000
  N   N53       1.0  0.22018  0.17589  0.36847  1.0000
  C   C78       1.0  0.20572  0.18888  0.38316  1.0000
  N   N54       1.0  0.19251  0.17381  0.35484  1.0000
  C   C79       1.0  0.19523  0.36184  0.40747  1.0000
  N   N55       1.0  0.21003  0.37533  0.41255  1.0000
  C   C80       1.0  0.22357  0.35883  0.43030  1.0000
  N   N56       1.0  0.22183  0.32839  0.44122  1.0000
  C   C81       1.0  0.20761  0.31385  0.43759  1.0000
  N   N57       1.0  0.19457  0.33108  0.41919  1.0000
  C   C82       1.0  0.81620  0.14695  0.40983  1.0000
  N   N58       1.0  0.80140  0.13344  0.41432  1.0000
  C   C83       1.0  0.78781  0.14990  0.43125  1.0000
  N   N59       1.0  0.78951  0.18035  0.44191  1.0000
  C   C84       1.0  0.80373  0.19493  0.43893  1.0000
  N   N60       1.0  0.81683  0.17774  0.42122  1.0000
  C   C85       1.0  0.10372  0.12209  0.31990  1.0000
  N   N61       1.0  0.09898  0.09278  0.34090  1.0000
  C   C86       1.0  0.10996  0.06935  0.34903  1.0000
  N   N62       1.0  0.12563  0.07590  0.33049  1.0000
  C   C87       1.0  0.13075  0.10338  0.30238  1.0000
  N   N63       1.0  0.11950  0.12535  0.30004  1.0000
  C   C88       1.0  0.90622  0.38547  0.31843  1.0000
  N   N64       1.0  0.91113  0.41459  0.34051  1.0000
  C   C89       1.0  0.90032  0.43827  0.34919  1.0000
  N   N65       1.0  0.88462  0.43215  0.33012  1.0000
  C   C90       1.0  0.87936  0.40486  0.30124  1.0000
  N   N66       1.0  0.89043  0.38259  0.29839  1.0000
  C   C91       1.0  0.90670  0.11843  0.33985  1.0000
  N   N67       1.0  0.91137  0.08841  0.35098  1.0000
  C   C92       1.0  0.90061  0.06565  0.37328  1.0000
  N   N68       1.0  0.88498  0.07436  0.38172  1.0000
  C   C93       1.0  0.87949  0.10287  0.37055  1.0000
  N   N69       1.0  0.89076  0.12380  0.35090  1.0000
  C   C94       1.0  0.10489  0.38906  0.33520  1.0000
  N   N70       1.0  0.10000  0.41894  0.34657  1.0000
  C   C95       1.0  0.11059  0.44194  0.36925  1.0000
  N   N71       1.0  0.12629  0.43365  0.37734  1.0000
  C   C96       1.0  0.13197  0.40531  0.36548  1.0000
  N   N72       1.0  0.12085  0.38411  0.34580  1.0000
  C   C97       1.0  0.60442  0.37045  0.33309  1.0000
  N   N73       1.0  0.59951  0.34131  0.35517  1.0000
  C   C98       1.0  0.61033  0.31779  0.36708  1.0000
  N   N74       1.0  0.62612  0.32404  0.35100  1.0000
  C   C99       1.0  0.63153  0.35131  0.32298  1.0000
  N   N75       1.0  0.62036  0.37339  0.31647  1.0000
  C   C100      1.0  0.40556  0.13720  0.33212  1.0000
  N   N76       1.0  0.41063  0.16615  0.35523  1.0000
  C   C101      1.0  0.39996  0.18987  0.36769  1.0000
  N   N77       1.0  0.38414  0.18398  0.35128  1.0000
  C   C102      1.0  0.37860  0.15689  0.32253  1.0000
  N   N78       1.0  0.38961  0.13456  0.31547  1.0000
  C   C103      1.0  0.40693  0.37006  0.35150  1.0000
  N   N79       1.0  0.41167  0.34011  0.36381  1.0000
  C   C104      1.0  0.40095  0.31734  0.38691  1.0000
  N   N80       1.0  0.38531  0.32598  0.39471  1.0000
  C   C105      1.0  0.37977  0.35439  0.38234  1.0000
  N   N81       1.0  0.39098  0.37532  0.36197  1.0000
  C   C106      1.0  0.60464  0.13748  0.34712  1.0000
  N   N82       1.0  0.59968  0.16730  0.35949  1.0000
  C   C107      1.0  0.61024  0.19031  0.38283  1.0000
  N   N83       1.0  0.62595  0.18209  0.39034  1.0000
  C   C108      1.0  0.63167  0.15384  0.37746  1.0000
  N   N84       1.0  0.62060  0.13264  0.35718  1.0000
  C   C109      1.0  0.06463  0.28403  0.32126  1.0000
  N   N85       1.0  0.04835  0.28363  0.32373  1.0000
  C   C110      1.0  0.03947  0.25733  0.32361  1.0000
  N   N86       1.0  0.04762  0.23007  0.32443  1.0000
  C   C111      1.0  0.06401  0.22864  0.32359  1.0000
  N   N87       1.0  0.07153  0.25610  0.32111  1.0000
  C   C112      1.0  0.94684  0.22393  0.32523  1.0000
  N   N88       1.0  0.96322  0.22562  0.32939  1.0000
  C   C113      1.0  0.97117  0.25308  0.32909  1.0000
  N   N89       1.0  0.96223  0.27932  0.32716  1.0000
  C   C114      1.0  0.94595  0.27934  0.32506  1.0000
  N   N90       1.0  0.93917  0.25127  0.32332  1.0000
  C   C115      1.0  0.56474  0.03204  0.33158  1.0000
  N   N91       1.0  0.54849  0.03173  0.33483  1.0000
  C   C116      1.0  0.53952  0.00559  0.33448  1.0000
  N   N92       1.0  0.54765  0.47822  0.33462  1.0000
  C   C117      1.0  0.56408  0.47661  0.33255  1.0000
  N   N93       1.0  0.57161  0.00409  0.33022  1.0000
  C   C118      1.0  0.44668  0.47598  0.33586  1.0000
  N   N94       1.0  0.46303  0.47753  0.34125  1.0000
  C   C119      1.0  0.47106  0.50487  0.34133  1.0000
  N   N95       1.0  0.46218  0.03124  0.33842  1.0000
  C   C120      1.0  0.44586  0.03143  0.33470  1.0000
  N   N96       1.0  0.43906  0.50335  0.33273  1.0000
  N   N97       1.0  0.26534  0.14613  0.34728  1.0000
  N   N98       1.0  0.25021  0.15322  0.35635  1.0000
  N   N99       1.0  0.74484  0.36195  0.34645  1.0000
  N   N100      1.0  0.75998  0.35481  0.35499  1.0000
  C   C121      1.0  0.77187  0.13843  0.43466  1.0000
  C   C122      1.0  0.75972  0.15405  0.48249  1.0000
  C   C123      1.0  0.74346  0.14532  0.47659  1.0000
  C   C124      1.0  0.73964  0.11982  0.42184  1.0000
  H   H49       1.0  0.76272  0.17213  0.52236  1.0000
  C   C125      1.0  0.73130  0.16265  0.52871  1.0000
  H   H50       1.0  0.73666  0.17918  0.57485  1.0000
  H   H51       1.0  0.72398  0.14716  0.56888  1.0000
  H   H52       1.0  0.72373  0.17516  0.48205  1.0000
  C   C126      1.0  0.23950  0.37029  0.43428  1.0000
  C   C127      1.0  0.25158  0.35479  0.48304  1.0000
  C   C128      1.0  0.26784  0.36350  0.47762  1.0000
  C   C129      1.0  0.27175  0.38880  0.42228  1.0000
  H   H53       1.0  0.24851  0.33680  0.52317  1.0000
  C   C130      1.0  0.27993  0.34635  0.53078  1.0000
  H   H54       1.0  0.27450  0.32998  0.57717  1.0000
  H   H55       1.0  0.28720  0.36197  0.57080  1.0000
  H   H56       1.0  0.28757  0.33369  0.48482  1.0000
  C   C131      1.0  0.30352  0.04111  0.37463  1.0000
  C   C132      1.0  0.31752  0.02763  0.40968  1.0000
  C   C133      1.0  0.31822  0.49586  0.42429  1.0000
  C   C134      1.0  0.30445  0.47827  0.40102  1.0000
  H   H57       1.0  0.32724  0.04098  0.42439  1.0000
  C   C135      1.0  0.33298  0.48276  0.46516  1.0000
  H   H58       1.0  0.34139  0.50020  0.48784  1.0000
  H   H59       1.0  0.33921  0.46866  0.41588  1.0000
  H   H60       1.0  0.32983  0.46896  0.52373  1.0000
  C   C136      1.0  0.70717  0.46758  0.37546  1.0000
  C   C137      1.0  0.69332  0.48140  0.41126  1.0000
  C   C138      1.0  0.69288  0.01317  0.42598  1.0000
  C   C139      1.0  0.70673  0.03043  0.40195  1.0000
  H   H61       1.0  0.68354  0.46829  0.42644  1.0000
  C   C140      1.0  0.67828  0.02663  0.46769  1.0000
  H   H62       1.0  0.66984  0.00939  0.49138  1.0000
  H   H63       1.0  0.67200  0.04073  0.41860  1.0000
  H   H64       1.0  0.68163  0.04051  0.52572  1.0000
  C   C141      1.0  0.80548  0.28969  0.41374  1.0000
  C   C142      1.0  0.79349  0.27752  0.47008  1.0000
  C   C143      1.0  0.79276  0.24592  0.48644  1.0000
  C   C144      1.0  0.80431  0.22706  0.44294  1.0000
  H   H65       1.0  0.78491  0.29161  0.49658  1.0000
  C   C145      1.0  0.77980  0.23424  0.54590  1.0000
  H   H66       1.0  0.77450  0.25211  0.58745  1.0000
  H   H67       1.0  0.78450  0.21691  0.59151  1.0000
  H   H68       1.0  0.77029  0.22454  0.50456  1.0000
  C   C146      1.0  0.20518  0.21901  0.41474  1.0000
  C   C147      1.0  0.21738  0.23107  0.46996  1.0000
  C   C148      1.0  0.21840  0.26270  0.48531  1.0000
  C   C149      1.0  0.20688  0.28173  0.44218  1.0000
  H   H69       1.0  0.22589  0.21683  0.49637  1.0000
  C   C150      1.0  0.23156  0.27424  0.54354  1.0000
  H   H70       1.0  0.23707  0.25626  0.58386  1.0000
  H   H71       1.0  0.22700  0.29136  0.59024  1.0000
  H   H72       1.0  0.24091  0.28417  0.50144  1.0000
  N   N101      1.0  0.33555  0.15306  0.36042  1.0000
  N   N102      1.0  0.35065  0.16154  0.36447  1.0000
  N   N103      1.0  0.67464  0.35545  0.36031  1.0000
  N   N104      1.0  0.65957  0.34677  0.36414  1.0000
  C   C151      1.0  0.64816  0.14639  0.38411  1.0000
  C   C152      1.0  0.66051  0.16742  0.40355  1.0000
  C   C153      1.0  0.67674  0.15776  0.40964  1.0000
  C   C154      1.0  0.68025  0.12637  0.39579  1.0000
  H   H73       1.0  0.65764  0.18978  0.41411  1.0000
  C   C155      1.0  0.68928  0.18031  0.43313  1.0000
  H   H74       1.0  0.68451  0.20331  0.44106  1.0000
  H   H75       1.0  0.69834  0.18105  0.38019  1.0000
  H   H76       1.0  0.69481  0.17381  0.49681  1.0000
  C   C156      1.0  0.36329  0.36211  0.38876  1.0000
  C   C157      1.0  0.35085  0.34116  0.40718  1.0000
  C   C158      1.0  0.33464  0.35092  0.41253  1.0000
  C   C159      1.0  0.33120  0.38236  0.39896  1.0000
  H   H77       1.0  0.35365  0.31874  0.41739  1.0000
  C   C160      1.0  0.32202  0.32839  0.43488  1.0000
  H   H78       1.0  0.32673  0.30534  0.44257  1.0000
  H   H79       1.0  0.31303  0.32782  0.38149  1.0000
  H   H80       1.0  0.31640  0.33477  0.49843  1.0000
  N   N105      1.0  0.83664  0.39984  0.34308  1.0000
  N   N106      1.0  0.85149  0.40965  0.34212  1.0000
  N   N107      1.0  0.17352  0.10873  0.34418  1.0000
  N   N108      1.0  0.15868  0.09880  0.34295  1.0000
  C   C161      1.0  0.14844  0.39769  0.37392  1.0000
  C   C162      1.0  0.16085  0.41873  0.39223  1.0000
  C   C163      1.0  0.17699  0.40885  0.40200  1.0000
  C   C164      1.0  0.18031  0.37716  0.39316  1.0000
  H   H81       1.0  0.15807  0.44129  0.39955  1.0000
  C   C165      1.0  0.18964  0.43148  0.42390  1.0000
  H   H82       1.0  0.18492  0.45458  0.42991  1.0000
  H   H83       1.0  0.19869  0.43162  0.37083  1.0000
  H   H84       1.0  0.19529  0.42562  0.48791  1.0000
  C   C166      1.0  0.86303  0.11077  0.37873  1.0000
  C   C167      1.0  0.85051  0.08981  0.39554  1.0000
  C   C168      1.0  0.83438  0.09982  0.40450  1.0000
  C   C169      1.0  0.83115  0.13157  0.39640  1.0000
  H   H85       1.0  0.85319  0.06719  0.40212  1.0000
  C   C170      1.0  0.82163  0.07721  0.42458  1.0000
  H   H86       1.0  0.82627  0.05405  0.43011  1.0000
  H   H87       1.0  0.81270  0.07736  0.37082  1.0000
  H   H88       1.0  0.81583  0.08285  0.48837  1.0000
  C   C171      1.0  0.07384  0.20198  0.32410  1.0000
  C   C172      1.0  0.09073  0.20485  0.32392  1.0000
  C   C173      1.0  0.10119  0.17960  0.32417  1.0000
  C   C174      1.0  0.09441  0.14951  0.32222  1.0000
  H   H89       1.0  0.09573  0.22610  0.32450  1.0000
  C   C175      1.0  0.11865  0.18712  0.33278  1.0000
  H   H90       1.0  0.12107  0.21119  0.34524  1.0000
  H   H91       1.0  0.12486  0.18126  0.27060  1.0000
  H   H92       1.0  0.12386  0.17471  0.38936  1.0000
  C   C176      1.0  0.93595  0.30564  0.32366  1.0000
  C   C177      1.0  0.91914  0.30249  0.31966  1.0000
  C   C178      1.0  0.90866  0.32776  0.31846  1.0000
  C   C179      1.0  0.91540  0.35791  0.31998  1.0000
  H   H93       1.0  0.91429  0.28112  0.31811  1.0000
  C   C180      1.0  0.89116  0.32017  0.32122  1.0000
  H   H94       1.0  0.88865  0.29592  0.32934  1.0000
  H   H95       1.0  0.88549  0.32712  0.25838  1.0000
  H   H96       1.0  0.88547  0.33164  0.37808  1.0000
  N   N109      1.0  0.93265  0.14405  0.33948  1.0000
  N   N110      1.0  0.94225  0.16809  0.33770  1.0000
  N   N111      1.0  0.07904  0.36351  0.33301  1.0000
  N   N112      1.0  0.06940  0.33957  0.33130  1.0000
  C   C181      1.0  0.57405  0.45004  0.33207  1.0000
  C   C182      1.0  0.59091  0.45308  0.32641  1.0000
  C   C183      1.0  0.60154  0.42803  0.32631  1.0000
  C   C184      1.0  0.59499  0.39780  0.33138  1.0000
  H   H97       1.0  0.59579  0.47437  0.32237  1.0000
  C   C185      1.0  0.61902  0.43600  0.32561  1.0000
  H   H98       1.0  0.62144  0.46042  0.32831  1.0000
  H   H99       1.0  0.62454  0.42766  0.26381  1.0000
  H   H100      1.0  0.62494  0.42605  0.38419  1.0000
  C   C186      1.0  0.43576  0.05767  0.33243  1.0000
  C   C187      1.0  0.41899  0.05441  0.32342  1.0000
  C   C188      1.0  0.40837  0.07952  0.32185  1.0000
  C   C189      1.0  0.41488  0.10974  0.32987  1.0000
  H   H101      1.0  0.41427  0.03301  0.31777  1.0000
  C   C190      1.0  0.39093  0.07168  0.31575  1.0000
  H   H102      1.0  0.38850  0.04725  0.31458  1.0000
  H   H103      1.0  0.38591  0.08098  0.25377  1.0000
  H   H104      1.0  0.38455  0.08079  0.37400  1.0000
  N   N113      1.0  0.43275  0.39602  0.35106  1.0000
  N   N114      1.0  0.44226  0.42019  0.34910  1.0000
  N   N115      1.0  0.57891  0.11160  0.34462  1.0000
  N   N116      1.0  0.56936  0.08756  0.34257  1.0000
  C   C191      1.0  0.10799  0.47388  0.38006  1.0000
  C   C192      1.0  0.11922  0.49136  0.42974  1.0000
  C   C193      1.0  0.11895  0.02336  0.43064  1.0000
  C   C194      1.0  0.10734  0.03874  0.37691  1.0000
  H   H105      1.0  0.12782  0.48064  0.46745  1.0000
  C   C195      1.0  0.13055  0.03885  0.49204  1.0000
  H   H106      1.0  0.13006  0.02859  0.55904  1.0000
  H   H107      1.0  0.12796  0.06299  0.50073  1.0000
  H   H108      1.0  0.14270  0.03639  0.46565  1.0000
  C   C196      1.0  0.90298  0.03360  0.38323  1.0000
  C   C197      1.0  0.89158  0.01623  0.43200  1.0000
  C   C198      1.0  0.89161  0.48421  0.43183  1.0000
  C   C199      1.0  0.90315  0.46873  0.37785  1.0000
  H   H109      1.0  0.88302  0.02703  0.46989  1.0000
  C   C200      1.0  0.87986  0.46881  0.49254  1.0000
  H   H110      1.0  0.88037  0.47883  0.55984  1.0000
  H   H111      1.0  0.88229  0.44458  0.50061  1.0000
  H   H112      1.0  0.86775  0.47164  0.46595  1.0000
  C   C201      1.0  0.60769  0.22222  0.39483  1.0000
  C   C202      1.0  0.61883  0.23928  0.44634  1.0000
  C   C203      1.0  0.61876  0.27129  0.44827  1.0000
  C   C204      1.0  0.60745  0.28712  0.39363  1.0000
  H   H113      1.0  0.62725  0.22823  0.48460  1.0000
  C   C205      1.0  0.63025  0.28627  0.51137  1.0000
  H   H114      1.0  0.62951  0.27574  0.57791  1.0000
  H   H115      1.0  0.62776  0.31043  0.52075  1.0000
  H   H116      1.0  0.64246  0.28370  0.48605  1.0000
  C   C206      1.0  0.40326  0.28532  0.39817  1.0000
  C   C207      1.0  0.39195  0.26838  0.44888  1.0000
  C   C208      1.0  0.39179  0.23636  0.44984  1.0000
  C   C209      1.0  0.40303  0.22040  0.39506  1.0000
  H   H117      1.0  0.38359  0.27952  0.48727  1.0000
  C   C210      1.0  0.38016  0.22148  0.51231  1.0000
  H   H118      1.0  0.38091  0.23181  0.57913  1.0000
  H   H119      1.0  0.38249  0.19725  0.52119  1.0000
  H   H120      1.0  0.36798  0.22441  0.48675  1.0000
  N   N117      1.0  0.01379  0.23377  0.34943  1.0000
  N   N118      1.0  0.99805  0.23206  0.35154  1.0000
  N   N119      1.0  0.51347  0.98333  0.36114  1.0000
  N   N120      1.0  0.49770  0.98256  0.36380  1.0000
  C   C211      1.0  0.23797  0.63854  0.31373  1.0000
  C   C212      1.0  0.24233  0.61503  0.25397  1.0000
  C   C213      1.0  0.25868  0.60712  0.24234  1.0000
  C   C214      1.0  0.27049  0.62367  0.29173  1.0000
  H   H121      1.0  0.23359  0.60369  0.21912  1.0000
  C   C215      1.0  0.26308  0.58269  0.17742  1.0000
  H   H122      1.0  0.25283  0.57502  0.13761  1.0000
  H   H123      1.0  0.26783  0.56298  0.21312  1.0000
  H   H124      1.0  0.27215  0.59113  0.13068  1.0000
  C   C216      1.0  0.77217  0.86955  0.31228  1.0000
  C   C217      1.0  0.76778  0.89316  0.25293  1.0000
  C   C218      1.0  0.75143  0.90112  0.24183  1.0000
  C   C219      1.0  0.73965  0.88456  0.29155  1.0000
  H   H125      1.0  0.77650  0.90457  0.21810  1.0000
  C   C220      1.0  0.74702  0.92568  0.17735  1.0000
  H   H126      1.0  0.75722  0.93323  0.13701  1.0000
  H   H127      1.0  0.74242  0.94543  0.21347  1.0000
  H   H128      1.0  0.73782  0.91743  0.13105  1.0000
  N   N121      1.0  0.75213  0.60516  0.38105  1.0000
  N   N122      1.0  0.76717  0.61386  0.38591  1.0000
  N   N123      1.0  0.25932  0.90336  0.38060  1.0000
  N   N124      1.0  0.24428  0.89471  0.38508  1.0000
  N   N125      1.0  0.29136  0.99329  0.36947  1.0000
  N   N126      1.0  0.29088  0.52262  0.35705  1.0000
  N   N127      1.0  0.71966  0.51511  0.36967  1.0000
  N   N128      1.0  0.71991  0.98577  0.35726  1.0000
  N   N129      1.0  0.81585  0.74089  0.39273  1.0000
  N   N130      1.0  0.81645  0.77023  0.37874  1.0000
  N   N131      1.0  0.19515  0.76803  0.39296  1.0000
  N   N132      1.0  0.19431  0.73868  0.37975  1.0000
  C   C221      1.0  0.36212  0.65062  0.30788  1.0000
  C   C222      1.0  0.35708  0.63008  0.24057  1.0000
  C   C223      1.0  0.34085  0.62102  0.23449  1.0000
  C   C224      1.0  0.32976  0.63321  0.29794  1.0000
  H   H129      1.0  0.36535  0.62120  0.19687  1.0000
  C   C225      1.0  0.33592  0.59901  0.16338  1.0000
  H   H130      1.0  0.34556  0.59421  0.11567  1.0000
  H   H131      1.0  0.32584  0.60829  0.12537  1.0000
  H   H132      1.0  0.33232  0.57746  0.19368  1.0000
  C   C226      1.0  0.64799  0.85799  0.30870  1.0000
  C   C227      1.0  0.65292  0.87910  0.24264  1.0000
  C   C228      1.0  0.66912  0.88842  0.23675  1.0000
  C   C229      1.0  0.68029  0.87592  0.29920  1.0000
  H   H133      1.0  0.64460  0.88816  0.19965  1.0000
  C   C230      1.0  0.67391  0.91091  0.16666  1.0000
  H   H134      1.0  0.66423  0.91581  0.11931  1.0000
  H   H135      1.0  0.68402  0.90202  0.12805  1.0000
  H   H136      1.0  0.67742  0.93235  0.19796  1.0000
  N   N133      1.0  0.66748  0.60813  0.37661  1.0000
  N   N134      1.0  0.65265  0.61712  0.37097  1.0000
  N   N135      1.0  0.34405  0.90054  0.38091  1.0000
  N   N136      1.0  0.35889  0.89145  0.37594  1.0000
  C   C231      1.0  0.86298  0.89757  0.28784  1.0000
  C   C232      1.0  0.85819  0.87418  0.22842  1.0000
  C   C233      1.0  0.84224  0.86328  0.22878  1.0000
  C   C234      1.0  0.83117  0.87701  0.28925  1.0000
  H   H137      1.0  0.86650  0.86429  0.18699  1.0000
  C   C235      1.0  0.83757  0.83795  0.16761  1.0000
  H   H138      1.0  0.84716  0.83173  0.12105  1.0000
  H   H139      1.0  0.82719  0.84472  0.12757  1.0000
  H   H140      1.0  0.83451  0.81774  0.20662  1.0000
  C   C236      1.0  0.14711  0.61111  0.28965  1.0000
  C   C237      1.0  0.15181  0.63494  0.23154  1.0000
  C   C238      1.0  0.16774  0.64597  0.23204  1.0000
  C   C239      1.0  0.17888  0.63196  0.29153  1.0000
  H   H141      1.0  0.14346  0.64496  0.19062  1.0000
  C   C240      1.0  0.17232  0.67159  0.17176  1.0000
  H   H142      1.0  0.16269  0.67792  0.12557  1.0000
  H   H143      1.0  0.18271  0.66509  0.13133  1.0000
  H   H144      1.0  0.17535  0.69167  0.21148  1.0000
  N   N137      1.0  0.16754  0.85888  0.37436  1.0000
  N   N138      1.0  0.15281  0.86816  0.36512  1.0000
  N   N139      1.0  0.84403  0.64979  0.37926  1.0000
  N   N140      1.0  0.85877  0.64039  0.37072  1.0000
  N   N141      1.0  0.07800  0.64849  0.32523  1.0000
  N   N142      1.0  0.06847  0.67262  0.32586  1.0000
  N   N143      1.0  0.93176  0.85903  0.32594  1.0000
  N   N144      1.0  0.94130  0.83498  0.32733  1.0000
  C   C241      1.0  0.93710  0.69715  0.32233  1.0000
  C   C242      1.0  0.92058  0.69954  0.30206  1.0000
  C   C243      1.0  0.91020  0.67416  0.30034  1.0000
  C   C244      1.0  0.91644  0.64484  0.32483  1.0000
  H   H145      1.0  0.91590  0.72035  0.28585  1.0000
  C   C245      1.0  0.89350  0.68022  0.26804  1.0000
  H   H146      1.0  0.89217  0.70223  0.23466  1.0000
  H   H147      1.0  0.88522  0.68007  0.32490  1.0000
  H   H148      1.0  0.88994  0.66302  0.21888  1.0000
  C   C246      1.0  0.07457  0.81040  0.31856  1.0000
  C   C247      1.0  0.09115  0.80751  0.30156  1.0000
  C   C248      1.0  0.10160  0.83281  0.29971  1.0000
  C   C249      1.0  0.09530  0.86242  0.32076  1.0000
  H   H149      1.0  0.09579  0.78642  0.28816  1.0000
  C   C250      1.0  0.11849  0.82626  0.27170  1.0000
  H   H150      1.0  0.12005  0.80368  0.24214  1.0000
  H   H151      1.0  0.12640  0.82747  0.33005  1.0000
  H   H152      1.0  0.12234  0.84258  0.22064  1.0000
  N   N145      1.0  0.57860  0.89664  0.33806  1.0000
  N   N146      1.0  0.56891  0.92058  0.33803  1.0000
  N   N147      1.0  0.43121  0.61096  0.33920  1.0000
  N   N148      1.0  0.44088  0.58707  0.33996  1.0000
  C   C251      1.0  0.43701  0.94914  0.33305  1.0000
  C   C252      1.0  0.42050  0.95132  0.31243  1.0000
  C   C253      1.0  0.41022  0.92579  0.31091  1.0000
  C   C254      1.0  0.41656  0.89658  0.33596  1.0000
  H   H153      1.0  0.41577  0.97207  0.29597  1.0000
  C   C255      1.0  0.39350  0.93163  0.27852  1.0000
  H   H154      1.0  0.39211  0.95357  0.24480  1.0000
  H   H155      1.0  0.38523  0.93151  0.33540  1.0000
  H   H156      1.0  0.38999  0.91432  0.22963  1.0000
  C   C256      1.0  0.57463  0.55849  0.32923  1.0000
  C   C257      1.0  0.59120  0.55578  0.31209  1.0000
  C   C258      1.0  0.60157  0.58122  0.31065  1.0000
  C   C259      1.0  0.59516  0.61073  0.33222  1.0000
  H   H157      1.0  0.59589  0.53476  0.29841  1.0000
  C   C260      1.0  0.61847  0.57488  0.28270  1.0000
  H   H158      1.0  0.62011  0.55235  0.25290  1.0000
  H   H159      1.0  0.62637  0.57608  0.34113  1.0000
  H   H160      1.0  0.62229  0.59129  0.23185  1.0000
  N   N149      1.0  0.09602  0.52068  0.33682  1.0000
  N   N150      1.0  0.09619  0.99048  0.33912  1.0000
  N   N151      1.0  0.91463  0.98665  0.33863  1.0000
  N   N152      1.0  0.91467  0.51684  0.34194  1.0000
  N   N153      1.0  0.59614  0.76945  0.35190  1.0000
  N   N154      1.0  0.59612  0.73923  0.35324  1.0000
  N   N155      1.0  0.41448  0.73793  0.35404  1.0000
  N   N156      1.0  0.41471  0.76814  0.35623  1.0000
  C   C261      1.0  0.98828  0.75528  0.32583  1.0000
  C   C262      1.0  0.99605  0.78166  0.29326  1.0000
  C   C263      1.0  0.01299  0.78373  0.28905  1.0000
  C   C264      1.0  0.02225  0.75859  0.32101  1.0000
  H   H161      1.0  0.98927  0.79944  0.27010  1.0000
  C   C265      1.0  0.02010  0.81149  0.24739  1.0000
  H   H162      1.0  0.01112  0.82659  0.21791  1.0000
  H   H163      1.0  0.02830  0.80499  0.19341  1.0000
  H   H164      1.0  0.02656  0.82456  0.29819  1.0000
  C   C266      1.0  0.48821  0.50631  0.33856  1.0000
  C   C267      1.0  0.49635  0.53219  0.30555  1.0000
  C   C268      1.0  0.51331  0.53324  0.30039  1.0000
  C   C269      1.0  0.52228  0.50763  0.33220  1.0000
  H   H165      1.0  0.48980  0.55030  0.28259  1.0000
  C   C270      1.0  0.52074  0.56052  0.25765  1.0000
  H   H166      1.0  0.51194  0.57589  0.22768  1.0000
  H   H167      1.0  0.52885  0.05346  0.20380  1.0000
  H   H168      1.0  0.52738  0.57353  0.30789  1.0000
  C   C271      1.0  0.31477  0.61912  0.31462  1.0000
  N   N157      1.0  0.30000  0.63126  0.29638  1.0000
  C   C272      1.0  0.28647  0.61374  0.30438  1.0000
  N   N158      1.0  0.28805  0.58461  0.33276  1.0000
  C   C273      1.0  0.30242  0.57217  0.35263  1.0000
  N   N159      1.0  0.31562  0.58971  0.34217  1.0000
  C   C274      1.0  0.69537  0.88982  0.31530  1.0000
  N   N160      1.0  0.71008  0.87739  0.29687  1.0000
  C   C275      1.0  0.72371  0.89464  0.30458  1.0000
  N   N161      1.0  0.72229  0.92378  0.33313  1.0000
  C   C276      1.0  0.70801  0.93651  0.35333  1.0000
  N   N162      1.0  0.69471  0.91923  0.34305  1.0000
  C   C277      1.0  0.69542  0.61120  0.40150  1.0000
  N   N163      1.0  0.71024  0.62427  0.40853  1.0000
  C   C278      1.0  0.72401  0.60731  0.41228  1.0000
  N   N164      1.0  0.72264  0.57650  0.40980  1.0000
  C   C279      1.0  0.70818  0.56244  0.40541  1.0000
  N   N165      1.0  0.69507  0.58034  0.40019  1.0000
  C   C280      1.0  0.31601  0.89755  0.40358  1.0000
  N   N166      1.0  0.30120  0.88442  0.41041  1.0000
  C   C281      1.0  0.28739  0.90129  0.41301  1.0000
  N   N167      1.0  0.28873  0.93208  0.40958  1.0000
  C   C282      1.0  0.30316  0.94623  0.40522  1.0000
  N   N168      1.0  0.31632  0.92841  0.40121  1.0000
  C   C283      1.0  0.81660  0.86288  0.31378  1.0000
  N   N169      1.0  0.80173  0.87520  0.30073  1.0000
  C   C284      1.0  0.78821  0.85991  0.32714  1.0000
  N   N170      1.0  0.79015  0.83243  0.36711  1.0000
  C   C285      1.0  0.80469  0.81974  0.38169  1.0000
  N   N171      1.0  0.81781  0.83503  0.35303  1.0000
  C   C286      1.0  0.19354  0.64587  0.31588  1.0000
  N   N172      1.0  0.20835  0.63326  0.30273  1.0000
  C   C287      1.0  0.22196  0.64833  0.32882  1.0000
  N   N173      1.0  0.22018  0.67589  0.36847  1.0000
  C   C288      1.0  0.20572  0.68888  0.38316  1.0000
  N   N174      1.0  0.19251  0.67381  0.35484  1.0000
  C   C289      1.0  0.19523  0.86184  0.40747  1.0000
  N   N175      1.0  0.21003  0.87533  0.41255  1.0000
  C   C290      1.0  0.22357  0.85883  0.43030  1.0000
  N   N176      1.0  0.22183  0.82839  0.44122  1.0000
  C   C291      1.0  0.20761  0.81385  0.43759  1.0000
  N   N177      1.0  0.19457  0.83108  0.41919  1.0000
  C   C292      1.0  0.81620  0.64695  0.40983  1.0000
  N   N178      1.0  0.80140  0.63344  0.41432  1.0000
  C   C293      1.0  0.78781  0.64990  0.43125  1.0000
  N   N179      1.0  0.78951  0.68035  0.44191  1.0000
  C   C294      1.0  0.80373  0.69493  0.43893  1.0000
  N   N180      1.0  0.81683  0.67774  0.42122  1.0000
  C   C295      1.0  0.10372  0.62208  0.31990  1.0000
  N   N181      1.0  0.09898  0.59278  0.34090  1.0000
  C   C296      1.0  0.10996  0.56935  0.34903  1.0000
  N   N182      1.0  0.12563  0.57590  0.33049  1.0000
  C   C297      1.0  0.13075  0.60338  0.30238  1.0000
  N   N183      1.0  0.11950  0.62535  0.30004  1.0000
  C   C298      1.0  0.90622  0.88547  0.31843  1.0000
  N   N184      1.0  0.91113  0.91459  0.34051  1.0000
  C   C299      1.0  0.90032  0.93827  0.34919  1.0000
  N   N185      1.0  0.88462  0.93215  0.33012  1.0000
  C   C300      1.0  0.87936  0.90485  0.30124  1.0000
  N   N186      1.0  0.89043  0.88259  0.29839  1.0000
  C   C301      1.0  0.90670  0.61843  0.33985  1.0000
  N   N187      1.0  0.91137  0.58841  0.35098  1.0000
  C   C302      1.0  0.90061  0.56565  0.37328  1.0000
  N   N188      1.0  0.88498  0.57436  0.38172  1.0000
  C   C303      1.0  0.87949  0.60287  0.37055  1.0000
  N   N189      1.0  0.89076  0.62380  0.35090  1.0000
  C   C304      1.0  0.10489  0.88906  0.33520  1.0000
  N   N190      1.0  0.10000  0.91894  0.34657  1.0000
  C   C305      1.0  0.11059  0.94194  0.36925  1.0000
  N   N191      1.0  0.12629  0.93365  0.37734  1.0000
  C   C306      1.0  0.13197  0.90531  0.36548  1.0000
  N   N192      1.0  0.12085  0.88410  0.34580  1.0000
  C   C307      1.0  0.60442  0.87045  0.33309  1.0000
  N   N193      1.0  0.59951  0.84131  0.35517  1.0000
  C   C308      1.0  0.61033  0.81779  0.36708  1.0000
  N   N194      1.0  0.62612  0.82404  0.35100  1.0000
  C   C309      1.0  0.63153  0.85131  0.32298  1.0000
  N   N195      1.0  0.62036  0.87339  0.31647  1.0000
  C   C310      1.0  0.40556  0.63720  0.33212  1.0000
  N   N196      1.0  0.41063  0.66615  0.35523  1.0000
  C   C311      1.0  0.39996  0.68987  0.36769  1.0000
  N   N197      1.0  0.38414  0.68398  0.35128  1.0000
  C   C312      1.0  0.37860  0.65689  0.32253  1.0000
  N   N198      1.0  0.38961  0.63456  0.31547  1.0000
  C   C313      1.0  0.40693  0.87006  0.35150  1.0000
  N   N199      1.0  0.41167  0.84011  0.36381  1.0000
  C   C314      1.0  0.40095  0.81734  0.38691  1.0000
  N   N200      1.0  0.38531  0.82598  0.39471  1.0000
  C   C315      1.0  0.37977  0.85439  0.38234  1.0000
  N   N201      1.0  0.39098  0.87532  0.36197  1.0000
  C   C316      1.0  0.60464  0.63748  0.34712  1.0000
  N   N202      1.0  0.59968  0.66730  0.35949  1.0000
  C   C317      1.0  0.61024  0.69031  0.38283  1.0000
  N   N203      1.0  0.62595  0.68209  0.39034  1.0000
  C   C318      1.0  0.63167  0.65384  0.37746  1.0000
  N   N204      1.0  0.62060  0.63264  0.35718  1.0000
  C   C319      1.0  0.06463  0.78403  0.32126  1.0000
  N   N205      1.0  0.04835  0.78363  0.32373  1.0000
  C   C320      1.0  0.03947  0.75733  0.32361  1.0000
  N   N206      1.0  0.04762  0.73007  0.32443  1.0000
  C   C321      1.0  0.06401  0.72864  0.32359  1.0000
  N   N207      1.0  0.07153  0.75610  0.32111  1.0000
  C   C322      1.0  0.94684  0.72393  0.32523  1.0000
  N   N208      1.0  0.96322  0.72562  0.32939  1.0000
  C   C323      1.0  0.97117  0.75308  0.32909  1.0000
  N   N209      1.0  0.96223  0.77932  0.32716  1.0000
  C   C324      1.0  0.94595  0.77934  0.32506  1.0000
  N   N210      1.0  0.93917  0.75126  0.32332  1.0000
  C   C325      1.0  0.56474  0.53204  0.33158  1.0000
  N   N211      1.0  0.54849  0.53173  0.33483  1.0000
  C   C326      1.0  0.53952  0.50559  0.33448  1.0000
  N   N212      1.0  0.54765  0.97822  0.33462  1.0000
  C   C327      1.0  0.56408  0.97661  0.33255  1.0000
  N   N213      1.0  0.57161  0.50409  0.33022  1.0000
  C   C328      1.0  0.44668  0.97598  0.33586  1.0000
  N   N214      1.0  0.46303  0.97753  0.34125  1.0000
  C   C329      1.0  0.47106  0.00487  0.34133  1.0000
  N   N215      1.0  0.46218  0.53124  0.33842  1.0000
  C   C330      1.0  0.44586  0.53142  0.33470  1.0000
  N   N216      1.0  0.43906  0.00335  0.33273  1.0000
  N   N217      1.0  0.26534  0.64613  0.34728  1.0000
  N   N218      1.0  0.25021  0.65322  0.35635  1.0000
  N   N219      1.0  0.74484  0.86195  0.34645  1.0000
  N   N220      1.0  0.75998  0.85481  0.35499  1.0000
  C   C331      1.0  0.77187  0.63843  0.43466  1.0000
  C   C332      1.0  0.75972  0.65405  0.48249  1.0000
  C   C333      1.0  0.74346  0.64532  0.47659  1.0000
  C   C334      1.0  0.73964  0.61982  0.42184  1.0000
  H   H169      1.0  0.76272  0.67213  0.52236  1.0000
  C   C335      1.0  0.73130  0.66265  0.52871  1.0000
  H   H170      1.0  0.73666  0.67918  0.57485  1.0000
  H   H171      1.0  0.72398  0.64716  0.56888  1.0000
  H   H172      1.0  0.72373  0.67515  0.48205  1.0000
  C   C336      1.0  0.23950  0.87029  0.43428  1.0000
  C   C337      1.0  0.25158  0.85479  0.48304  1.0000
  C   C338      1.0  0.26784  0.86350  0.47762  1.0000
  C   C339      1.0  0.27175  0.88880  0.42228  1.0000
  H   H173      1.0  0.24851  0.83680  0.52317  1.0000
  C   C340      1.0  0.27993  0.84635  0.53078  1.0000
  H   H174      1.0  0.27450  0.82997  0.57717  1.0000
  H   H175      1.0  0.28720  0.86197  0.57080  1.0000
  H   H176      1.0  0.28757  0.83368  0.48482  1.0000
  C   C341      1.0  0.30352  0.54111  0.37463  1.0000
  C   C342      1.0  0.31752  0.52763  0.40968  1.0000
  C   C343      1.0  0.31822  0.99586  0.42429  1.0000
  C   C344      1.0  0.30445  0.97827  0.40103  1.0000
  H   H177      1.0  0.32724  0.54098  0.42439  1.0000
  C   C345      1.0  0.33298  0.98276  0.46516  1.0000
  H   H178      1.0  0.34139  0.00020  0.48784  1.0000
  H   H179      1.0  0.33921  0.96865  0.41588  1.0000
  H   H180      1.0  0.32983  0.96896  0.52373  1.0000
  C   C346      1.0  0.70717  0.96759  0.37546  1.0000
  C   C347      1.0  0.69332  0.98140  0.41126  1.0000
  C   C348      1.0  0.69288  0.51317  0.42598  1.0000
  C   C349      1.0  0.70673  0.53043  0.40195  1.0000
  H   H181      1.0  0.68354  0.96829  0.42644  1.0000
  C   C350      1.0  0.67828  0.52663  0.46769  1.0000
  H   H182      1.0  0.66984  0.50939  0.49138  1.0000
  H   H183      1.0  0.67200  0.54072  0.41860  1.0000
  H   H184      1.0  0.68163  0.54051  0.52572  1.0000
  C   C351      1.0  0.80548  0.78969  0.41374  1.0000
  C   C352      1.0  0.79349  0.77752  0.47008  1.0000
  C   C353      1.0  0.79276  0.74592  0.48644  1.0000
  C   C354      1.0  0.80431  0.72706  0.44294  1.0000
  H   H185      1.0  0.78491  0.79161  0.49658  1.0000
  C   C355      1.0  0.77980  0.73424  0.54590  1.0000
  H   H186      1.0  0.77450  0.75211  0.58745  1.0000
  H   H187      1.0  0.78450  0.71691  0.59151  1.0000
  H   H188      1.0  0.77029  0.72454  0.50456  1.0000
  C   C356      1.0  0.20518  0.71901  0.41474  1.0000
  C   C357      1.0  0.21738  0.73107  0.46996  1.0000
  C   C358      1.0  0.21840  0.76270  0.48531  1.0000
  C   C359      1.0  0.20688  0.78173  0.44218  1.0000
  H   H189      1.0  0.22589  0.71683  0.49637  1.0000
  C   C360      1.0  0.23156  0.77424  0.54354  1.0000
  H   H190      1.0  0.23707  0.75626  0.58386  1.0000
  H   H191      1.0  0.22700  0.79136  0.59024  1.0000
  H   H192      1.0  0.24091  0.78417  0.50144  1.0000
  N   N221      1.0  0.33555  0.65306  0.36042  1.0000
  N   N222      1.0  0.35065  0.66153  0.36447  1.0000
  N   N223      1.0  0.67464  0.85545  0.36031  1.0000
  N   N224      1.0  0.65957  0.84677  0.36414  1.0000
  C   C361      1.0  0.64816  0.64639  0.38411  1.0000
  C   C362      1.0  0.66051  0.66742  0.40355  1.0000
  C   C363      1.0  0.67674  0.65776  0.40964  1.0000
  C   C364      1.0  0.68025  0.62637  0.39579  1.0000
  H   H193      1.0  0.65764  0.68978  0.41411  1.0000
  C   C365      1.0  0.68928  0.68031  0.43313  1.0000
  H   H194      1.0  0.68451  0.70330  0.44106  1.0000
  H   H195      1.0  0.69834  0.68105  0.38019  1.0000
  H   H196      1.0  0.69481  0.67381  0.49681  1.0000
  C   C366      1.0  0.36329  0.86211  0.38876  1.0000
  C   C367      1.0  0.35085  0.84116  0.40718  1.0000
  C   C368      1.0  0.33464  0.85092  0.41253  1.0000
  C   C369      1.0  0.33120  0.88236  0.39896  1.0000
  H   H197      1.0  0.35365  0.81874  0.41739  1.0000
  C   C370      1.0  0.32202  0.82838  0.43488  1.0000
  H   H198      1.0  0.32673  0.80534  0.44257  1.0000
  H   H199      1.0  0.31303  0.82782  0.38149  1.0000
  H   H200      1.0  0.31640  0.83477  0.49843  1.0000
  N   N225      1.0  0.83664  0.89984  0.34308  1.0000
  N   N226      1.0  0.85149  0.90965  0.34212  1.0000
  N   N227      1.0  0.17352  0.60873  0.34418  1.0000
  N   N228      1.0  0.15868  0.59880  0.34295  1.0000
  C   C371      1.0  0.14844  0.89769  0.37392  1.0000
  C   C372      1.0  0.16085  0.91873  0.39223  1.0000
  C   C373      1.0  0.17699  0.90885  0.40200  1.0000
  C   C374      1.0  0.18031  0.87716  0.39316  1.0000
  H   H201      1.0  0.15807  0.94129  0.39955  1.0000
  C   C375      1.0  0.18964  0.93148  0.42390  1.0000
  H   H202      1.0  0.18492  0.95458  0.42991  1.0000
  H   H203      1.0  0.19869  0.93162  0.37083  1.0000
  H   H204      1.0  0.19529  0.92562  0.48791  1.0000
  C   C376      1.0  0.86303  0.61077  0.37873  1.0000
  C   C377      1.0  0.85051  0.58981  0.39554  1.0000
  C   C378      1.0  0.83438  0.59982  0.40450  1.0000
  C   C379      1.0  0.83115  0.63157  0.39640  1.0000
  H   H205      1.0  0.85319  0.56719  0.40212  1.0000
  C   C380      1.0  0.82163  0.57721  0.42458  1.0000
  H   H206      1.0  0.82627  0.55405  0.43011  1.0000
  H   H207      1.0  0.81270  0.57737  0.37082  1.0000
  H   H208      1.0  0.81583  0.58285  0.48837  1.0000
  C   C381      1.0  0.07384  0.70198  0.32410  1.0000
  C   C382      1.0  0.09073  0.70485  0.32392  1.0000
  C   C383      1.0  0.10119  0.67960  0.32417  1.0000
  C   C384      1.0  0.09441  0.64951  0.32222  1.0000
  H   H209      1.0  0.09573  0.72610  0.32450  1.0000
  C   C385      1.0  0.11865  0.68712  0.33278  1.0000
  H   H210      1.0  0.12107  0.71119  0.34524  1.0000
  H   H211      1.0  0.12486  0.68126  0.27060  1.0000
  H   H212      1.0  0.12386  0.67471  0.38936  1.0000
  C   C386      1.0  0.93595  0.80564  0.32366  1.0000
  C   C387      1.0  0.91914  0.80249  0.31966  1.0000
  C   C388      1.0  0.90866  0.82776  0.31846  1.0000
  C   C389      1.0  0.91540  0.85791  0.31998  1.0000
  H   H213      1.0  0.91429  0.78111  0.31811  1.0000
  C   C390      1.0  0.89116  0.82017  0.32121  1.0000
  H   H214      1.0  0.88865  0.79592  0.32934  1.0000
  H   H215      1.0  0.88549  0.82712  0.25838  1.0000
  H   H216      1.0  0.88547  0.83164  0.37808  1.0000
  N   N229      1.0  0.93265  0.64405  0.33948  1.0000
  N   N230      1.0  0.94225  0.66809  0.33770  1.0000
  N   N231      1.0  0.07904  0.86351  0.33301  1.0000
  N   N232      1.0  0.06940  0.83957  0.33130  1.0000
  C   C391      1.0  0.57405  0.95004  0.33207  1.0000
  C   C392      1.0  0.59091  0.95308  0.32641  1.0000
  C   C393      1.0  0.60154  0.92803  0.32630  1.0000
  C   C394      1.0  0.59499  0.89780  0.33138  1.0000
  H   H217      1.0  0.59579  0.97437  0.32237  1.0000
  C   C395      1.0  0.61902  0.93600  0.32561  1.0000
  H   H218      1.0  0.62144  0.96042  0.32831  1.0000
  H   H219      1.0  0.62454  0.92766  0.26381  1.0000
  H   H220      1.0  0.62494  0.92605  0.38419  1.0000
  C   C396      1.0  0.43576  0.55767  0.33243  1.0000
  C   C397      1.0  0.41899  0.55441  0.32342  1.0000
  C   C398      1.0  0.40837  0.57952  0.32185  1.0000
  C   C399      1.0  0.41488  0.60974  0.32987  1.0000
  H   H221      1.0  0.41427  0.53301  0.31776  1.0000
  C   C400      1.0  0.39093  0.57168  0.31575  1.0000
  H   H222      1.0  0.38850  0.54725  0.31458  1.0000
  H   H223      1.0  0.38591  0.58098  0.25377  1.0000
  H   H224      1.0  0.38455  0.58079  0.37400  1.0000
  N   N233      1.0  0.43275  0.89602  0.35106  1.0000
  N   N234      1.0  0.44226  0.92019  0.34910  1.0000
  N   N235      1.0  0.57891  0.61160  0.34462  1.0000
  N   N236      1.0  0.56936  0.58756  0.34257  1.0000
  C   C401      1.0  0.10799  0.97388  0.38006  1.0000
  C   C402      1.0  0.11922  0.99135  0.42974  1.0000
  C   C403      1.0  0.11895  0.52336  0.43064  1.0000
  C   C404      1.0  0.10734  0.53874  0.37691  1.0000
  H   H225      1.0  0.12782  0.98064  0.46745  1.0000
  C   C405      1.0  0.13055  0.53885  0.49204  1.0000
  H   H226      1.0  0.13006  0.52860  0.55904  1.0000
  H   H227      1.0  0.12796  0.56299  0.50073  1.0000
  H   H228      1.0  0.14270  0.53639  0.46565  1.0000
  C   C406      1.0  0.90298  0.53360  0.38323  1.0000
  C   C407      1.0  0.89158  0.51623  0.43200  1.0000
  C   C408      1.0  0.89161  0.98421  0.43183  1.0000
  C   C409      1.0  0.90315  0.96873  0.37785  1.0000
  H   H229      1.0  0.88302  0.52703  0.46989  1.0000
  C   C410      1.0  0.87986  0.96881  0.49254  1.0000
  H   H230      1.0  0.88037  0.97883  0.55984  1.0000
  H   H231      1.0  0.88229  0.94457  0.50061  1.0000
  H   H232      1.0  0.86775  0.97164  0.46595  1.0000
  C   C411      1.0  0.60769  0.72222  0.39483  1.0000
  C   C412      1.0  0.61883  0.73928  0.44634  1.0000
  C   C413      1.0  0.61876  0.77129  0.44827  1.0000
  C   C414      1.0  0.60745  0.78712  0.39363  1.0000
  H   H233      1.0  0.62725  0.72823  0.48460  1.0000
  C   C415      1.0  0.63025  0.78627  0.51137  1.0000
  H   H234      1.0  0.62951  0.77574  0.57791  1.0000
  H   H235      1.0  0.62776  0.81042  0.52075  1.0000
  H   H236      1.0  0.64246  0.78370  0.48605  1.0000
  C   C416      1.0  0.40326  0.78533  0.39817  1.0000
  C   C417      1.0  0.39195  0.76838  0.44888  1.0000
  C   C418      1.0  0.39179  0.73636  0.44984  1.0000
  C   C419      1.0  0.40303  0.72040  0.39506  1.0000
  H   H237      1.0  0.38359  0.77952  0.48727  1.0000
  C   C420      1.0  0.38016  0.72148  0.51231  1.0000
  H   H238      1.0  0.38091  0.73181  0.57913  1.0000
  H   H239      1.0  0.38249  0.69725  0.52119  1.0000
  H   H240      1.0  0.36798  0.72441  0.48675  1.0000
  N   N237      1.0  0.01379  0.73377  0.34943  1.0000
  N   N238      1.0  0.99805  0.73206  0.35154  1.0000
  N   N239      1.0  0.51347  0.48333  0.36114  1.0000
  N   N240      1.0  0.49770  0.48256  0.36380  1.0000
