data_image0
_chemical_formula_structural       C8H8C8H8C8H8C8H8C8H8C8H8C2NC2H2CH3NC2NC2H2CH3NC2NC2H2CH3NC2NC2H2CH3NC2NC2H2CH3NC2NC2H2CH3NC2NC2H2CH3NC2NC2H2CH3NC2NC2H2CH3NC2NC2H2CH3NC2NC2H2CH3NC2NC2H2CH3NC3NC3NC5NC5NC20H18C4H4C3NC3NC5NC5NC20H18C4H4C3NC3NC5NC5NC20H18C4H4C3NC3NC5NC5NC20H18C4H4C3NC3NC5NC5NC20H18C4H4C3NC3NC5NC5NC20H18C4H4C3HC3NHCH3NC3HC3NHCH3NC3HC3NHCH3NC3HC3NHCH3NC3HC3NHCH3NC3HC3NHCH3NC3HC3NHCH3NC3HC3NHCH3NC3HC3NHCH3NC3HC3NHCH3NC3HC3NHCH3NC3HC3NHCH3N
_chemical_formula_sum              "C432 H300 N72"
_cell_length_a       79.5186
_cell_length_b       79.5186
_cell_length_c       14.9856
_cell_angle_alpha    90.0006
_cell_angle_beta     89.987
_cell_angle_gamma    120

_space_group_name_H-M_alt    "P 1"
_space_group_IT_number       1

loop_
  _space_group_symop_operation_xyz
  'x, y, z'

loop_
  _atom_site_type_symbol
  _atom_site_label
  _atom_site_symmetry_multiplicity
  _atom_site_fract_x
  _atom_site_fract_y
  _atom_site_fract_z
  _atom_site_occupancy
  C   C1        1.0  0.26782  0.38027  0.28268  1.0000
  C   C2        1.0  0.27267  0.36559  0.29203  1.0000
  C   C3        1.0  0.32784  0.49945  0.26568  1.0000
  C   C4        1.0  0.34769  0.51357  0.26725  1.0000
  C   C5        1.0  0.22845  0.51963  0.30243  1.0000
  C   C6        1.0  0.23121  0.50361  0.28984  1.0000
  C   C7        1.0  0.16752  0.38453  0.27833  1.0000
  C   C8        1.0  0.14726  0.37219  0.28280  1.0000
  H   H1        1.0  0.13972  0.36684  0.22455  1.0000
  H   H2        1.0  0.17422  0.38773  0.21734  1.0000
  H   H3        1.0  0.23193  0.49928  0.22632  1.0000
  H   H4        1.0  0.22730  0.52657  0.24726  1.0000
  H   H5        1.0  0.32024  0.49697  0.20738  1.0000
  H   H6        1.0  0.35412  0.52098  0.20980  1.0000
  H   H7        1.0  0.27594  0.36047  0.23585  1.0000
  H   H8        1.0  0.26777  0.38553  0.22039  1.0000
  C   C9        1.0  0.67483  0.88778  0.28295  1.0000
  C   C10       1.0  0.68953  0.90731  0.29230  1.0000
  C   C11       1.0  0.55572  0.82867  0.26577  1.0000
  C   C12       1.0  0.54161  0.83441  0.26728  1.0000
  C   C13       1.0  0.53554  0.70904  0.30269  1.0000
  C   C14       1.0  0.55155  0.72782  0.29021  1.0000
  C   C15       1.0  0.67055  0.78317  0.27842  1.0000
  C   C16       1.0  0.68289  0.77525  0.28288  1.0000
  H   H9        1.0  0.68824  0.77306  0.22460  1.0000
  H   H10       1.0  0.66736  0.78667  0.21743  1.0000
  H   H11       1.0  0.55592  0.73287  0.22672  1.0000
  H   H12       1.0  0.52862  0.70095  0.24748  1.0000
  H   H13       1.0  0.55824  0.82359  0.20744  1.0000
  H   H14       1.0  0.53424  0.83347  0.20977  1.0000
  H   H15       1.0  0.69464  0.91570  0.23612  1.0000
  H   H16       1.0  0.66956  0.88247  0.22068  1.0000
  C   C17       1.0  0.16735  0.78727  0.28251  1.0000
  C   C18       1.0  0.14781  0.78242  0.29190  1.0000
  C   C19       1.0  0.22651  0.72729  0.26539  1.0000
  C   C20       1.0  0.22076  0.70744  0.26684  1.0000
  C   C21       1.0  0.34610  0.82671  0.30243  1.0000
  C   C22       1.0  0.32733  0.82394  0.28980  1.0000
  C   C23       1.0  0.27192  0.88760  0.27797  1.0000
  C   C24       1.0  0.27987  0.90786  0.28246  1.0000
  H   H17       1.0  0.28204  0.91541  0.22422  1.0000
  H   H18       1.0  0.26845  0.88091  0.21697  1.0000
  H   H19       1.0  0.32229  0.82323  0.22626  1.0000
  H   H20       1.0  0.35421  0.82786  0.24728  1.0000
  H   H21       1.0  0.23162  0.73490  0.20710  1.0000
  H   H22       1.0  0.22172  0.70101  0.20931  1.0000
  H   H23       1.0  0.13942  0.77914  0.23574  1.0000
  H   H24       1.0  0.17266  0.78732  0.22022  1.0000
  C   C25       1.0  0.80551  0.65662  0.28294  1.0000
  C   C26       1.0  0.80067  0.67131  0.29235  1.0000
  C   C27       1.0  0.74551  0.53744  0.26597  1.0000
  C   C28       1.0  0.72565  0.52331  0.26755  1.0000
  C   C29       1.0  0.84490  0.51728  0.30286  1.0000
  C   C30       1.0  0.84216  0.53330  0.29035  1.0000
  C   C31       1.0  0.90580  0.65236  0.27843  1.0000
  C   C32       1.0  0.92607  0.66470  0.28284  1.0000
  H   H25       1.0  0.93360  0.67006  0.22455  1.0000
  H   H26       1.0  0.89910  0.64916  0.21746  1.0000
  H   H27       1.0  0.84143  0.53764  0.22685  1.0000
  H   H28       1.0  0.84605  0.51034  0.24766  1.0000
  H   H29       1.0  0.75311  0.53993  0.20767  1.0000
  H   H30       1.0  0.71922  0.51591  0.21008  1.0000
  H   H31       1.0  0.79742  0.67645  0.23619  1.0000
  H   H32       1.0  0.80558  0.65137  0.22063  1.0000
  C   C33       1.0  0.39850  0.14912  0.28309  1.0000
  C   C34       1.0  0.38380  0.12959  0.29239  1.0000
  C   C35       1.0  0.51767  0.20828  0.26624  1.0000
  C   C36       1.0  0.53179  0.20255  0.26782  1.0000
  C   C37       1.0  0.53784  0.32784  0.30292  1.0000
  C   C38       1.0  0.52183  0.30907  0.29034  1.0000
  C   C39       1.0  0.40276  0.25367  0.27868  1.0000
  C   C40       1.0  0.39042  0.26159  0.28309  1.0000
  H   H33       1.0  0.38507  0.26378  0.22481  1.0000
  H   H34       1.0  0.40596  0.25017  0.21771  1.0000
  H   H35       1.0  0.51750  0.30402  0.22682  1.0000
  H   H36       1.0  0.54479  0.33594  0.24775  1.0000
  H   H37       1.0  0.51519  0.21340  0.20794  1.0000
  H   H38       1.0  0.53921  0.20353  0.21036  1.0000
  H   H39       1.0  0.37868  0.12121  0.23619  1.0000
  H   H40       1.0  0.40376  0.15445  0.22081  1.0000
  C   C41       1.0  0.90600  0.24962  0.28283  1.0000
  C   C42       1.0  0.92553  0.25447  0.29216  1.0000
  C   C43       1.0  0.84688  0.30961  0.26563  1.0000
  C   C44       1.0  0.85263  0.32947  0.26711  1.0000
  C   C45       1.0  0.72726  0.21018  0.30277  1.0000
  C   C46       1.0  0.74603  0.21294  0.29021  1.0000
  C   C47       1.0  0.80139  0.14929  0.27835  1.0000
  C   C48       1.0  0.79347  0.12903  0.28280  1.0000
  H   H41       1.0  0.79128  0.12149  0.22453  1.0000
  H   H42       1.0  0.80489  0.15599  0.21737  1.0000
  H   H43       1.0  0.75108  0.21363  0.22669  1.0000
  H   H44       1.0  0.71916  0.20901  0.24759  1.0000
  H   H45       1.0  0.84180  0.30201  0.20732  1.0000
  H   H46       1.0  0.85169  0.33590  0.20958  1.0000
  H   H47       1.0  0.93393  0.25776  0.23599  1.0000
  H   H48       1.0  0.90069  0.24959  0.22056  1.0000
  C   C49       1.0  0.21739  0.56535  0.34991  1.0000
  C   C50       1.0  0.21669  0.57396  0.26893  1.0000
  N   N1        1.0  0.21519  0.59021  0.26933  1.0000
  C   C51       1.0  0.19762  0.61785  0.30223  1.0000
  C   C52       1.0  0.19963  0.63657  0.29899  1.0000
  H   H49       1.0  0.18834  0.63811  0.27620  1.0000
  H   H50       1.0  0.21792  0.56849  0.20911  1.0000
  C   C53       1.0  0.17883  0.60097  0.27401  1.0000
  H   H51       1.0  0.17844  0.58714  0.28102  1.0000
  H   H52       1.0  0.17610  0.60264  0.20409  1.0000
  H   H53       1.0  0.16708  0.60028  0.31447  1.0000
  N   N2        1.0  0.21966  0.54985  0.34640  1.0000
  C   C54       1.0  0.48977  0.65226  0.34997  1.0000
  C   C55       1.0  0.48114  0.64298  0.26900  1.0000
  N   N3        1.0  0.46488  0.62523  0.26939  1.0000
  C   C56       1.0  0.43725  0.58001  0.30249  1.0000
  C   C57       1.0  0.41852  0.56330  0.29935  1.0000
  H   H54       1.0  0.41698  0.55046  0.27664  1.0000
  H   H55       1.0  0.48662  0.64968  0.20917  1.0000
  C   C58       1.0  0.45412  0.57808  0.27423  1.0000
  H   H56       1.0  0.46795  0.59153  0.28112  1.0000
  H   H57       1.0  0.45243  0.57366  0.20435  1.0000
  H   H58       1.0  0.45482  0.56704  0.31476  1.0000
  N   N4        1.0  0.50527  0.67003  0.34648  1.0000
  C   C59       1.0  0.40287  0.83774  0.35002  1.0000
  C   C60       1.0  0.41219  0.83844  0.26906  1.0000
  N   N5        1.0  0.42993  0.83992  0.26950  1.0000
  C   C61       1.0  0.47513  0.85749  0.30261  1.0000
  C   C62       1.0  0.49184  0.85549  0.29946  1.0000
  H   H59       1.0  0.50469  0.86679  0.27672  1.0000
  H   H60       1.0  0.40549  0.83721  0.20923  1.0000
  C   C63       1.0  0.47705  0.87629  0.27442  1.0000
  H   H61       1.0  0.46360  0.87667  0.28135  1.0000
  H   H62       1.0  0.48148  0.87904  0.20452  1.0000
  H   H63       1.0  0.48810  0.88803  0.31494  1.0000
  N   N6        1.0  0.38510  0.83548  0.34647  1.0000
  C   C64       1.0  0.85594  0.47153  0.35017  1.0000
  C   C65       1.0  0.85664  0.46293  0.26918  1.0000
  N   N7        1.0  0.85812  0.44667  0.26954  1.0000
  C   C66       1.0  0.87570  0.41904  0.30254  1.0000
  C   C67       1.0  0.87370  0.40032  0.29933  1.0000
  H   H64       1.0  0.88501  0.39878  0.27662  1.0000
  H   H65       1.0  0.85541  0.46841  0.20937  1.0000
  C   C68       1.0  0.89450  0.43592  0.27440  1.0000
  H   H66       1.0  0.89488  0.44975  0.28136  1.0000
  H   H67       1.0  0.89726  0.43426  0.20450  1.0000
  H   H68       1.0  0.90624  0.43661  0.31493  1.0000
  N   N8        1.0  0.85368  0.48704  0.34670  1.0000
  C   C69       1.0  0.58356  0.38462  0.35038  1.0000
  C   C70       1.0  0.59218  0.39393  0.26940  1.0000
  N   N9        1.0  0.60844  0.41168  0.26981  1.0000
  C   C71       1.0  0.63609  0.45688  0.30276  1.0000
  C   C72       1.0  0.65481  0.47359  0.29960  1.0000
  H   H69       1.0  0.65637  0.48643  0.27684  1.0000
  H   H70       1.0  0.58672  0.38723  0.20958  1.0000
  C   C73       1.0  0.61922  0.45882  0.27451  1.0000
  H   H71       1.0  0.60539  0.44538  0.28145  1.0000
  H   H72       1.0  0.62091  0.46324  0.20460  1.0000
  H   H73       1.0  0.61853  0.46988  0.31499  1.0000
  N   N10       1.0  0.56806  0.36686  0.34686  1.0000
  C   C74       1.0  0.67048  0.19916  0.35025  1.0000
  C   C75       1.0  0.66118  0.19849  0.26930  1.0000
  N   N11       1.0  0.64344  0.19701  0.26975  1.0000
  C   C76       1.0  0.59823  0.17942  0.30297  1.0000
  C   C77       1.0  0.58152  0.18144  0.29987  1.0000
  H   H74       1.0  0.56867  0.17014  0.27718  1.0000
  H   H75       1.0  0.66789  0.19972  0.20947  1.0000
  C   C78       1.0  0.59630  0.16062  0.27472  1.0000
  H   H76       1.0  0.60974  0.16024  0.28159  1.0000
  H   H77       1.0  0.59187  0.15788  0.20484  1.0000
  H   H78       1.0  0.58525  0.14888  0.31527  1.0000
  N   N12       1.0  0.68825  0.20142  0.34671  1.0000
  C   C79       1.0  0.98544  0.28012  0.33820  1.0000
  C   C80       1.0  0.99575  0.28702  0.25767  1.0000
  N   N13       1.0  0.01542  0.29707  0.25808  1.0000
  C   C81       1.0  0.05606  0.33265  0.29798  1.0000
  C   C82       1.0  0.07659  0.34289  0.29487  1.0000
  H   H79       1.0  0.08385  0.35734  0.27847  1.0000
  H   H80       1.0  0.98862  0.28502  0.19842  1.0000
  C   C83       1.0  0.04592  0.34369  0.27854  1.0000
  H   H81       1.0  0.03024  0.33511  0.28712  1.0000
  H   H82       1.0  0.04885  0.34891  0.20978  1.0000
  H   H83       1.0  0.05125  0.35616  0.32322  1.0000
  N   N14       1.0  0.96621  0.27212  0.33598  1.0000
  C   C84       1.0  0.77505  0.70559  0.33845  1.0000
  C   C85       1.0  0.76813  0.70897  0.25792  1.0000
  N   N15       1.0  0.75807  0.71859  0.25829  1.0000
  C   C86       1.0  0.72248  0.72363  0.29812  1.0000
  C   C87       1.0  0.71224  0.73392  0.29493  1.0000
  H   H84       1.0  0.69779  0.72673  0.27864  1.0000
  H   H85       1.0  0.77013  0.70383  0.19868  1.0000
  C   C88       1.0  0.71145  0.70245  0.27873  1.0000
  H   H86       1.0  0.72003  0.69535  0.28737  1.0000
  H   H87       1.0  0.70624  0.70015  0.20997  1.0000
  H   H88       1.0  0.69897  0.69531  0.32341  1.0000
  N   N16       1.0  0.78303  0.69435  0.33621  1.0000
  C   C89       1.0  0.34951  0.06968  0.33831  1.0000
  C   C90       1.0  0.34613  0.05938  0.25776  1.0000
  N   N17       1.0  0.33650  0.03970  0.25811  1.0000
  C   C91       1.0  0.33147  0.99907  0.29786  1.0000
  C   C92       1.0  0.32118  0.97854  0.29464  1.0000
  H   H89       1.0  0.32838  0.97129  0.27831  1.0000
  H   H90       1.0  0.35127  0.06652  0.19852  1.0000
  C   C93       1.0  0.35265  0.00923  0.27849  1.0000
  H   H91       1.0  0.35975  0.02491  0.28717  1.0000
  H   H92       1.0  0.35496  0.00633  0.20971  1.0000
  H   H93       1.0  0.35979  0.00389  0.32314  1.0000
  N   N18       1.0  0.36076  0.08890  0.33611  1.0000
  C   C94       1.0  0.08790  0.75675  0.33803  1.0000
  C   C95       1.0  0.07759  0.74985  0.25751  1.0000
  N   N19       1.0  0.05792  0.73982  0.25793  1.0000
  C   C96       1.0  0.01727  0.70424  0.29790  1.0000
  C   C97       1.0  0.99675  0.69401  0.29476  1.0000
  H   H94       1.0  0.98948  0.67956  0.27839  1.0000
  H   H95       1.0  0.08472  0.75186  0.19824  1.0000
  C   C98       1.0  0.02742  0.69321  0.27837  1.0000
  H   H96       1.0  0.04310  0.70177  0.28695  1.0000
  H   H97       1.0  0.02449  0.68800  0.20960  1.0000
  H   H98       1.0  0.02208  0.68072  0.32301  1.0000
  N   N20       1.0  0.10712  0.76474  0.33581  1.0000
  C   C99       1.0  0.29836  0.33137  0.33814  1.0000
  C   C100      1.0  0.30526  0.32795  0.25762  1.0000
  N   N21       1.0  0.31531  0.31832  0.25805  1.0000
  C   C101      1.0  0.35089  0.31327  0.29798  1.0000
  C   C102      1.0  0.36112  0.30297  0.29492  1.0000
  H   H99       1.0  0.37557  0.31015  0.27853  1.0000
  H   H100      1.0  0.30326  0.33308  0.19835  1.0000
  C   C103      1.0  0.36193  0.33444  0.27850  1.0000
  H   H101      1.0  0.35336  0.34155  0.28705  1.0000
  H   H102      1.0  0.36715  0.33673  0.20975  1.0000
  H   H103      1.0  0.37440  0.34159  0.32318  1.0000
  N   N22       1.0  0.29036  0.34259  0.33590  1.0000
  C   C104      1.0  0.72382  0.96721  0.33832  1.0000
  C   C105      1.0  0.72720  0.97752  0.25780  1.0000
  N   N23       1.0  0.73682  0.99719  0.25818  1.0000
  C   C106      1.0  0.74186  0.03783  0.29800  1.0000
  C   C107      1.0  0.75214  0.05835  0.29483  1.0000
  H   H104      1.0  0.74495  0.06561  0.27853  1.0000
  H   H105      1.0  0.72207  0.97038  0.19856  1.0000
  C   C108      1.0  0.72068  0.02767  0.27862  1.0000
  H   H106      1.0  0.71358  0.01200  0.28725  1.0000
  H   H107      1.0  0.71838  0.03060  0.20985  1.0000
  H   H108      1.0  0.71353  0.03301  0.32330  1.0000
  N   N24       1.0  0.71258  0.94799  0.33610  1.0000
  C   C109      1.0  0.20674  0.38048  0.35611  1.0000
  C   C110      1.0  0.22357  0.37946  0.35604  1.0000
  C   C111      1.0  0.23937  0.39836  0.35168  1.0000
  N   N25       1.0  0.23156  0.41008  0.34858  1.0000
  C   C112      1.0  0.21188  0.40003  0.35172  1.0000
  C   C113      1.0  0.19853  0.40700  0.35156  1.0000
  C   C114      1.0  0.20380  0.42691  0.35017  1.0000
  N   N26       1.0  0.22186  0.44257  0.34955  1.0000
  C   C115      1.0  0.22148  0.45937  0.35055  1.0000
  C   C116      1.0  0.20191  0.45417  0.35161  1.0000
  C   C117      1.0  0.19101  0.43416  0.35083  1.0000
  C   C118      1.0  0.23754  0.47857  0.35246  1.0000
  C   C119      1.0  0.25737  0.48346  0.35057  1.0000
  N   N27       1.0  0.26518  0.47176  0.34354  1.0000
  C   C120      1.0  0.28486  0.48180  0.34572  1.0000
  C   C121      1.0  0.29000  0.50131  0.35331  1.0000
  C   C122      1.0  0.27319  0.50233  0.35632  1.0000
  C   C123      1.0  0.29826  0.47488  0.34262  1.0000
  C   C124      1.0  0.29296  0.45498  0.34208  1.0000
  N   N28       1.0  0.27490  0.43932  0.34518  1.0000
  C   C125      1.0  0.27525  0.42250  0.34608  1.0000
  C   C126      1.0  0.29484  0.42773  0.34359  1.0000
  C   C127      1.0  0.30574  0.44772  0.34018  1.0000
  C   C128      1.0  0.25922  0.40329  0.35047  1.0000
  C   C129      1.0  0.26343  0.38791  0.35849  1.0000
  C   C130      1.0  0.27316  0.35813  0.37726  1.0000
  C   C131      1.0  0.26845  0.36569  0.45268  1.0000
  C   C132      1.0  0.26373  0.38045  0.44356  1.0000
  C   C133      1.0  0.31847  0.48891  0.34362  1.0000
  C   C134      1.0  0.35861  0.51734  0.34666  1.0000
  C   C135      1.0  0.34925  0.50666  0.42437  1.0000
  C   C136      1.0  0.32935  0.49272  0.42309  1.0000
  C   C137      1.0  0.23349  0.49398  0.36396  1.0000
  C   C138      1.0  0.23276  0.50047  0.45074  1.0000
  C   C139      1.0  0.23009  0.51651  0.46310  1.0000
  C   C140      1.0  0.22800  0.52645  0.38930  1.0000
  C   C141      1.0  0.17835  0.39312  0.35656  1.0000
  C   C142      1.0  0.16863  0.38884  0.43949  1.0000
  C   C143      1.0  0.13737  0.36823  0.36550  1.0000
  C   C144      1.0  0.14837  0.37662  0.44376  1.0000
  H   H109      1.0  0.14168  0.37434  0.50453  1.0000
  H   H110      1.0  0.17614  0.39516  0.49687  1.0000
  H   H111      1.0  0.19306  0.36870  0.35945  1.0000
  H   H112      1.0  0.22393  0.36680  0.35884  1.0000
  H   H113      1.0  0.23912  0.42398  0.34476  1.0000
  H   H114      1.0  0.25760  0.45792  0.33649  1.0000
  H   H115      1.0  0.17618  0.42639  0.35189  1.0000
  H   H116      1.0  0.19629  0.46325  0.35293  1.0000
  H   H117      1.0  0.23462  0.49387  0.50548  1.0000
  H   H118      1.0  0.22999  0.52104  0.52699  1.0000
  H   H119      1.0  0.27285  0.51495  0.36265  1.0000
  H   H120      1.0  0.30366  0.51308  0.35806  1.0000
  H   H121      1.0  0.30050  0.41868  0.34394  1.0000
  H   H122      1.0  0.32056  0.45548  0.33824  1.0000
  H   H123      1.0  0.32286  0.48534  0.48051  1.0000
  H   H124      1.0  0.35678  0.50911  0.48289  1.0000
  H   H125      1.0  0.26071  0.38584  0.49955  1.0000
  H   H126      1.0  0.26880  0.36081  0.51553  1.0000
  C   C145      1.0  0.37813  0.53099  0.34898  1.0000
  C   C146      1.0  0.22654  0.54293  0.40431  1.0000
  C   C147      1.0  0.11727  0.35801  0.37033  1.0000
  C   C148      1.0  0.27851  0.34410  0.38924  1.0000
  H   H127      1.0  0.38738  0.52722  0.37396  1.0000
  H   H128      1.0  0.23138  0.54982  0.46219  1.0000
  H   H129      1.0  0.11088  0.36221  0.41540  1.0000
  H   H130      1.0  0.27386  0.33576  0.44340  1.0000
  C   C149      1.0  0.67464  0.82648  0.35576  1.0000
  C   C150      1.0  0.67567  0.84433  0.35577  1.0000
  C   C151      1.0  0.65677  0.84124  0.35172  1.0000
  N   N29       1.0  0.64504  0.82170  0.34870  1.0000
  C   C152      1.0  0.65509  0.81207  0.35167  1.0000
  C   C153      1.0  0.64812  0.79175  0.35171  1.0000
  C   C154      1.0  0.62821  0.77711  0.35050  1.0000
  N   N30       1.0  0.61255  0.77951  0.34986  1.0000
  C   C155      1.0  0.59575  0.76234  0.35110  1.0000
  C   C156      1.0  0.60094  0.74797  0.35236  1.0000
  C   C157      1.0  0.62095  0.75707  0.35150  1.0000
  C   C158      1.0  0.57655  0.75920  0.35299  1.0000
  C   C159      1.0  0.57166  0.77414  0.35077  1.0000
  N   N31       1.0  0.58336  0.79364  0.34383  1.0000
  C   C160      1.0  0.57332  0.80329  0.34581  1.0000
  C   C161      1.0  0.55380  0.78891  0.35311  1.0000
  C   C162      1.0  0.55278  0.77108  0.35605  1.0000
  C   C163      1.0  0.58024  0.82360  0.34283  1.0000
  C   C164      1.0  0.60014  0.83822  0.34255  1.0000
  N   N32       1.0  0.61580  0.83581  0.34551  1.0000
  C   C165      1.0  0.63262  0.85298  0.34655  1.0000
  C   C166      1.0  0.62740  0.86734  0.34421  1.0000
  C   C167      1.0  0.60740  0.85824  0.34089  1.0000
  C   C168      1.0  0.65184  0.85615  0.35074  1.0000
  C   C169      1.0  0.66721  0.87573  0.35875  1.0000
  C   C170      1.0  0.69701  0.91526  0.37751  1.0000
  C   C171      1.0  0.68946  0.90298  0.45291  1.0000
  C   C172      1.0  0.67470  0.88350  0.44380  1.0000
  C   C173      1.0  0.56621  0.82979  0.34380  1.0000
  C   C174      1.0  0.53780  0.84152  0.34672  1.0000
  C   C175      1.0  0.54843  0.84280  0.42451  1.0000
  C   C176      1.0  0.56236  0.83682  0.42330  1.0000
  C   C177      1.0  0.56113  0.73975  0.36439  1.0000
  C   C178      1.0  0.55458  0.73251  0.45112  1.0000
  C   C179      1.0  0.53854  0.71381  0.46337  1.0000
  C   C180      1.0  0.52865  0.70178  0.38951  1.0000
  C   C181      1.0  0.66200  0.78545  0.35668  1.0000
  C   C182      1.0  0.66629  0.78003  0.43961  1.0000
  C   C183      1.0  0.68688  0.76935  0.36558  1.0000
  C   C184      1.0  0.67851  0.77199  0.44386  1.0000
  H   H131      1.0  0.68081  0.76760  0.50466  1.0000
  H   H132      1.0  0.66000  0.78125  0.49702  1.0000
  H   H133      1.0  0.68642  0.82458  0.35909  1.0000
  H   H134      1.0  0.68832  0.85736  0.35853  1.0000
  H   H135      1.0  0.63114  0.81537  0.34528  1.0000
  H   H136      1.0  0.59721  0.79992  0.33732  1.0000
  H   H137      1.0  0.62872  0.75001  0.35257  1.0000
  H   H138      1.0  0.59187  0.73327  0.35385  1.0000
  H   H139      1.0  0.56116  0.74098  0.50589  1.0000
  H   H140      1.0  0.53398  0.70918  0.52723  1.0000
  H   H141      1.0  0.54015  0.75812  0.36239  1.0000
  H   H142      1.0  0.54203  0.79080  0.35759  1.0000
  H   H143      1.0  0.63644  0.88205  0.34460  1.0000
  H   H144      1.0  0.59964  0.86531  0.33882  1.0000
  H   H145      1.0  0.56970  0.83768  0.48077  1.0000
  H   H146      1.0  0.54594  0.84784  0.48307  1.0000
  H   H147      1.0  0.66932  0.87508  0.49978  1.0000
  H   H148      1.0  0.69436  0.90820  0.51575  1.0000
  C   C185      1.0  0.52417  0.84742  0.34892  1.0000
  C   C186      1.0  0.51217  0.68384  0.40441  1.0000
  C   C187      1.0  0.69710  0.75948  0.37043  1.0000
  C   C188      1.0  0.71104  0.93463  0.38949  1.0000
  H   H149      1.0  0.52791  0.86040  0.37430  1.0000
  H   H150      1.0  0.50524  0.68178  0.46221  1.0000
  H   H151      1.0  0.69291  0.74890  0.41556  1.0000
  H   H152      1.0  0.71938  0.93831  0.44364  1.0000
  C   C189      1.0  0.22864  0.84837  0.35566  1.0000
  C   C190      1.0  0.21079  0.83155  0.35561  1.0000
  C   C191      1.0  0.21388  0.81574  0.35135  1.0000
  N   N33       1.0  0.23343  0.82356  0.34825  1.0000
  C   C192      1.0  0.24305  0.84323  0.35131  1.0000
  C   C193      1.0  0.26337  0.85658  0.35116  1.0000
  C   C194      1.0  0.27801  0.85132  0.34985  1.0000
  N   N34       1.0  0.27561  0.83326  0.34926  1.0000
  C   C195      1.0  0.29279  0.83363  0.35035  1.0000
  C   C196      1.0  0.30716  0.85320  0.35154  1.0000
  C   C197      1.0  0.29805  0.86410  0.35071  1.0000
  C   C198      1.0  0.29593  0.81757  0.35233  1.0000
  C   C199      1.0  0.28099  0.79774  0.35035  1.0000
  N   N35       1.0  0.26149  0.78994  0.34337  1.0000
  C   C200      1.0  0.25184  0.77025  0.34550  1.0000
  C   C201      1.0  0.26622  0.76512  0.35297  1.0000
  C   C202      1.0  0.28405  0.78193  0.35588  1.0000
  C   C203      1.0  0.23153  0.75685  0.34248  1.0000
  C   C204      1.0  0.21692  0.76215  0.34211  1.0000
  N   N36       1.0  0.21932  0.78021  0.34510  1.0000
  C   C205      1.0  0.20215  0.77986  0.34603  1.0000
  C   C206      1.0  0.18779  0.76028  0.34354  1.0000
  C   C207      1.0  0.19689  0.74937  0.34028  1.0000
  C   C208      1.0  0.19897  0.79590  0.35022  1.0000
  C   C209      1.0  0.17939  0.79169  0.35828  1.0000
  C   C210      1.0  0.13986  0.78193  0.37715  1.0000
  C   C211      1.0  0.15214  0.78665  0.45253  1.0000
  C   C212      1.0  0.17162  0.79139  0.44336  1.0000
  C   C213      1.0  0.22535  0.73664  0.34341  1.0000
  C   C214      1.0  0.21360  0.69650  0.34620  1.0000
  C   C215      1.0  0.21230  0.70583  0.42400  1.0000
  C   C216      1.0  0.21827  0.72574  0.42284  1.0000
  C   C217      1.0  0.31538  0.82162  0.36389  1.0000
  C   C218      1.0  0.32259  0.82233  0.45068  1.0000
  C   C219      1.0  0.34130  0.82501  0.46308  1.0000
  C   C220      1.0  0.35334  0.82712  0.38931  1.0000
  C   C221      1.0  0.26967  0.87677  0.35619  1.0000
  C   C222      1.0  0.27509  0.88647  0.43914  1.0000
  C   C223      1.0  0.28575  0.91775  0.36518  1.0000
  C   C224      1.0  0.28313  0.90673  0.44342  1.0000
  H   H153      1.0  0.28751  0.91341  0.50423  1.0000
  H   H154      1.0  0.27388  0.87895  0.49652  1.0000
  H   H155      1.0  0.23054  0.86206  0.35895  1.0000
  H   H156      1.0  0.19777  0.83118  0.35840  1.0000
  H   H157      1.0  0.23976  0.81599  0.34450  1.0000
  H   H158      1.0  0.25521  0.79751  0.33667  1.0000
  H   H159      1.0  0.30511  0.87894  0.35174  1.0000
  H   H160      1.0  0.32186  0.85883  0.35296  1.0000
  H   H161      1.0  0.31412  0.82046  0.50540  1.0000
  H   H162      1.0  0.34591  0.82509  0.52699  1.0000
  H   H163      1.0  0.29701  0.78227  0.36219  1.0000
  H   H164      1.0  0.26433  0.75145  0.35755  1.0000
  H   H165      1.0  0.17308  0.75461  0.34382  1.0000
  H   H166      1.0  0.18983  0.73455  0.33815  1.0000
  H   H167      1.0  0.21738  0.73221  0.48030  1.0000
  H   H168      1.0  0.20721  0.69829  0.48249  1.0000
  H   H169      1.0  0.18004  0.79443  0.49933  1.0000
  H   H170      1.0  0.14692  0.78633  0.51539  1.0000
  C   C225      1.0  0.20769  0.67696  0.34831  1.0000
  C   C226      1.0  0.37129  0.82859  0.40437  1.0000
  C   C227      1.0  0.29562  0.93784  0.37007  1.0000
  C   C228      1.0  0.12049  0.77657  0.38919  1.0000
  H   H171      1.0  0.19471  0.66773  0.37369  1.0000
  H   H172      1.0  0.37333  0.82373  0.46222  1.0000
  H   H173      1.0  0.30620  0.94422  0.41520  1.0000
  H   H174      1.0  0.11679  0.78124  0.44328  1.0000
  C   C229      1.0  0.86659  0.65641  0.35615  1.0000
  C   C230      1.0  0.84976  0.65743  0.35609  1.0000
  C   C231      1.0  0.83395  0.63853  0.35178  1.0000
  N   N37       1.0  0.84177  0.62680  0.34872  1.0000
  C   C232      1.0  0.86145  0.63686  0.35183  1.0000
  C   C233      1.0  0.87480  0.62989  0.35177  1.0000
  C   C234      1.0  0.86954  0.60999  0.35052  1.0000
  N   N38       1.0  0.85148  0.59432  0.34998  1.0000
  C   C235      1.0  0.85186  0.57752  0.35110  1.0000
  C   C236      1.0  0.87143  0.58273  0.35217  1.0000
  C   C237      1.0  0.88233  0.60274  0.35136  1.0000
  C   C238      1.0  0.83580  0.55832  0.35312  1.0000
  C   C239      1.0  0.81597  0.55343  0.35100  1.0000
  N   N39       1.0  0.80816  0.56512  0.34394  1.0000
  C   C240      1.0  0.78848  0.55508  0.34598  1.0000
  C   C241      1.0  0.78334  0.53556  0.35354  1.0000
  C   C242      1.0  0.80015  0.53455  0.35654  1.0000
  C   C243      1.0  0.77508  0.56199  0.34291  1.0000
  C   C244      1.0  0.78037  0.58190  0.34243  1.0000
  N   N40       1.0  0.79843  0.59756  0.34545  1.0000
  C   C245      1.0  0.79807  0.61437  0.34641  1.0000
  C   C246      1.0  0.77849  0.60915  0.34396  1.0000
  C   C247      1.0  0.76759  0.58915  0.34062  1.0000
  C   C248      1.0  0.81411  0.63359  0.35061  1.0000
  C   C249      1.0  0.80989  0.64896  0.35871  1.0000
  C   C250      1.0  0.80016  0.67875  0.37760  1.0000
  C   C251      1.0  0.80485  0.67117  0.45299  1.0000
  C   C252      1.0  0.80958  0.65641  0.44381  1.0000
  C   C253      1.0  0.75487  0.54796  0.34394  1.0000
  C   C254      1.0  0.71473  0.51954  0.34696  1.0000
  C   C255      1.0  0.72408  0.53020  0.42469  1.0000
  C   C256      1.0  0.74398  0.54414  0.42341  1.0000
  C   C257      1.0  0.83985  0.54292  0.36452  1.0000
  C   C258      1.0  0.84057  0.53639  0.45126  1.0000
  C   C259      1.0  0.84323  0.52035  0.46354  1.0000
  C   C260      1.0  0.84533  0.51043  0.38969  1.0000
  C   C261      1.0  0.89499  0.64378  0.35670  1.0000
  C   C262      1.0  0.90470  0.64807  0.43960  1.0000
  C   C263      1.0  0.93596  0.66867  0.36549  1.0000
  C   C264      1.0  0.92496  0.66027  0.44377  1.0000
  H   H175      1.0  0.93167  0.66256  0.50453  1.0000
  H   H176      1.0  0.89721  0.64174  0.49700  1.0000
  H   H177      1.0  0.88027  0.66819  0.35954  1.0000
  H   H178      1.0  0.84939  0.67008  0.35888  1.0000
  H   H179      1.0  0.83421  0.61291  0.34495  1.0000
  H   H180      1.0  0.81574  0.57897  0.33725  1.0000
  H   H181      1.0  0.89716  0.61051  0.35220  1.0000
  H   H182      1.0  0.87706  0.57365  0.35353  1.0000
  H   H183      1.0  0.83870  0.54298  0.50604  1.0000
  H   H184      1.0  0.84331  0.51581  0.52742  1.0000
  H   H185      1.0  0.80050  0.52193  0.36295  1.0000
  H   H186      1.0  0.76968  0.52379  0.35812  1.0000
  H   H187      1.0  0.77282  0.61819  0.34433  1.0000
  H   H188      1.0  0.75276  0.58138  0.33869  1.0000
  H   H189      1.0  0.75046  0.55151  0.48083  1.0000
  H   H190      1.0  0.71654  0.52775  0.48322  1.0000
  H   H191      1.0  0.81259  0.65101  0.49978  1.0000
  H   H192      1.0  0.80451  0.67605  0.51586  1.0000
  C   C265      1.0  0.69520  0.50590  0.34925  1.0000
  C   C266      1.0  0.84678  0.49394  0.40462  1.0000
  C   C267      1.0  0.95606  0.67888  0.37025  1.0000
  C   C268      1.0  0.79484  0.69279  0.38963  1.0000
  H   H193      1.0  0.68595  0.50965  0.37438  1.0000
  H   H194      1.0  0.84191  0.48702  0.46243  1.0000
  H   H195      1.0  0.96245  0.67466  0.41528  1.0000
  H   H196      1.0  0.79947  0.70111  0.44384  1.0000
  C   C269      1.0  0.39870  0.21040  0.35653  1.0000
  C   C270      1.0  0.39767  0.19255  0.35647  1.0000
  C   C271      1.0  0.41657  0.19564  0.35214  1.0000
  N   N41       1.0  0.42830  0.21519  0.34905  1.0000
  C   C272      1.0  0.41825  0.22481  0.35216  1.0000
  C   C273      1.0  0.42522  0.24513  0.35200  1.0000
  C   C274      1.0  0.44512  0.25977  0.35062  1.0000
  N   N42       1.0  0.46078  0.25737  0.35003  1.0000
  C   C275      1.0  0.47758  0.27455  0.35105  1.0000
  C   C276      1.0  0.47238  0.28892  0.35208  1.0000
  C   C277      1.0  0.45237  0.27981  0.35128  1.0000
  C   C278      1.0  0.49678  0.27769  0.35298  1.0000
  C   C279      1.0  0.50167  0.26275  0.35112  1.0000
  N   N43       1.0  0.48998  0.24325  0.34409  1.0000
  C   C280      1.0  0.50002  0.23360  0.34628  1.0000
  C   C281      1.0  0.51953  0.24798  0.35388  1.0000
  C   C282      1.0  0.52054  0.26580  0.35689  1.0000
  C   C283      1.0  0.49310  0.21328  0.34318  1.0000
  C   C284      1.0  0.47319  0.19867  0.34262  1.0000
  N   N44       1.0  0.45754  0.20108  0.34571  1.0000
  C   C285      1.0  0.44072  0.18391  0.34659  1.0000
  C   C286      1.0  0.44594  0.16955  0.34410  1.0000
  C   C287      1.0  0.46594  0.17865  0.34072  1.0000
  C   C288      1.0  0.42150  0.18073  0.35095  1.0000
  C   C289      1.0  0.40613  0.16115  0.35892  1.0000
  C   C290      1.0  0.37633  0.12162  0.37760  1.0000
  C   C291      1.0  0.38389  0.13388  0.45305  1.0000
  C   C292      1.0  0.39865  0.15336  0.44397  1.0000
  C   C293      1.0  0.50713  0.20710  0.34418  1.0000
  C   C294      1.0  0.53555  0.19539  0.34722  1.0000
  C   C295      1.0  0.52488  0.19407  0.42493  1.0000
  C   C296      1.0  0.51094  0.20003  0.42365  1.0000
  C   C297      1.0  0.51219  0.29714  0.36447  1.0000
  C   C298      1.0  0.51868  0.30438  0.45124  1.0000
  C   C299      1.0  0.53472  0.32308  0.46359  1.0000
  C   C300      1.0  0.54466  0.33511  0.38978  1.0000
  C   C301      1.0  0.41133  0.25143  0.35694  1.0000
  C   C302      1.0  0.40705  0.25687  0.43984  1.0000
  C   C303      1.0  0.38645  0.26753  0.36576  1.0000
  C   C304      1.0  0.39483  0.26490  0.44405  1.0000
  H   H197      1.0  0.39254  0.26932  0.50481  1.0000
  H   H198      1.0  0.41335  0.25567  0.49725  1.0000
  H   H199      1.0  0.38691  0.21230  0.35985  1.0000
  H   H200      1.0  0.38502  0.17953  0.35925  1.0000
  H   H201      1.0  0.44220  0.22151  0.34526  1.0000
  H   H202      1.0  0.47614  0.23698  0.33702  1.0000
  H   H203      1.0  0.44460  0.28687  0.35231  1.0000
  H   H204      1.0  0.48146  0.30362  0.35340  1.0000
  H   H205      1.0  0.51208  0.29591  0.50598  1.0000
  H   H206      1.0  0.53925  0.32770  0.52748  1.0000
  H   H207      1.0  0.53317  0.27876  0.36321  1.0000
  H   H208      1.0  0.53130  0.24608  0.35864  1.0000
  H   H209      1.0  0.43690  0.15484  0.34444  1.0000
  H   H210      1.0  0.47371  0.17158  0.33878  1.0000
  H   H211      1.0  0.50355  0.19913  0.48106  1.0000
  H   H212      1.0  0.52732  0.18898  0.48346  1.0000
  H   H213      1.0  0.40404  0.16176  0.49998  1.0000
  H   H214      1.0  0.37900  0.12865  0.51589  1.0000
  C   C305      1.0  0.54920  0.18952  0.34953  1.0000
  C   C306      1.0  0.56114  0.35305  0.40479  1.0000
  C   C307      1.0  0.37622  0.27740  0.37054  1.0000
  C   C308      1.0  0.36229  0.10226  0.38953  1.0000
  H   H215      1.0  0.54544  0.17650  0.37453  1.0000
  H   H216      1.0  0.56803  0.35510  0.46266  1.0000
  H   H217      1.0  0.38042  0.28798  0.41563  1.0000
  H   H218      1.0  0.35394  0.09856  0.44367  1.0000
  C   C309      1.0  0.84470  0.18851  0.35566  1.0000
  C   C310      1.0  0.86255  0.20533  0.35566  1.0000
  C   C311      1.0  0.85946  0.22115  0.35162  1.0000
  N   N45       1.0  0.83992  0.21333  0.34863  1.0000
  C   C312      1.0  0.83029  0.19365  0.35159  1.0000
  C   C313      1.0  0.80997  0.18030  0.35165  1.0000
  C   C314      1.0  0.79534  0.18557  0.35045  1.0000
  N   N46       1.0  0.79773  0.20364  0.34978  1.0000
  C   C315      1.0  0.78056  0.20326  0.35101  1.0000
  C   C316      1.0  0.76619  0.18370  0.35230  1.0000
  C   C317      1.0  0.77529  0.17279  0.35146  1.0000
  C   C318      1.0  0.77742  0.21932  0.35285  1.0000
  C   C319      1.0  0.79236  0.23915  0.35067  1.0000
  N   N47       1.0  0.81186  0.24696  0.34373  1.0000
  C   C320      1.0  0.82151  0.26664  0.34572  1.0000
  C   C321      1.0  0.80713  0.27178  0.35304  1.0000
  C   C322      1.0  0.78930  0.25497  0.35598  1.0000
  C   C323      1.0  0.84182  0.28004  0.34273  1.0000
  C   C324      1.0  0.85644  0.27474  0.34245  1.0000
  N   N48       1.0  0.85403  0.25668  0.34542  1.0000
  C   C325      1.0  0.87120  0.25703  0.34645  1.0000
  C   C326      1.0  0.88556  0.27661  0.34410  1.0000
  C   C327      1.0  0.87646  0.28751  0.34077  1.0000
  C   C328      1.0  0.87437  0.24099  0.35063  1.0000
  C   C329      1.0  0.89395  0.24519  0.35863  1.0000
  C   C330      1.0  0.93348  0.25493  0.37737  1.0000
  C   C331      1.0  0.92120  0.25019  0.45278  1.0000
  C   C332      1.0  0.90172  0.24546  0.44367  1.0000
  C   C333      1.0  0.84801  0.30025  0.34367  1.0000
  C   C334      1.0  0.85974  0.34039  0.34652  1.0000
  C   C335      1.0  0.86102  0.33104  0.42434  1.0000
  C   C336      1.0  0.85504  0.31114  0.42316  1.0000
  C   C337      1.0  0.75797  0.21528  0.36433  1.0000
  C   C338      1.0  0.75075  0.21460  0.45110  1.0000
  C   C339      1.0  0.73205  0.21194  0.46342  1.0000
  C   C340      1.0  0.72001  0.20980  0.38962  1.0000
  C   C341      1.0  0.80367  0.16012  0.35662  1.0000
  C   C342      1.0  0.79825  0.15040  0.43955  1.0000
  C   C343      1.0  0.78757  0.11914  0.36550  1.0000
  C   C344      1.0  0.79021  0.13015  0.44379  1.0000
  H   H219      1.0  0.78582  0.12345  0.50459  1.0000
  H   H220      1.0  0.79947  0.15791  0.49696  1.0000
  H   H221      1.0  0.84280  0.17483  0.35898  1.0000
  H   H222      1.0  0.87558  0.20570  0.35840  1.0000
  H   H223      1.0  0.83359  0.22090  0.34524  1.0000
  H   H224      1.0  0.81814  0.23938  0.33717  1.0000
  H   H225      1.0  0.76823  0.15796  0.35255  1.0000
  H   H226      1.0  0.75149  0.17807  0.35378  1.0000
  H   H227      1.0  0.75922  0.21648  0.50584  1.0000
  H   H228      1.0  0.72742  0.21186  0.52731  1.0000
  H   H229      1.0  0.77634  0.25464  0.36232  1.0000
  H   H230      1.0  0.80902  0.28545  0.35753  1.0000
  H   H231      1.0  0.90027  0.28228  0.34448  1.0000
  H   H232      1.0  0.88353  0.30234  0.33871  1.0000
  H   H233      1.0  0.85590  0.30465  0.48064  1.0000
  H   H234      1.0  0.86607  0.33858  0.48287  1.0000
  H   H235      1.0  0.89330  0.24242  0.49966  1.0000
  H   H236      1.0  0.92641  0.25050  0.51561  1.0000
  C   C345      1.0  0.86565  0.35993  0.34868  1.0000
  C   C346      1.0  0.70206  0.20833  0.40459  1.0000
  C   C347      1.0  0.77770  0.09904  0.37035  1.0000
  C   C348      1.0  0.95285  0.26027  0.38934  1.0000
  H   H237      1.0  0.87862  0.36916  0.37414  1.0000
  H   H238      1.0  0.70001  0.21320  0.46241  1.0000
  H   H239      1.0  0.76712  0.09266  0.41550  1.0000
  H   H240      1.0  0.95654  0.25562  0.44348  1.0000
  C   C349      1.0  0.21376  0.59882  0.34506  1.0000
  C   C350      1.0  0.21383  0.59064  0.42929  1.0000
  C   C351      1.0  0.21557  0.57378  0.42984  1.0000
  H   H241      1.0  0.21548  0.56756  0.48970  1.0000
  C   C352      1.0  0.21362  0.61638  0.33487  1.0000
  C   C353      1.0  0.21690  0.65324  0.32693  1.0000
  C   C354      1.0  0.23235  0.65077  0.35592  1.0000
  N   N49       1.0  0.23013  0.63275  0.35968  1.0000
  H   H242      1.0  0.24519  0.66235  0.37647  1.0000
  C   C355      1.0  0.21189  0.59846  0.51645  1.0000
  H   H243      1.0  0.20981  0.61094  0.50964  1.0000
  H   H244      1.0  0.22494  0.60289  0.55630  1.0000
  H   H245      1.0  0.19939  0.58723  0.55266  1.0000
  N   N50       1.0  0.21949  0.67107  0.32592  1.0000
  C   C356      1.0  0.45628  0.61519  0.34512  1.0000
  C   C357      1.0  0.46449  0.62341  0.42934  1.0000
  C   C358      1.0  0.48135  0.64200  0.42990  1.0000
  H   H246      1.0  0.48759  0.64813  0.48974  1.0000
  C   C359      1.0  0.43872  0.59750  0.33499  1.0000
  C   C360      1.0  0.40186  0.56392  0.32730  1.0000
  C   C361      1.0  0.40434  0.58185  0.35617  1.0000
  N   N51       1.0  0.42235  0.59763  0.35980  1.0000
  H   H247      1.0  0.39275  0.58311  0.37669  1.0000
  C   C362      1.0  0.45667  0.61364  0.51651  1.0000
  H   H248      1.0  0.44417  0.59909  0.50969  1.0000
  H   H249      1.0  0.45227  0.62227  0.55648  1.0000
  H   H250      1.0  0.46790  0.61235  0.55258  1.0000
  N   N52       1.0  0.38402  0.54867  0.32646  1.0000
  C   C363      1.0  0.43995  0.84134  0.34526  1.0000
  C   C364      1.0  0.43170  0.84128  0.42946  1.0000
  C   C365      1.0  0.41311  0.83955  0.42997  1.0000
  H   H251      1.0  0.40696  0.83965  0.48981  1.0000
  C   C366      1.0  0.45765  0.84148  0.33513  1.0000
  C   C367      1.0  0.49124  0.83821  0.32739  1.0000
  C   C368      1.0  0.47331  0.82275  0.35628  1.0000
  N   N53       1.0  0.45752  0.82497  0.35994  1.0000
  H   H252      1.0  0.47206  0.80991  0.37677  1.0000
  C   C369      1.0  0.44144  0.84322  0.51665  1.0000
  H   H253      1.0  0.45600  0.84528  0.50988  1.0000
  H   H254      1.0  0.43281  0.83017  0.55653  1.0000
  H   H255      1.0  0.44271  0.85572  0.55280  1.0000
  N   N54       1.0  0.50649  0.83563  0.32641  1.0000
  C   C370      1.0  0.85954  0.43804  0.34526  1.0000
  C   C371      1.0  0.85948  0.44623  0.42950  1.0000
  C   C372      1.0  0.85775  0.46309  0.43008  1.0000
  H   H256      1.0  0.85784  0.46932  0.48995  1.0000
  C   C373      1.0  0.85968  0.42049  0.33506  1.0000
  C   C374      1.0  0.85643  0.38364  0.32722  1.0000
  C   C375      1.0  0.84096  0.38610  0.35604  1.0000
  N   N55       1.0  0.84317  0.40411  0.35981  1.0000
  H   H257      1.0  0.82812  0.37451  0.37660  1.0000
  C   C376      1.0  0.86141  0.43840  0.51665  1.0000
  H   H258      1.0  0.86347  0.42590  0.50982  1.0000
  H   H259      1.0  0.84837  0.43398  0.55653  1.0000
  H   H260      1.0  0.87391  0.44962  0.55284  1.0000
  N   N56       1.0  0.85385  0.36581  0.32620  1.0000
  C   C377      1.0  0.61703  0.42172  0.34555  1.0000
  C   C378      1.0  0.60884  0.41347  0.42977  1.0000
  C   C379      1.0  0.59199  0.39487  0.43031  1.0000
  H   H261      1.0  0.58575  0.38873  0.49017  1.0000
  C   C380      1.0  0.63460  0.43940  0.33538  1.0000
  C   C381      1.0  0.67147  0.47297  0.32759  1.0000
  C   C382      1.0  0.66899  0.45504  0.35653  1.0000
  N   N57       1.0  0.65097  0.43926  0.36024  1.0000
  H   H262      1.0  0.68056  0.45378  0.37713  1.0000
  C   C383      1.0  0.61666  0.42322  0.51693  1.0000
  H   H263      1.0  0.62914  0.43779  0.51013  1.0000
  H   H264      1.0  0.62108  0.41460  0.55681  1.0000
  H   H265      1.0  0.60542  0.42449  0.55311  1.0000
  N   N58       1.0  0.68931  0.48822  0.32671  1.0000
  C   C384      1.0  0.63340  0.19557  0.34552  1.0000
  C   C385      1.0  0.64164  0.19559  0.42972  1.0000
  C   C386      1.0  0.66023  0.19732  0.43021  1.0000
  H   H266      1.0  0.66636  0.19721  0.49004  1.0000
  C   C387      1.0  0.61571  0.19543  0.33543  1.0000
  C   C388      1.0  0.58213  0.19871  0.32781  1.0000
  C   C389      1.0  0.60006  0.21417  0.35665  1.0000
  N   N59       1.0  0.61585  0.21194  0.36025  1.0000
  H   H267      1.0  0.60133  0.22701  0.37715  1.0000
  C   C390      1.0  0.63188  0.19364  0.51691  1.0000
  H   H268      1.0  0.61732  0.19158  0.51014  1.0000
  H   H269      1.0  0.64051  0.20667  0.55685  1.0000
  H   H270      1.0  0.63060  0.18112  0.55299  1.0000
  N   N60       1.0  0.56689  0.20131  0.32699  1.0000
  C   C391      1.0  0.02634  0.30103  0.33326  1.0000
  C   C392      1.0  0.01689  0.29447  0.41712  1.0000
  C   C393      1.0  0.99634  0.28400  0.41771  1.0000
  H   H271      1.0  0.98922  0.27983  0.47756  1.0000
  C   C394      1.0  0.04664  0.31273  0.32310  1.0000
  C   C395      1.0  0.08742  0.33382  0.31680  1.0000
  C   C396      1.0  0.07721  0.31395  0.33850  1.0000
  N   N61       1.0  0.05754  0.30435  0.34174  1.0000
  H   H272      1.0  0.08443  0.30676  0.35485  1.0000
  C   C397      1.0  0.02709  0.29877  0.50454  1.0000
  H   H273      1.0  0.04281  0.30763  0.49876  1.0000
  H   H274      1.0  0.02375  0.28519  0.53735  1.0000
  H   H275      1.0  0.02216  0.30660  0.54717  1.0000
  N   N62       1.0  0.10669  0.34369  0.31818  1.0000
  C   C398      1.0  0.75410  0.72554  0.33346  1.0000
  C   C399      1.0  0.76065  0.72266  0.41733  1.0000
  C   C400      1.0  0.77116  0.71261  0.41794  1.0000
  H   H276      1.0  0.77529  0.70964  0.47781  1.0000
  C   C401      1.0  0.74240  0.73413  0.32326  1.0000
  C   C402      1.0  0.72130  0.75382  0.31689  1.0000
  C   C403      1.0  0.74117  0.76349  0.33852  1.0000
  N   N63       1.0  0.75077  0.75342  0.34186  1.0000
  H   H277      1.0  0.74835  0.77789  0.35502  1.0000
  C   C404      1.0  0.75634  0.72856  0.50473  1.0000
  H   H278      1.0  0.74747  0.73541  0.49892  1.0000
  H   H279      1.0  0.76992  0.73882  0.53749  1.0000
  H   H280      1.0  0.74853  0.71582  0.54742  1.0000
  N   N64       1.0  0.71142  0.76321  0.31826  1.0000
  C   C405      1.0  0.32954  0.02878  0.33326  1.0000
  C   C406      1.0  0.33242  0.03820  0.41715  1.0000
  C   C407      1.0  0.34249  0.05875  0.41779  1.0000
  H   H281      1.0  0.34546  0.06586  0.47767  1.0000
  C   C408      1.0  0.32096  0.00848  0.32304  1.0000
  C   C409      1.0  0.30128  0.96770  0.31660  1.0000
  C   C410      1.0  0.29160  0.97789  0.33828  1.0000
  N   N65       1.0  0.30167  0.99756  0.34163  1.0000
  H   H282      1.0  0.27720  0.97067  0.35468  1.0000
  C   C411      1.0  0.32654  0.02799  0.50455  1.0000
  H   H283      1.0  0.31967  0.01227  0.49871  1.0000
  H   H284      1.0  0.31630  0.03132  0.53743  1.0000
  H   H285      1.0  0.33929  0.03290  0.54714  1.0000
  N   N66       1.0  0.29189  0.94843  0.31792  1.0000
  C   C412      1.0  0.04700  0.73585  0.33312  1.0000
  C   C413      1.0  0.05644  0.74241  0.41698  1.0000
  C   C414      1.0  0.07699  0.75288  0.41755  1.0000
  H   H286      1.0  0.08411  0.75703  0.47739  1.0000
  C   C415      1.0  0.02670  0.72416  0.32299  1.0000
  C   C416      1.0  0.98592  0.70308  0.31674  1.0000
  C   C417      1.0  0.99613  0.72295  0.33841  1.0000
  N   N67       1.0  0.01580  0.73255  0.34163  1.0000
  H   H287      1.0  0.98892  0.73015  0.35477  1.0000
  C   C418      1.0  0.04624  0.73810  0.50441  1.0000
  H   H288      1.0  0.03052  0.72925  0.49864  1.0000
  H   H289      1.0  0.04958  0.75168  0.53723  1.0000
  H   H290      1.0  0.05116  0.73027  0.54703  1.0000
  N   N68       1.0  0.96665  0.69321  0.31816  1.0000
  C   C419      1.0  0.31927  0.31138  0.33325  1.0000
  C   C420      1.0  0.31271  0.31426  0.41710  1.0000
  C   C421      1.0  0.30224  0.32435  0.41766  1.0000
  H   H291      1.0  0.29807  0.32730  0.47751  1.0000
  C   C422      1.0  0.33097  0.30277  0.32311  1.0000
  C   C423      1.0  0.35205  0.28307  0.31690  1.0000
  C   C424      1.0  0.33218  0.27341  0.33860  1.0000
  N   N69       1.0  0.32258  0.28349  0.34179  1.0000
  H   H292      1.0  0.32498  0.25901  0.35498  1.0000
  C   C425      1.0  0.31701  0.30837  0.50454  1.0000
  H   H293      1.0  0.32587  0.30151  0.49877  1.0000
  H   H294      1.0  0.30343  0.29813  0.53736  1.0000
  H   H295      1.0  0.32484  0.32112  0.54715  1.0000
  N   N70       1.0  0.36192  0.27367  0.31833  1.0000
  C   C426      1.0  0.74376  0.00811  0.33334  1.0000
  C   C427      1.0  0.74089  0.99868  0.41721  1.0000
  C   C428      1.0  0.73084  0.97813  0.41782  1.0000
  H   H296      1.0  0.72787  0.97101  0.47769  1.0000
  C   C429      1.0  0.75236  0.02841  0.32314  1.0000
  C   C430      1.0  0.77204  0.06919  0.31679  1.0000
  C   C431      1.0  0.78172  0.05899  0.33842  1.0000
  N   N71       1.0  0.77164  0.03932  0.34175  1.0000
  H   H297      1.0  0.79611  0.06621  0.35492  1.0000
  C   C432      1.0  0.74678  0.00888  0.50462  1.0000
  H   H298      1.0  0.75363  0.02460  0.49881  1.0000
  H   H299      1.0  0.75704  0.00556  0.53737  1.0000
  H   H300      1.0  0.73404  0.00395  0.54730  1.0000
  N   N72       1.0  0.78143  0.08846  0.31817  1.0000
