data_image0
_chemical_formula_structural       C3HC4H2CH3C3HC4H2CH3C3HC4H2CH3C5H3CH3C5H3CH3C5H3CH3C3HC4H2CH3C3HC4H2CH3C3HC4H2CH3C3HC4H2CH3C3HC4H2CH3C3HC4H2CH3C5H3CH3C5H3CH3C5H3CH3C5H3CH3C5H3CH3C5H3CH3C3HC4H2CH3C3HC4H2CH3C3HC4H2CH3C3HC4H2CH3C3HC4H2CH3C3HC4H2CH3C6H3C6H3C6H3C6H3C6H3C6H3C6H3C6H3C6H3C6H3C6H3C6H3C6H3C6H3C6H3C6H3C5H3CH3C5H3CH3C5H3CH3C3HC4H2CH3C3HC4H2CH3C3HC4H2CH3C5H3CH3C5H3CH3C5H3CH3C5H3CH3C5H3CH3C5H3CH3C3HC4H2CH3C3HC4H2CH3C3HC4H2CH3C3HC4H2CH3C3HC4H2CH3C3HC4H2CH3C5H3CH3C5H3CH3C5H3CH3C5H3CH3C5H3CH3C5H3CH3
_chemical_formula_sum              "C432 H336"
_cell_length_a       63.4564
_cell_length_b       63.4563
_cell_length_c       14.8897
_cell_angle_alpha    90
_cell_angle_beta     90
_cell_angle_gamma    120

_space_group_name_H-M_alt    "P 1"
_space_group_IT_number       1

loop_
  _space_group_symop_operation_xyz
  'x, y, z'

loop_
  _atom_site_type_symbol
  _atom_site_label
  _atom_site_symmetry_multiplicity
  _atom_site_fract_x
  _atom_site_fract_y
  _atom_site_fract_z
  _atom_site_occupancy
  C   C1        1.0  0.00639  0.11811  0.33627  1.0000
  C   C2        1.0  0.99049  0.12175  0.28018  1.0000
  C   C3        1.0  0.99015  0.14383  0.28088  1.0000
  H   H1        1.0  0.97863  0.14560  0.23749  1.0000
  C   C4        1.0  0.00633  0.09534  0.33165  1.0000
  C   C5        1.0  0.00575  0.04937  0.33181  1.0000
  C   C6        1.0  0.02111  0.06870  0.27351  1.0000
  C   C7        1.0  0.02155  0.09135  0.27187  1.0000
  H   H2        1.0  0.03197  0.06600  0.22965  1.0000
  H   H3        1.0  0.97903  0.10825  0.23721  1.0000
  C   C8        1.0  0.03782  0.11052  0.20725  1.0000
  H   H4        1.0  0.05067  0.12692  0.24347  1.0000
  H   H5        1.0  0.02698  0.11495  0.16240  1.0000
  H   H6        1.0  0.04832  0.10488  0.16577  1.0000
  C   C9        1.0  0.89115  0.89013  0.33627  1.0000
  C   C10       1.0  0.88751  0.87059  0.28019  1.0000
  C   C11       1.0  0.86543  0.84816  0.28093  1.0000
  H   H7        1.0  0.86366  0.83488  0.23749  1.0000
  C   C12       1.0  0.91392  0.91283  0.33165  1.0000
  C   C13       1.0  0.95989  0.95823  0.33180  1.0000
  C   C14       1.0  0.94056  0.95426  0.27351  1.0000
  C   C15       1.0  0.91791  0.93205  0.27187  1.0000
  H   H8        1.0  0.94325  0.96781  0.22967  1.0000
  H   H9        1.0  0.90101  0.87262  0.23721  1.0000
  C   C16       1.0  0.89874  0.92915  0.20726  1.0000
  H   H10       1.0  0.88234  0.92560  0.24349  1.0000
  H   H11       1.0  0.89430  0.91388  0.16241  1.0000
  H   H12       1.0  0.90438  0.94529  0.16578  1.0000
  C   C17       1.0  0.11913  0.00287  0.33623  1.0000
  C   C18       1.0  0.13868  0.01878  0.28015  1.0000
  C   C19       1.0  0.16110  0.01912  0.28088  1.0000
  H   H13       1.0  0.17439  0.03064  0.23749  1.0000
  C   C20       1.0  0.09643  0.00293  0.33160  1.0000
  C   C21       1.0  0.05103  0.00351  0.33179  1.0000
  C   C22       1.0  0.05500  0.98815  0.27348  1.0000
  C   C23       1.0  0.07721  0.98771  0.27183  1.0000
  H   H14       1.0  0.04145  0.97729  0.22965  1.0000
  H   H15       1.0  0.13664  0.03024  0.23719  1.0000
  C   C24       1.0  0.08012  0.97144  0.20722  1.0000
  H   H16       1.0  0.08366  0.95859  0.24345  1.0000
  H   H17       1.0  0.09538  0.98228  0.16236  1.0000
  H   H18       1.0  0.06397  0.96094  0.16574  1.0000
  C   C25       1.0  0.05013  0.25493  0.35038  1.0000
  C   C26       1.0  0.06991  0.26161  0.29100  1.0000
  C   C27       1.0  0.09029  0.28562  0.28868  1.0000
  C   C28       1.0  0.10869  0.34470  0.28681  1.0000
  C   C29       1.0  0.12631  0.36962  0.28585  1.0000
  H   H19       1.0  0.09446  0.33848  0.24252  1.0000
  H   H20       1.0  0.12449  0.38058  0.23980  1.0000
  H   H21       1.0  0.06889  0.24903  0.24555  1.0000
  C   C30       1.0  0.11022  0.29175  0.22307  1.0000
  H   H22       1.0  0.10722  0.27611  0.18278  1.0000
  H   H23       1.0  0.12744  0.29844  0.25861  1.0000
  H   H24       1.0  0.11173  0.30586  0.17725  1.0000
  C   C31       1.0  0.75433  0.79705  0.35043  1.0000
  C   C32       1.0  0.74764  0.81012  0.29099  1.0000
  C   C33       1.0  0.72364  0.80650  0.28871  1.0000
  C   C34       1.0  0.66456  0.76583  0.28684  1.0000
  C   C35       1.0  0.63964  0.75854  0.28586  1.0000
  H   H25       1.0  0.67078  0.75783  0.24256  1.0000
  H   H26       1.0  0.62868  0.74576  0.23983  1.0000
  H   H27       1.0  0.76023  0.82170  0.24559  1.0000
  C   C36       1.0  0.71750  0.82030  0.22310  1.0000
  H   H28       1.0  0.73314  0.83294  0.18279  1.0000
  H   H29       1.0  0.71082  0.83084  0.25865  1.0000
  H   H30       1.0  0.70339  0.80770  0.17730  1.0000
  C   C37       1.0  0.21222  0.95914  0.35042  1.0000
  C   C38       1.0  0.19911  0.93935  0.29109  1.0000
  C   C39       1.0  0.20274  0.91898  0.28877  1.0000
  C   C40       1.0  0.24341  0.90057  0.28683  1.0000
  C   C41       1.0  0.25071  0.88295  0.28586  1.0000
  H   H31       1.0  0.25142  0.91480  0.24255  1.0000
  H   H32       1.0  0.26348  0.88477  0.23980  1.0000
  H   H33       1.0  0.18756  0.94038  0.24560  1.0000
  C   C42       1.0  0.18894  0.89904  0.22316  1.0000
  H   H34       1.0  0.17630  0.90204  0.18288  1.0000
  H   H35       1.0  0.17840  0.88182  0.25870  1.0000
  H   H36       1.0  0.20154  0.89754  0.17733  1.0000
  C   C43       1.0  0.30546  0.08898  0.32896  1.0000
  C   C44       1.0  0.29862  0.06981  0.26688  1.0000
  C   C45       1.0  0.27476  0.04989  0.26508  1.0000
  H   H37       1.0  0.27081  0.03619  0.22015  1.0000
  C   C46       1.0  0.33042  0.10803  0.33024  1.0000
  C   C47       1.0  0.38143  0.14383  0.33336  1.0000
  C   C48       1.0  0.36514  0.14567  0.27301  1.0000
  C   C49       1.0  0.33995  0.12814  0.26997  1.0000
  H   H38       1.0  0.37193  0.15982  0.22831  1.0000
  H   H39       1.0  0.31118  0.06991  0.22336  1.0000
  C   C50       1.0  0.32396  0.13103  0.20393  1.0000
  H   H40       1.0  0.30935  0.13194  0.23912  1.0000
  H   H41       1.0  0.31599  0.11554  0.15812  1.0000
  H   H42       1.0  0.33376  0.14753  0.16360  1.0000
  C   C51       1.0  0.79094  0.70381  0.32894  1.0000
  C   C52       1.0  0.77862  0.71066  0.26682  1.0000
  C   C53       1.0  0.78255  0.73451  0.26508  1.0000
  H   H43       1.0  0.77280  0.73847  0.22015  1.0000
  C   C54       1.0  0.78502  0.67884  0.33021  1.0000
  C   C55       1.0  0.76981  0.62783  0.33333  1.0000
  C   C56       1.0  0.78793  0.64412  0.27297  1.0000
  C   C57       1.0  0.79560  0.66931  0.26993  1.0000
  H   H44       1.0  0.79529  0.63732  0.22829  1.0000
  H   H45       1.0  0.76614  0.69809  0.22335  1.0000
  C   C58       1.0  0.81448  0.68529  0.20392  1.0000
  H   H46       1.0  0.83000  0.69990  0.23912  1.0000
  H   H47       1.0  0.80696  0.69327  0.15810  1.0000
  H   H48       1.0  0.82117  0.67549  0.16358  1.0000
  C   C59       1.0  0.92029  0.21833  0.32890  1.0000
  C   C60       1.0  0.93946  0.23065  0.26680  1.0000
  C   C61       1.0  0.95939  0.22672  0.26504  1.0000
  H   H49       1.0  0.97308  0.23645  0.22006  1.0000
  C   C62       1.0  0.90125  0.22426  0.33017  1.0000
  C   C63       1.0  0.86544  0.23945  0.33335  1.0000
  C   C64       1.0  0.86359  0.22132  0.27303  1.0000
  C   C65       1.0  0.88113  0.21366  0.26995  1.0000
  H   H50       1.0  0.84944  0.21396  0.22833  1.0000
  H   H51       1.0  0.93937  0.24312  0.22329  1.0000
  C   C66       1.0  0.87823  0.19478  0.20393  1.0000
  H   H52       1.0  0.87733  0.17927  0.23913  1.0000
  H   H53       1.0  0.89372  0.20230  0.15808  1.0000
  H   H54       1.0  0.86173  0.18808  0.16363  1.0000
  C   C67       1.0  0.31033  0.48146  0.36016  1.0000
  C   C68       1.0  0.32364  0.50150  0.30228  1.0000
  C   C69       1.0  0.34924  0.51394  0.30132  1.0000
  H   H55       1.0  0.35819  0.52770  0.25585  1.0000
  C   C70       1.0  0.28441  0.46933  0.35800  1.0000
  C   C71       1.0  0.23261  0.44681  0.36067  1.0000
  C   C72       1.0  0.24450  0.43994  0.29652  1.0000
  C   C73       1.0  0.27023  0.45098  0.29388  1.0000
  H   H56       1.0  0.23427  0.42743  0.24842  1.0000
  H   H57       1.0  0.31475  0.50695  0.25894  1.0000
  C   C74       1.0  0.28187  0.44343  0.22393  1.0000
  H   H58       1.0  0.29291  0.43676  0.25578  1.0000
  H   H59       1.0  0.29355  0.45894  0.18130  1.0000
  H   H60       1.0  0.26860  0.42898  0.18070  1.0000
  C   C75       1.0  0.52780  0.83072  0.36010  1.0000
  C   C76       1.0  0.50777  0.82401  0.30220  1.0000
  C   C77       1.0  0.49533  0.83718  0.30121  1.0000
  H   H61       1.0  0.48156  0.83235  0.25580  1.0000
  C   C78       1.0  0.53993  0.81694  0.35793  1.0000
  C   C79       1.0  0.56247  0.78768  0.36067  1.0000
  C   C80       1.0  0.56931  0.80641  0.29644  1.0000
  C   C81       1.0  0.55827  0.82110  0.29380  1.0000
  H   H62       1.0  0.58183  0.80868  0.24837  1.0000
  H   H63       1.0  0.50231  0.80966  0.25889  1.0000
  C   C82       1.0  0.56582  0.84029  0.22383  1.0000
  H   H64       1.0  0.57249  0.85799  0.25565  1.0000
  H   H65       1.0  0.55031  0.83645  0.18121  1.0000
  H   H66       1.0  0.58027  0.84147  0.18059  1.0000
  C   C83       1.0  0.17855  0.69893  0.36009  1.0000
  C   C84       1.0  0.18527  0.68561  0.30224  1.0000
  C   C85       1.0  0.17209  0.66001  0.30122  1.0000
  H   H67       1.0  0.17692  0.65106  0.25582  1.0000
  C   C86       1.0  0.19234  0.72484  0.35792  1.0000
  C   C87       1.0  0.22161  0.77665  0.36063  1.0000
  C   C88       1.0  0.20288  0.76476  0.29640  1.0000
  C   C89       1.0  0.18817  0.73903  0.29380  1.0000
  H   H68       1.0  0.20058  0.77499  0.24839  1.0000
  H   H69       1.0  0.19961  0.69450  0.25889  1.0000
  C   C90       1.0  0.16897  0.72739  0.22386  1.0000
  H   H70       1.0  0.15127  0.71636  0.25572  1.0000
  H   H71       1.0  0.17279  0.71570  0.18125  1.0000
  H   H72       1.0  0.16780  0.74066  0.18062  1.0000
  C   C91       1.0  0.50805  0.35983  0.32096  1.0000
  C   C92       1.0  0.48828  0.34596  0.26218  1.0000
  C   C93       1.0  0.47560  0.32021  0.26158  1.0000
  C   C94       1.0  0.47783  0.27009  0.25871  1.0000
  C   C95       1.0  0.46685  0.24463  0.25741  1.0000
  H   H73       1.0  0.49088  0.27998  0.21169  1.0000
  H   H74       1.0  0.47235  0.23677  0.20974  1.0000
  H   H75       1.0  0.48288  0.35487  0.21878  1.0000
  C   C96       1.0  0.45445  0.30680  0.20018  1.0000
  H   H76       1.0  0.45057  0.31893  0.16050  1.0000
  H   H77       1.0  0.43818  0.29496  0.23917  1.0000
  H   H78       1.0  0.45803  0.29570  0.15359  1.0000
  C   C97       1.0  0.85918  0.50121  0.32093  1.0000
  C   C98       1.0  0.86509  0.52098  0.26215  1.0000
  C   C99       1.0  0.85201  0.53366  0.26153  1.0000
  C   C100      1.0  0.79968  0.53145  0.25863  1.0000
  C   C101      1.0  0.78520  0.54242  0.25733  1.0000
  H   H79       1.0  0.79651  0.51839  0.21164  1.0000
  H   H80       1.0  0.77183  0.53691  0.20970  1.0000
  H   H81       1.0  0.87940  0.52638  0.21877  1.0000
  C   C102      1.0  0.85976  0.55481  0.20014  1.0000
  H   H82       1.0  0.87577  0.55869  0.16046  1.0000
  H   H83       1.0  0.86419  0.57108  0.23913  1.0000
  H   H84       1.0  0.84508  0.55123  0.15354  1.0000
  C   C103      1.0  0.64943  0.15008  0.32096  1.0000
  C   C104      1.0  0.66330  0.14417  0.26220  1.0000
  C   C105      1.0  0.68906  0.15724  0.26160  1.0000
  C   C106      1.0  0.73918  0.20958  0.25870  1.0000
  C   C107      1.0  0.76464  0.22405  0.25741  1.0000
  H   H85       1.0  0.72929  0.21274  0.21171  1.0000
  H   H86       1.0  0.77250  0.23742  0.20977  1.0000
  H   H87       1.0  0.65440  0.12986  0.21882  1.0000
  C   C108      1.0  0.70246  0.14950  0.20022  1.0000
  H   H88       1.0  0.69033  0.13348  0.16054  1.0000
  H   H89       1.0  0.71430  0.14506  0.23922  1.0000
  H   H90       1.0  0.71357  0.16417  0.15362  1.0000
  C   C109      1.0  0.16758  0.46662  0.33398  1.0000
  C   C110      1.0  0.18072  0.48703  0.27712  1.0000
  C   C111      1.0  0.17653  0.50695  0.27599  1.0000
  C   C112      1.0  0.13815  0.52658  0.26745  1.0000
  C   C113      1.0  0.13217  0.54508  0.26608  1.0000
  H   H91       1.0  0.13116  0.51348  0.21849  1.0000
  H   H92       1.0  0.12084  0.54477  0.21649  1.0000
  H   H93       1.0  0.19391  0.48753  0.23607  1.0000
  C   C114      1.0  0.19164  0.52822  0.21703  1.0000
  H   H94       1.0  0.20530  0.52621  0.17936  1.0000
  H   H95       1.0  0.20118  0.54470  0.25764  1.0000
  H   H96       1.0  0.18007  0.53055  0.16863  1.0000
  C   C115      1.0  0.54263  0.70282  0.33400  1.0000
  C   C116      1.0  0.52222  0.69555  0.27715  1.0000
  C   C117      1.0  0.50231  0.67145  0.27602  1.0000
  C   C118      1.0  0.48268  0.61344  0.26746  1.0000
  C   C119      1.0  0.46419  0.58896  0.26611  1.0000
  H   H97       1.0  0.49577  0.61954  0.21849  1.0000
  H   H98       1.0  0.46449  0.57793  0.21651  1.0000
  H   H99       1.0  0.52172  0.70824  0.23608  1.0000
  C   C120      1.0  0.48103  0.66528  0.21706  1.0000
  H   H100      1.0  0.48304  0.68095  0.17939  1.0000
  H   H101      1.0  0.46456  0.65835  0.25767  1.0000
  H   H102      1.0  0.47870  0.65138  0.16866  1.0000
  C   C121      1.0  0.30645  0.84169  0.33394  1.0000
  C   C122      1.0  0.31372  0.82856  0.27705  1.0000
  C   C123      1.0  0.33782  0.83274  0.27591  1.0000
  C   C124      1.0  0.39583  0.87110  0.26737  1.0000
  C   C125      1.0  0.42031  0.87709  0.26602  1.0000
  H   H103      1.0  0.38973  0.87811  0.21845  1.0000
  H   H104      1.0  0.43134  0.88843  0.21647  1.0000
  H   H105      1.0  0.30103  0.81536  0.23602  1.0000
  C   C126      1.0  0.34398  0.81763  0.21693  1.0000
  H   H106      1.0  0.32832  0.80398  0.17925  1.0000
  H   H107      1.0  0.35091  0.80809  0.25753  1.0000
  H   H108      1.0  0.35789  0.82920  0.16853  1.0000
  C   C127      1.0  0.50831  0.15562  0.34343  1.0000
  C   C128      1.0  0.48771  0.14210  0.28818  1.0000
  C   C129      1.0  0.46818  0.14669  0.28862  1.0000
  H   H109      1.0  0.45406  0.13725  0.24494  1.0000
  C   C130      1.0  0.52772  0.15045  0.34009  1.0000
  C   C131      1.0  0.56549  0.13845  0.34175  1.0000
  C   C132      1.0  0.56501  0.15421  0.27570  1.0000
  C   C133      1.0  0.54637  0.16036  0.27363  1.0000
  H   H110      1.0  0.57790  0.16047  0.22602  1.0000
  H   H111      1.0  0.48696  0.12905  0.24568  1.0000
  C   C134      1.0  0.54646  0.17672  0.20188  1.0000
  H   H112      1.0  0.54706  0.19269  0.23203  1.0000
  H   H113      1.0  0.53000  0.16713  0.16133  1.0000
  H   H114      1.0  0.56207  0.18307  0.15692  1.0000
  C   C135      1.0  0.65471  0.50095  0.34343  1.0000
  C   C136      1.0  0.66179  0.52156  0.28823  1.0000
  C   C137      1.0  0.68592  0.54108  0.28862  1.0000
  H   H115      1.0  0.69060  0.55520  0.24494  1.0000
  C   C138      1.0  0.63013  0.48154  0.34009  1.0000
  C   C139      1.0  0.58036  0.44380  0.34171  1.0000
  C   C140      1.0  0.59659  0.44426  0.27568  1.0000
  C   C141      1.0  0.62139  0.46289  0.27365  1.0000
  H   H116      1.0  0.58997  0.43135  0.22606  1.0000
  H   H117      1.0  0.64950  0.52230  0.24569  1.0000
  C   C142      1.0  0.63767  0.46278  0.20195  1.0000
  H   H118      1.0  0.65302  0.46217  0.23215  1.0000
  H   H119      1.0  0.64456  0.47925  0.16139  1.0000
  H   H120      1.0  0.62841  0.44717  0.15699  1.0000
  C   C143      1.0  0.85364  0.35454  0.34341  1.0000
  C   C144      1.0  0.86716  0.34746  0.28819  1.0000
  C   C145      1.0  0.86256  0.32334  0.28860  1.0000
  H   H121      1.0  0.87201  0.31866  0.24496  1.0000
  C   C146      1.0  0.85881  0.37912  0.34007  1.0000
  C   C147      1.0  0.87082  0.42889  0.34169  1.0000
  C   C148      1.0  0.85505  0.41265  0.27568  1.0000
  C   C149      1.0  0.84890  0.38786  0.27361  1.0000
  H   H122      1.0  0.84879  0.41928  0.22598  1.0000
  H   H123      1.0  0.88021  0.35976  0.24567  1.0000
  C   C150      1.0  0.83253  0.37159  0.20187  1.0000
  H   H124      1.0  0.81657  0.35622  0.23202  1.0000
  H   H125      1.0  0.84212  0.36471  0.16131  1.0000
  H   H126      1.0  0.82618  0.38085  0.15690  1.0000
  C   C151      1.0  0.01836  0.55095  0.34037  1.0000
  C   C152      1.0  0.03269  0.57128  0.28521  1.0000
  C   C153      1.0  0.05818  0.58287  0.28822  1.0000
  H   H127      1.0  0.06806  0.59693  0.24481  1.0000
  C   C154      1.0  0.99278  0.53856  0.32922  1.0000
  C   C155      1.0  0.94125  0.51100  0.32518  1.0000
  C   C156      1.0  0.95531  0.50656  0.26241  1.0000
  C   C157      1.0  0.98101  0.52004  0.26330  1.0000
  H   H128      1.0  0.94661  0.49294  0.21610  1.0000
  H   H129      1.0  0.02468  0.57737  0.24036  1.0000
  C   C158      1.0  0.99496  0.51409  0.19751  1.0000
  H   H130      1.0  0.00649  0.50860  0.23293  1.0000
  H   H131      1.0  0.00642  0.53005  0.15652  1.0000
  H   H132      1.0  0.98318  0.49931  0.15219  1.0000
  C   C159      1.0  0.45830  0.46926  0.34020  1.0000
  C   C160      1.0  0.43796  0.46326  0.28507  1.0000
  C   C161      1.0  0.42639  0.47718  0.28809  1.0000
  H   H133      1.0  0.41230  0.47297  0.24479  1.0000
  C   C162      1.0  0.47068  0.45607  0.32904  1.0000
  C   C163      1.0  0.49826  0.43211  0.32514  1.0000
  C   C164      1.0  0.50269  0.45059  0.26232  1.0000
  C   C165      1.0  0.48920  0.46281  0.26316  1.0000
  H   H134      1.0  0.51630  0.45551  0.21601  1.0000
  H   H135      1.0  0.43185  0.44915  0.24027  1.0000
  C   C166      1.0  0.49514  0.48269  0.19731  1.0000
  H   H136      1.0  0.50064  0.49972  0.23269  1.0000
  H   H137      1.0  0.47919  0.47818  0.15630  1.0000
  H   H138      1.0  0.50993  0.48569  0.15201  1.0000
  C   C167      1.0  0.54001  0.99090  0.34034  1.0000
  C   C168      1.0  0.54602  0.97657  0.28523  1.0000
  C   C169      1.0  0.53208  0.95108  0.28813  1.0000
  H   H139      1.0  0.53629  0.94120  0.24480  1.0000
  C   C170      1.0  0.55319  0.01648  0.32918  1.0000
  C   C171      1.0  0.57714  0.06801  0.32523  1.0000
  C   C172      1.0  0.55865  0.05396  0.26246  1.0000
  C   C173      1.0  0.54644  0.02825  0.26330  1.0000
  H   H140      1.0  0.55374  0.06265  0.21611  1.0000
  H   H141      1.0  0.56011  0.98458  0.24034  1.0000
  C   C174      1.0  0.52656  0.01431  0.19745  1.0000
  H   H142      1.0  0.50953  0.00276  0.23284  1.0000
  H   H143      1.0  0.53107  0.00286  0.15645  1.0000
  H   H144      1.0  0.52356  0.02609  0.15216  1.0000
  C   C175      1.0  0.00565  0.02646  0.33235  1.0000
  C   C176      1.0  0.02767  0.02572  0.33240  1.0000
  C   C177      1.0  0.02823  0.00361  0.33234  1.0000
  C   C178      1.0  0.00547  0.98159  0.33240  1.0000
  C   C179      1.0  0.98280  0.98103  0.33235  1.0000
  C   C180      1.0  0.98354  0.00379  0.33241  1.0000
  H   H145      1.0  0.00540  0.96542  0.33229  1.0000
  H   H146      1.0  0.96744  0.00386  0.33230  1.0000
  H   H147      1.0  0.04384  0.04182  0.33229  1.0000
  C   C181      1.0  0.02811  0.23172  0.34421  1.0000
  C   C182      1.0  0.00559  0.23109  0.33770  1.0000
  C   C183      1.0  0.98310  0.20916  0.33087  1.0000
  C   C184      1.0  0.98356  0.18702  0.33224  1.0000
  C   C185      1.0  0.00565  0.18637  0.33723  1.0000
  C   C186      1.0  0.02770  0.20915  0.34230  1.0000
  H   H148      1.0  0.96735  0.17102  0.32916  1.0000
  H   H149      1.0  0.04394  0.20942  0.34523  1.0000
  H   H150      1.0  0.00556  0.24723  0.33789  1.0000
  C   C187      1.0  0.77754  0.79824  0.34429  1.0000
  C   C188      1.0  0.77817  0.77634  0.33777  1.0000
  C   C189      1.0  0.80010  0.77578  0.33094  1.0000
  C   C190      1.0  0.82224  0.79838  0.33229  1.0000
  C   C191      1.0  0.82289  0.82112  0.33726  1.0000
  C   C192      1.0  0.80011  0.82039  0.34233  1.0000
  H   H151      1.0  0.83825  0.79817  0.32920  1.0000
  H   H152      1.0  0.79984  0.83637  0.34525  1.0000
  H   H153      1.0  0.76203  0.76017  0.33797  1.0000
  C   C193      1.0  0.21102  0.98115  0.34427  1.0000
  C   C194      1.0  0.23293  0.00368  0.33774  1.0000
  C   C195      1.0  0.23348  0.02617  0.33092  1.0000
  C   C196      1.0  0.21088  0.02571  0.33227  1.0000
  C   C197      1.0  0.18814  0.00362  0.33724  1.0000
  C   C198      1.0  0.18887  0.98157  0.34232  1.0000
  H   H154      1.0  0.21109  0.04192  0.32918  1.0000
  H   H155      1.0  0.17289  0.96532  0.34523  1.0000
  H   H156      1.0  0.24909  0.00370  0.33795  1.0000
  C   C199      1.0  0.17426  0.44819  0.34070  1.0000
  C   C200      1.0  0.19910  0.45524  0.34930  1.0000
  C   C201      1.0  0.20709  0.43815  0.35502  1.0000
  C   C202      1.0  0.18938  0.41311  0.35197  1.0000
  C   C203      1.0  0.16411  0.40499  0.34589  1.0000
  C   C204      1.0  0.15703  0.42296  0.34049  1.0000
  H   H157      1.0  0.19507  0.40061  0.35482  1.0000
  H   H158      1.0  0.13894  0.41761  0.33599  1.0000
  H   H159      1.0  0.21181  0.47341  0.35094  1.0000
  C   C205      1.0  0.56107  0.72794  0.34070  1.0000
  C   C206      1.0  0.55403  0.74572  0.34930  1.0000
  C   C207      1.0  0.57112  0.77081  0.35503  1.0000
  C   C208      1.0  0.59616  0.77813  0.35198  1.0000
  C   C209      1.0  0.60427  0.76098  0.34589  1.0000
  C   C210      1.0  0.58630  0.73593  0.34049  1.0000
  H   H160      1.0  0.60866  0.79632  0.35482  1.0000
  H   H161      1.0  0.59165  0.72319  0.33600  1.0000
  H   H162      1.0  0.53585  0.74027  0.35096  1.0000
  C   C211      1.0  0.28133  0.83500  0.34067  1.0000
  C   C212      1.0  0.26355  0.81017  0.34926  1.0000
  C   C213      1.0  0.23847  0.80217  0.35497  1.0000
  C   C214      1.0  0.23114  0.81987  0.35196  1.0000
  C   C215      1.0  0.24828  0.84515  0.34587  1.0000
  C   C216      1.0  0.27333  0.85223  0.34047  1.0000
  H   H163      1.0  0.21294  0.81418  0.35480  1.0000
  H   H164      1.0  0.28607  0.87032  0.33598  1.0000
  H   H165      1.0  0.26901  0.79745  0.35092  1.0000
  C   C217      1.0  0.45018  0.17161  0.33872  1.0000
  C   C218      1.0  0.45730  0.19649  0.33130  1.0000
  C   C219      1.0  0.44026  0.20456  0.32636  1.0000
  C   C220      1.0  0.41521  0.18689  0.32895  1.0000
  C   C221      1.0  0.40702  0.16159  0.33385  1.0000
  C   C222      1.0  0.42494  0.15442  0.33853  1.0000
  H   H166      1.0  0.40275  0.19264  0.32659  1.0000
  H   H167      1.0  0.41954  0.13631  0.34211  1.0000
  H   H168      1.0  0.47549  0.20918  0.32986  1.0000
  C   C223      1.0  0.72883  0.55907  0.33871  1.0000
  C   C224      1.0  0.74659  0.55196  0.33130  1.0000
  C   C225      1.0  0.77170  0.56900  0.32635  1.0000
  C   C226      1.0  0.77908  0.59405  0.32894  1.0000
  C   C227      1.0  0.76197  0.60224  0.33384  1.0000
  C   C228      1.0  0.73689  0.58432  0.33851  1.0000
  H   H169      1.0  0.79729  0.60651  0.32656  1.0000
  H   H170      1.0  0.72417  0.58971  0.34210  1.0000
  H   H171      1.0  0.74110  0.53377  0.32985  1.0000
  C   C229      1.0  0.83765  0.28042  0.33875  1.0000
  C   C230      1.0  0.81278  0.26266  0.33134  1.0000
  C   C231      1.0  0.80471  0.23755  0.32640  1.0000
  C   C232      1.0  0.82238  0.23017  0.32900  1.0000
  C   C233      1.0  0.84768  0.24729  0.33387  1.0000
  C   C234      1.0  0.85484  0.27237  0.33852  1.0000
  H   H172      1.0  0.81663  0.21196  0.32661  1.0000
  H   H173      1.0  0.87295  0.28509  0.34210  1.0000
  H   H174      1.0  0.80009  0.26816  0.32990  1.0000
  C   C235      1.0  0.09567  0.58490  0.34517  1.0000
  C   C236      1.0  0.10620  0.56995  0.33902  1.0000
  C   C237      1.0  0.13167  0.57970  0.33849  1.0000
  C   C238      1.0  0.14682  0.60527  0.34623  1.0000
  C   C239      1.0  0.13693  0.62095  0.35202  1.0000
  C   C240      1.0  0.11128  0.61031  0.35006  1.0000
  H   H175      1.0  0.16530  0.61251  0.34744  1.0000
  H   H176      1.0  0.10368  0.62123  0.35315  1.0000
  H   H177      1.0  0.09499  0.55147  0.33476  1.0000
  C   C241      1.0  0.42436  0.51263  0.34513  1.0000
  C   C242      1.0  0.43931  0.53810  0.33898  1.0000
  C   C243      1.0  0.42955  0.55382  0.33850  1.0000
  C   C244      1.0  0.40399  0.54342  0.34627  1.0000
  C   C245      1.0  0.38831  0.51784  0.35206  1.0000
  C   C246      1.0  0.39895  0.50283  0.35007  1.0000
  H   H178      1.0  0.39675  0.55465  0.34752  1.0000
  H   H179      1.0  0.38802  0.48431  0.35315  1.0000
  H   H180      1.0  0.45779  0.54538  0.33470  1.0000
  C   C247      1.0  0.49664  0.91359  0.34512  1.0000
  C   C248      1.0  0.47116  0.90307  0.33896  1.0000
  C   C249      1.0  0.45544  0.87760  0.33844  1.0000
  C   C250      1.0  0.46585  0.86244  0.34621  1.0000
  C   C251      1.0  0.49143  0.87233  0.35202  1.0000
  C   C252      1.0  0.50644  0.89799  0.35004  1.0000
  H   H181      1.0  0.45462  0.84396  0.34744  1.0000
  H   H182      1.0  0.52496  0.90558  0.35314  1.0000
  H   H183      1.0  0.46388  0.91427  0.33469  1.0000
  C   C253      1.0  0.58755  0.09369  0.32790  1.0000
  C   C254      1.0  0.57240  0.10399  0.33298  1.0000
  C   C255      1.0  0.58203  0.12943  0.33589  1.0000
  C   C256      1.0  0.60763  0.14475  0.33068  1.0000
  C   C257      1.0  0.62348  0.13502  0.32558  1.0000
  C   C258      1.0  0.61296  0.10937  0.32608  1.0000
  H   H184      1.0  0.61477  0.16322  0.33085  1.0000
  H   H185      1.0  0.62394  0.10184  0.32398  1.0000
  H   H186      1.0  0.55390  0.09265  0.33505  1.0000
  C   C259      1.0  0.51354  0.42172  0.32787  1.0000
  C   C260      1.0  0.53899  0.43687  0.33294  1.0000
  C   C261      1.0  0.55480  0.42725  0.33584  1.0000
  C   C262      1.0  0.54453  0.40165  0.33067  1.0000
  C   C263      1.0  0.51895  0.38579  0.32556  1.0000
  C   C264      1.0  0.50382  0.39631  0.32605  1.0000
  H   H187      1.0  0.55585  0.39450  0.33085  1.0000
  H   H188      1.0  0.48529  0.38531  0.32394  1.0000
  H   H189      1.0  0.54614  0.45536  0.33500  1.0000
  C   C265      1.0  0.91558  0.49571  0.32787  1.0000
  C   C266      1.0  0.90527  0.47026  0.33294  1.0000
  C   C267      1.0  0.87984  0.45445  0.33582  1.0000
  C   C268      1.0  0.86452  0.46473  0.33064  1.0000
  C   C269      1.0  0.87424  0.49030  0.32554  1.0000
  C   C270      1.0  0.89989  0.50543  0.32603  1.0000
  H   H190      1.0  0.84605  0.45341  0.33081  1.0000
  H   H191      1.0  0.90742  0.52396  0.32396  1.0000
  H   H192      1.0  0.91662  0.46311  0.33500  1.0000
  C   C271      1.0  0.00575  0.16352  0.33729  1.0000
  C   C272      1.0  0.02152  0.15965  0.39373  1.0000
  C   C273      1.0  0.02209  0.13750  0.39449  1.0000
  C   C274      1.0  0.99088  0.07609  0.38970  1.0000
  C   C275      1.0  0.99051  0.05365  0.38937  1.0000
  H   H193      1.0  0.97976  0.07834  0.43370  1.0000
  H   H194      1.0  0.97927  0.04050  0.43377  1.0000
  H   H195      1.0  0.03266  0.17324  0.43692  1.0000
  C   C276      1.0  0.03907  0.13489  0.45644  1.0000
  H   H196      1.0  0.04995  0.15119  0.49677  1.0000
  H   H197      1.0  0.05159  0.13131  0.41806  1.0000
  H   H198      1.0  0.02876  0.11977  0.50240  1.0000
  C   C277      1.0  0.84574  0.84407  0.33731  1.0000
  C   C278      1.0  0.84961  0.86372  0.39372  1.0000
  C   C279      1.0  0.87176  0.88643  0.39450  1.0000
  C   C280      1.0  0.93317  0.91663  0.38967  1.0000
  C   C281      1.0  0.95562  0.93870  0.38932  1.0000
  H   H199      1.0  0.93091  0.90326  0.43370  1.0000
  H   H200      1.0  0.96876  0.94061  0.43378  1.0000
  H   H201      1.0  0.83602  0.86127  0.43694  1.0000
  C   C282      1.0  0.87437  0.90601  0.45645  1.0000
  H   H202      1.0  0.85808  0.90060  0.49678  1.0000
  H   H203      1.0  0.87796  0.92212  0.41808  1.0000
  H   H204      1.0  0.88950  0.91083  0.50242  1.0000
  C   C283      1.0  0.16520  0.00352  0.33728  1.0000
  C   C284      1.0  0.14554  0.98774  0.39370  1.0000
  C   C285      1.0  0.12283  0.98717  0.39446  1.0000
  C   C286      1.0  0.09263  0.01838  0.38965  1.0000
  C   C287      1.0  0.07056  0.01876  0.38931  1.0000
  H   H205      1.0  0.10600  0.02950  0.43368  1.0000
  H   H206      1.0  0.06865  0.02999  0.43378  1.0000
  H   H207      1.0  0.14799  0.97661  0.43692  1.0000
  C   C288      1.0  0.10325  0.97020  0.45641  1.0000
  H   H208      1.0  0.10866  0.95932  0.49675  1.0000
  H   H209      1.0  0.08714  0.95768  0.41804  1.0000
  H   H210      1.0  0.09843  0.98051  0.50238  1.0000
  C   C289      1.0  0.09114  0.30357  0.34849  1.0000
  C   C290      1.0  0.07177  0.29676  0.40963  1.0000
  C   C291      1.0  0.05174  0.27296  0.41054  1.0000
  H   H211      1.0  0.03793  0.26902  0.45493  1.0000
  C   C292      1.0  0.11028  0.32849  0.34790  1.0000
  C   C293      1.0  0.14629  0.37943  0.34579  1.0000
  C   C294      1.0  0.14781  0.36305  0.40666  1.0000
  C   C295      1.0  0.13016  0.33789  0.40920  1.0000
  H   H212      1.0  0.16180  0.36976  0.45205  1.0000
  H   H213      1.0  0.07181  0.30931  0.45303  1.0000
  C   C296      1.0  0.13270  0.32180  0.47577  1.0000
  H   H214      1.0  0.13365  0.30716  0.44098  1.0000
  H   H215      1.0  0.11704  0.31388  0.52081  1.0000
  H   H216      1.0  0.14906  0.33151  0.51689  1.0000
  C   C297      1.0  0.70569  0.78941  0.34854  1.0000
  C   C298      1.0  0.71250  0.77685  0.40967  1.0000
  C   C299      1.0  0.73630  0.78062  0.41059  1.0000
  H   H217      1.0  0.74024  0.77076  0.45502  1.0000
  C   C300      1.0  0.68076  0.78362  0.34795  1.0000
  C   C301      1.0  0.62984  0.76872  0.34580  1.0000
  C   C302      1.0  0.64621  0.78662  0.40663  1.0000
  C   C303      1.0  0.67138  0.79412  0.40922  1.0000
  H   H218      1.0  0.63950  0.79389  0.45207  1.0000
  H   H219      1.0  0.69996  0.76435  0.45311  1.0000
  C   C304      1.0  0.68746  0.81275  0.47579  1.0000
  H   H220      1.0  0.70211  0.82833  0.44101  1.0000
  H   H221      1.0  0.69537  0.80500  0.52087  1.0000
  H   H222      1.0  0.67776  0.81941  0.51688  1.0000
  C   C305      1.0  0.21984  0.91812  0.34856  1.0000
  C   C306      1.0  0.23240  0.93749  0.40968  1.0000
  C   C307      1.0  0.22863  0.95752  0.41063  1.0000
  H   H223      1.0  0.23851  0.97133  0.45497  1.0000
  C   C308      1.0  0.22562  0.89898  0.34796  1.0000
  C   C309      1.0  0.24053  0.86296  0.34578  1.0000
  C   C310      1.0  0.22264  0.86144  0.40663  1.0000
  C   C311      1.0  0.21513  0.87909  0.40923  1.0000
  H   H224      1.0  0.21537  0.84746  0.45207  1.0000
  H   H225      1.0  0.24491  0.93745  0.45311  1.0000
  C   C312      1.0  0.19651  0.87656  0.47583  1.0000
  H   H226      1.0  0.18093  0.87562  0.44107  1.0000
  H   H227      1.0  0.20426  0.89221  0.52089  1.0000
  H   H228      1.0  0.18985  0.86019  0.51692  1.0000
  C   C313      1.0  0.25670  0.04819  0.32529  1.0000
  C   C314      1.0  0.26341  0.06778  0.38560  1.0000
  C   C315      1.0  0.28747  0.08805  0.38881  1.0000
  C   C316      1.0  0.34654  0.10610  0.39080  1.0000
  C   C317      1.0  0.37150  0.12362  0.39224  1.0000
  H   H229      1.0  0.34022  0.09170  0.43432  1.0000
  H   H230      1.0  0.38239  0.12156  0.43791  1.0000
  H   H231      1.0  0.25080  0.06667  0.43117  1.0000
  C   C318      1.0  0.29364  0.10776  0.45546  1.0000
  H   H232      1.0  0.27799  0.10472  0.49574  1.0000
  H   H233      1.0  0.30048  0.12513  0.42082  1.0000
  H   H234      1.0  0.30765  0.10899  0.50122  1.0000
  C   C319      1.0  0.79891  0.75256  0.32531  1.0000
  C   C320      1.0  0.81177  0.74585  0.38565  1.0000
  C   C321      1.0  0.80798  0.72178  0.38883  1.0000
  C   C322      1.0  0.76697  0.66272  0.39076  1.0000
  C   C323      1.0  0.75953  0.63776  0.39222  1.0000
  H   H235      1.0  0.75888  0.66904  0.43430  1.0000
  H   H236      1.0  0.74658  0.62687  0.43789  1.0000
  H   H237      1.0  0.82327  0.75845  0.43119  1.0000
  C   C324      1.0  0.82151  0.71561  0.45549  1.0000
  H   H238      1.0  0.83412  0.73126  0.49579  1.0000
  H   H239      1.0  0.83205  0.70877  0.42085  1.0000
  H   H240      1.0  0.80873  0.70159  0.50122  1.0000
  C   C325      1.0  0.96108  0.21035  0.32524  1.0000
  C   C326      1.0  0.94150  0.19751  0.38566  1.0000
  C   C327      1.0  0.92123  0.20130  0.38882  1.0000
  C   C328      1.0  0.90318  0.24231  0.39074  1.0000
  C   C329      1.0  0.88565  0.24973  0.39223  1.0000
  H   H241      1.0  0.91758  0.25039  0.43426  1.0000
  H   H242      1.0  0.88772  0.26269  0.43788  1.0000
  H   H243      1.0  0.94260  0.18600  0.43117  1.0000
  C   C330      1.0  0.90152  0.18777  0.45550  1.0000
  H   H244      1.0  0.90457  0.17517  0.49582  1.0000
  H   H245      1.0  0.88415  0.17723  0.42086  1.0000
  H   H246      1.0  0.90028  0.20055  0.50120  1.0000
  C   C331      1.0  0.36237  0.50683  0.35844  1.0000
  C   C332      1.0  0.34886  0.48717  0.41806  1.0000
  C   C333      1.0  0.32310  0.47428  0.41982  1.0000
  C   C334      1.0  0.27255  0.47582  0.42335  1.0000
  C   C335      1.0  0.24709  0.46474  0.42458  1.0000
  H   H247      1.0  0.28240  0.48899  0.47004  1.0000
  H   H248      1.0  0.23918  0.47029  0.47187  1.0000
  H   H249      1.0  0.35803  0.48199  0.46107  1.0000
  C   C336      1.0  0.31005  0.45327  0.48207  1.0000
  H   H250      1.0  0.32242  0.44969  0.52156  1.0000
  H   H251      1.0  0.29823  0.43685  0.44379  1.0000
  H   H252      1.0  0.29896  0.45682  0.52884  1.0000
  C   C337      1.0  0.50244  0.85741  0.35836  1.0000
  C   C338      1.0  0.52209  0.86355  0.41799  1.0000
  C   C339      1.0  0.53498  0.85068  0.41974  1.0000
  C   C340      1.0  0.53345  0.79859  0.42331  1.0000
  C   C341      1.0  0.54453  0.78421  0.42456  1.0000
  H   H253      1.0  0.52028  0.79528  0.47000  1.0000
  H   H254      1.0  0.53899  0.77076  0.47188  1.0000
  H   H255      1.0  0.52728  0.87790  0.46100  1.0000
  C   C342      1.0  0.55599  0.85863  0.48199  1.0000
  H   H256      1.0  0.55958  0.87459  0.52147  1.0000
  H   H257      1.0  0.57242  0.86324  0.44370  1.0000
  H   H258      1.0  0.55244  0.84399  0.52876  1.0000
  C   C343      1.0  0.15185  0.64689  0.35834  1.0000
  C   C344      1.0  0.14572  0.66041  0.41799  1.0000
  C   C345      1.0  0.15859  0.68617  0.41974  1.0000
  C   C346      1.0  0.21069  0.73671  0.42327  1.0000
  C   C347      1.0  0.22507  0.76217  0.42452  1.0000
  H   H259      1.0  0.21400  0.72686  0.46999  1.0000
  H   H260      1.0  0.23852  0.77008  0.47185  1.0000
  H   H261      1.0  0.13137  0.65124  0.46100  1.0000
  C   C348      1.0  0.15064  0.69922  0.48199  1.0000
  H   H262      1.0  0.13468  0.68686  0.52147  1.0000
  H   H263      1.0  0.14604  0.71104  0.44371  1.0000
  H   H264      1.0  0.16529  0.71031  0.52876  1.0000
  C   C349      1.0  0.48314  0.30778  0.32144  1.0000
  C   C350      1.0  0.50328  0.32144  0.37851  1.0000
  C   C351      1.0  0.51549  0.34704  0.37844  1.0000
  H   H265      1.0  0.52939  0.35624  0.42317  1.0000
  C   C352      1.0  0.47131  0.28189  0.32424  1.0000
  C   C353      1.0  0.44896  0.23010  0.32136  1.0000
  C   C354      1.0  0.44213  0.24192  0.38592  1.0000
  C   C355      1.0  0.45308  0.26764  0.38865  1.0000
  H   H266      1.0  0.42967  0.23164  0.43405  1.0000
  H   H267      1.0  0.50901  0.31280  0.42193  1.0000
  C   C356      1.0  0.44553  0.27922  0.45888  1.0000
  H   H268      1.0  0.43870  0.29015  0.42729  1.0000
  H   H269      1.0  0.46108  0.29098  0.50116  1.0000
  H   H270      1.0  0.43120  0.26591  0.50240  1.0000
  C   C357      1.0  0.83204  0.52612  0.32139  1.0000
  C   C358      1.0  0.82555  0.50598  0.37846  1.0000
  C   C359      1.0  0.83893  0.49376  0.37834  1.0000
  H   H271      1.0  0.83425  0.47988  0.42315  1.0000
  C   C360      1.0  0.81799  0.53796  0.32418  1.0000
  C   C361      1.0  0.78854  0.56030  0.32132  1.0000
  C   C362      1.0  0.80719  0.56713  0.38587  1.0000
  C   C363      1.0  0.82197  0.55619  0.38859  1.0000
  H   H272      1.0  0.80938  0.57959  0.43403  1.0000
  H   H273      1.0  0.81119  0.50026  0.42188  1.0000
  C   C364      1.0  0.84109  0.56373  0.45884  1.0000
  H   H274      1.0  0.85885  0.57056  0.42726  1.0000
  H   H275      1.0  0.83730  0.54817  0.50111  1.0000
  H   H276      1.0  0.84211  0.57806  0.50236  1.0000
  C   C365      1.0  0.70149  0.17721  0.32146  1.0000
  C   C366      1.0  0.68783  0.18370  0.37855  1.0000
  C   C367      1.0  0.66223  0.17031  0.37846  1.0000
  H   H277      1.0  0.65304  0.17501  0.42320  1.0000
  C   C368      1.0  0.72738  0.19127  0.32427  1.0000
  C   C369      1.0  0.77917  0.22071  0.32141  1.0000
  C   C370      1.0  0.76735  0.20206  0.38598  1.0000
  C   C371      1.0  0.74163  0.18728  0.38867  1.0000
  H   H278      1.0  0.77763  0.19987  0.43409  1.0000
  H   H279      1.0  0.69647  0.19806  0.42196  1.0000
  C   C372      1.0  0.73005  0.16816  0.45890  1.0000
  H   H280      1.0  0.71912  0.15040  0.42730  1.0000
  H   H281      1.0  0.71828  0.17194  0.50118  1.0000
  H   H282      1.0  0.74336  0.16714  0.50242  1.0000
  C   C373      1.0  0.15830  0.50632  0.33336  1.0000
  C   C374      1.0  0.14455  0.48568  0.38815  1.0000
  C   C375      1.0  0.14916  0.46616  0.38863  1.0000
  H   H283      1.0  0.13954  0.45202  0.43201  1.0000
  C   C376      1.0  0.15310  0.52571  0.33587  1.0000
  C   C377      1.0  0.14087  0.56330  0.33308  1.0000
  C   C378      1.0  0.15630  0.56275  0.40039  1.0000
  C   C379      1.0  0.16257  0.54419  0.40300  1.0000
  H   H284      1.0  0.16223  0.57550  0.45052  1.0000
  H   H285      1.0  0.13132  0.48490  0.42975  1.0000
  C   C380      1.0  0.17859  0.54420  0.47600  1.0000
  H   H286      1.0  0.19474  0.54493  0.44708  1.0000
  H   H287      1.0  0.16883  0.52765  0.51598  1.0000
  H   H288      1.0  0.18465  0.55971  0.52130  1.0000
  C   C381      1.0  0.50293  0.65385  0.33338  1.0000
  C   C382      1.0  0.52358  0.66073  0.38818  1.0000
  C   C383      1.0  0.54309  0.68486  0.38867  1.0000
  H   H289      1.0  0.55724  0.68938  0.43199  1.0000
  C   C384      1.0  0.48354  0.62925  0.33588  1.0000
  C   C385      1.0  0.44596  0.57943  0.33310  1.0000
  C   C386      1.0  0.44650  0.59542  0.40035  1.0000
  C   C387      1.0  0.46506  0.62023  0.40301  1.0000
  H   H290      1.0  0.43377  0.58858  0.45056  1.0000
  H   H291      1.0  0.52436  0.64828  0.42974  1.0000
  C   C388      1.0  0.46506  0.63624  0.47605  1.0000
  H   H292      1.0  0.46433  0.65167  0.44715  1.0000
  H   H293      1.0  0.48161  0.64303  0.51602  1.0000
  H   H294      1.0  0.44955  0.62679  0.52133  1.0000
  C   C389      1.0  0.35542  0.85096  0.33330  1.0000
  C   C390      1.0  0.34854  0.86471  0.38812  1.0000
  C   C391      1.0  0.32442  0.86012  0.38856  1.0000
  H   H295      1.0  0.31989  0.86972  0.43201  1.0000
  C   C392      1.0  0.38002  0.85615  0.33580  1.0000
  C   C393      1.0  0.42984  0.86839  0.33302  1.0000
  C   C394      1.0  0.41384  0.85294  0.40027  1.0000
  C   C395      1.0  0.38903  0.84669  0.40292  1.0000
  H   H296      1.0  0.42068  0.84705  0.45048  1.0000
  H   H297      1.0  0.36099  0.87794  0.42972  1.0000
  C   C396      1.0  0.37302  0.83068  0.47595  1.0000
  H   H298      1.0  0.35759  0.81453  0.44704  1.0000
  H   H299      1.0  0.36623  0.84044  0.51593  1.0000
  H   H300      1.0  0.38247  0.82461  0.52123  1.0000
  C   C397      1.0  0.46858  0.16486  0.34461  1.0000
  C   C398      1.0  0.48896  0.17776  0.40182  1.0000
  C   C399      1.0  0.50888  0.17358  0.40211  1.0000
  C   C400      1.0  0.52848  0.13514  0.40725  1.0000
  C   C401      1.0  0.54706  0.12926  0.40802  1.0000
  H   H301      1.0  0.51527  0.12782  0.45571  1.0000
  H   H302      1.0  0.54668  0.11767  0.45668  1.0000
  H   H303      1.0  0.48944  0.19078  0.44377  1.0000
  C   C402      1.0  0.53011  0.18844  0.46162  1.0000
  H   H304      1.0  0.52806  0.20191  0.50038  1.0000
  H   H305      1.0  0.54661  0.19818  0.42129  1.0000
  H   H306      1.0  0.53242  0.17666  0.50907  1.0000
  C   C403      1.0  0.70368  0.54067  0.34459  1.0000
  C   C404      1.0  0.69620  0.52029  0.40182  1.0000
  C   C405      1.0  0.67210  0.50038  0.40211  1.0000
  C   C406      1.0  0.61406  0.48080  0.40721  1.0000
  C   C407      1.0  0.58961  0.46223  0.40798  1.0000
  H   H307      1.0  0.61996  0.49401  0.45569  1.0000
  H   H308      1.0  0.57839  0.46260  0.45665  1.0000
  H   H309      1.0  0.70875  0.51982  0.44376  1.0000
  C   C408      1.0  0.66573  0.47915  0.46162  1.0000
  H   H310      1.0  0.68125  0.48120  0.50039  1.0000
  H   H311      1.0  0.65896  0.46265  0.42130  1.0000
  H   H312      1.0  0.65163  0.47684  0.50907  1.0000
  C   C409      1.0  0.84440  0.30557  0.34462  1.0000
  C   C410      1.0  0.83150  0.31305  0.40182  1.0000
  C   C411      1.0  0.83568  0.33715  0.40210  1.0000
  C   C412      1.0  0.87413  0.39519  0.40718  1.0000
  C   C413      1.0  0.88002  0.41965  0.40793  1.0000
  H   H313      1.0  0.88144  0.38930  0.45568  1.0000
  H   H314      1.0  0.89160  0.43086  0.45662  1.0000
  H   H315      1.0  0.81848  0.30051  0.44379  1.0000
  C   C414      1.0  0.82082  0.34352  0.46162  1.0000
  H   H316      1.0  0.80735  0.32800  0.50039  1.0000
  H   H317      1.0  0.81108  0.35029  0.42129  1.0000
  H   H318      1.0  0.83261  0.35762  0.50905  1.0000
  C   C415      1.0  0.06991  0.57436  0.34625  1.0000
  C   C416      1.0  0.05542  0.55439  0.40310  1.0000
  C   C417      1.0  0.02973  0.54238  0.40097  1.0000
  C   C418      1.0  0.97882  0.54358  0.39024  1.0000
  C   C419      1.0  0.95331  0.52998  0.38809  1.0000
  H   H319      1.0  0.98712  0.55657  0.43898  1.0000
  H   H320      1.0  0.94367  0.53328  0.43567  1.0000
  H   H321      1.0  0.06379  0.54831  0.44633  1.0000
  C   C420      1.0  0.01540  0.52089  0.46002  1.0000
  H   H322      1.0  0.02691  0.51654  0.50153  1.0000
  H   H323      1.0  0.00385  0.50491  0.41921  1.0000
  H   H324      1.0  0.00393  0.52441  0.50491  1.0000
  C   C421      1.0  0.43490  0.49741  0.34616  1.0000
  C   C422      1.0  0.45486  0.50288  0.40299  1.0000
  C   C423      1.0  0.46688  0.48921  0.40081  1.0000
  C   C424      1.0  0.46567  0.43710  0.39013  1.0000
  C   C425      1.0  0.47927  0.42519  0.38803  1.0000
  H   H325      1.0  0.45267  0.43241  0.43886  1.0000
  H   H326      1.0  0.47597  0.41226  0.43565  1.0000
  H   H327      1.0  0.46095  0.51733  0.44621  1.0000
  C   C426      1.0  0.48838  0.49636  0.45982  1.0000
  H   H328      1.0  0.49273  0.51222  0.50133  1.0000
  H   H329      1.0  0.50435  0.50078  0.41897  1.0000
  H   H330      1.0  0.48486  0.48136  0.50470  1.0000
  C   C427      1.0  0.51185  0.93935  0.34619  1.0000
  C   C428      1.0  0.50638  0.95384  0.40305  1.0000
  C   C429      1.0  0.52005  0.97953  0.40091  1.0000
  C   C430      1.0  0.57215  0.03044  0.39028  1.0000
  C   C431      1.0  0.58406  0.05595  0.38814  1.0000
  H   H331      1.0  0.57687  0.02214  0.43894  1.0000
  H   H332      1.0  0.59702  0.06558  0.43568  1.0000
  H   H333      1.0  0.49193  0.94548  0.44627  1.0000
  C   C432      1.0  0.51289  0.99387  0.45994  1.0000
  H   H334      1.0  0.49703  0.98236  0.50143  1.0000
  H   H335      1.0  0.50847  0.00542  0.41911  1.0000
  H   H336      1.0  0.52789  0.00534  0.50485  1.0000
