data_image0
_chemical_formula_structural       C4HC3NHCO2HC4HC3NHCO2HCNC2H2CO2HCNC2H2CO2HC4HC3NHCO2HC4HC3NHCO2HCNC2H2CO2HCNC2H2CO2HC4HC3NHCO2HC4HC3NHCO2HC4HC3NHCO2HC4HC3NHCO2HCNC2H2CO2HCNC2H2CO2HC4HC3NHCO2HC4HC3NHCO2HCNC2H2CO2HCNC2H2CO2HC4HC3NHCO2HC4HC3NHCO2HCNC2H2CO2HCNC2H2CO2HC4HC3NHCO2HC4HC3NHCO2HC6H3C6H3C6H3C6H3C6H3C6H3C6H3C6H3C6H3C6H3C6H3C6H3C6H3C6H3C6H3C6H3CNC2H2CO2HCNC2H2CO2HC4HC3NHCO2HC4HC3NHCO2HCNC2H2CO2HCNC2H2CO2HC4HC3NHCO2HC4HC3NHCO2HCNC2H2CO2HCNC2H2CO2HCNC2H2CO2HCNC2H2CO2HC4HC3NHCO2HC4HC3NHCO2HCNC2H2CO2HCNC2H2CO2HC4HC3NHCO2HC4HC3NHCO2HCNC2H2CO2HCNC2H2CO2HC4HC3NHCO2HC4HC3NHCO2HCNC2H2CO2HCNC2H2CO2H
_chemical_formula_sum              "C384 H192 N48 O96"
_cell_length_a       66.6409
_cell_length_b       52.2566
_cell_length_c       14.9153
_cell_angle_alpha    90
_cell_angle_beta     90
_cell_angle_gamma    90

_space_group_name_H-M_alt    "P 1"
_space_group_IT_number       1

loop_
  _space_group_symop_operation_xyz
  'x, y, z'

loop_
  _atom_site_type_symbol
  _atom_site_label
  _atom_site_symmetry_multiplicity
  _atom_site_fract_x
  _atom_site_fract_y
  _atom_site_fract_z
  _atom_site_occupancy
  C   C1        1.0  0.00297  0.93393  0.33186  1.0000
  C   C2        1.0  0.00392  0.98854  0.32884  1.0000
  C   C3        1.0  0.99769  0.97469  0.25107  1.0000
  C   C4        1.0  0.99726  0.94752  0.25414  1.0000
  H   H1        1.0  0.99326  0.93736  0.19809  1.0000
  C   C5        1.0  0.00490  0.01607  0.33597  1.0000
  C   C6        1.0  0.00384  0.07104  0.33904  1.0000
  C   C7        1.0  0.99024  0.05615  0.28832  1.0000
  N   N1        1.0  0.99134  0.03022  0.28886  1.0000
  H   H2        1.0  0.97969  0.06455  0.24831  1.0000
  C   C8        1.0  0.99362  0.98676  0.17052  1.0000
  O   O1        1.0  0.97766  0.98231  0.13272  1.0000
  O   O2        1.0  0.00819  0.99410  0.12617  1.0000
  H   H3        1.0  0.00733  0.00060  0.07144  1.0000
  C   C9        1.0  0.50297  0.43392  0.33183  1.0000
  C   C10       1.0  0.50393  0.48853  0.32883  1.0000
  C   C11       1.0  0.49774  0.47469  0.25099  1.0000
  C   C12       1.0  0.49729  0.44752  0.25405  1.0000
  H   H4        1.0  0.49332  0.43736  0.19796  1.0000
  C   C13       1.0  0.50491  0.51606  0.33597  1.0000
  C   C14       1.0  0.50385  0.57103  0.33907  1.0000
  C   C15       1.0  0.49024  0.55614  0.28839  1.0000
  N   N2        1.0  0.49134  0.53020  0.28890  1.0000
  H   H5        1.0  0.47968  0.56454  0.24842  1.0000
  C   C16       1.0  0.49371  0.48676  0.17040  1.0000
  O   O3        1.0  0.47779  0.48230  0.13236  1.0000
  O   O4        1.0  0.50831  0.49413  0.12627  1.0000
  H   H6        1.0  0.50748  0.50064  0.07154  1.0000
  C   C17       1.0  0.04717  0.16566  0.26070  1.0000
  N   N3        1.0  0.06403  0.18015  0.26396  1.0000
  C   C18       1.0  0.09276  0.22338  0.27075  1.0000
  C   C19       1.0  0.10993  0.23938  0.27150  1.0000
  H   H7        1.0  0.11023  0.25499  0.22988  1.0000
  H   H8        1.0  0.03990  0.16352  0.20081  1.0000
  C   C20       1.0  0.07648  0.23064  0.21813  1.0000
  O   O5        1.0  0.07898  0.23248  0.13719  1.0000
  O   O6        1.0  0.06272  0.24384  0.24901  1.0000
  H   H9        1.0  0.06000  0.24549  0.30688  1.0000
  C   C21       1.0  0.95818  0.84128  0.25837  1.0000
  N   N4        1.0  0.94136  0.82670  0.26197  1.0000
  C   C22       1.0  0.91307  0.78289  0.26989  1.0000
  C   C23       1.0  0.89594  0.76681  0.27094  1.0000
  H   H10       1.0  0.89566  0.75120  0.22933  1.0000
  H   H11       1.0  0.96521  0.84377  0.19807  1.0000
  C   C24       1.0  0.92935  0.77573  0.21714  1.0000
  O   O7        1.0  0.92680  0.77368  0.13630  1.0000
  O   O8        1.0  0.94325  0.76280  0.24813  1.0000
  H   H12       1.0  0.94603  0.76130  0.30599  1.0000
  C   C25       1.0  0.96596  0.15302  0.33557  1.0000
  C   C26       1.0  0.93066  0.18389  0.33689  1.0000
  C   C27       1.0  0.93741  0.17264  0.25502  1.0000
  C   C28       1.0  0.95509  0.15741  0.25577  1.0000
  H   H13       1.0  0.96055  0.15007  0.19686  1.0000
  C   C29       1.0  0.91377  0.20099  0.34587  1.0000
  C   C30       1.0  0.87954  0.23423  0.34778  1.0000
  C   C31       1.0  0.88064  0.21236  0.29241  1.0000
  N   N5        1.0  0.89728  0.19728  0.29315  1.0000
  H   H14       1.0  0.86948  0.20828  0.24763  1.0000
  C   C32       1.0  0.92832  0.17795  0.17373  1.0000
  O   O9        1.0  0.92283  0.16002  0.12677  1.0000
  O   O10       1.0  0.93247  0.19867  0.13835  1.0000
  H   H15       1.0  0.92850  0.20325  0.08398  1.0000
  C   C33       1.0  0.03988  0.85201  0.33728  1.0000
  C   C34       1.0  0.07521  0.82118  0.33858  1.0000
  C   C35       1.0  0.06861  0.83274  0.25698  1.0000
  C   C36       1.0  0.05094  0.84797  0.25777  1.0000
  H   H16       1.0  0.04563  0.85559  0.19902  1.0000
  C   C37       1.0  0.09217  0.80419  0.34748  1.0000
  C   C38       1.0  0.12659  0.77123  0.34922  1.0000
  C   C39       1.0  0.12540  0.79318  0.29424  1.0000
  N   N6        1.0  0.10868  0.80812  0.29508  1.0000
  H   H17       1.0  0.13656  0.79742  0.24965  1.0000
  C   C40       1.0  0.07785  0.82776  0.17579  1.0000
  O   O11       1.0  0.08344  0.84587  0.12991  1.0000
  O   O12       1.0  0.07377  0.80718  0.13923  1.0000
  H   H18       1.0  0.07783  0.80282  0.08478  1.0000
  C   C41       1.0  0.54736  0.66525  0.26009  1.0000
  N   N7        1.0  0.56428  0.67964  0.26312  1.0000
  C   C42       1.0  0.59320  0.72269  0.26855  1.0000
  C   C43       1.0  0.61039  0.73866  0.26934  1.0000
  H   H19       1.0  0.61078  0.75415  0.22718  1.0000
  H   H20       1.0  0.54016  0.66294  0.20012  1.0000
  C   C44       1.0  0.57705  0.72981  0.21496  1.0000
  O   O13       1.0  0.57971  0.73136  0.13406  1.0000
  O   O14       1.0  0.56325  0.74315  0.24472  1.0000
  H   H21       1.0  0.56041  0.74501  0.30240  1.0000
  C   C45       1.0  0.45800  0.34168  0.25773  1.0000
  N   N8        1.0  0.44112  0.32720  0.26110  1.0000
  C   C46       1.0  0.41264  0.28355  0.26762  1.0000
  C   C47       1.0  0.39550  0.26750  0.26869  1.0000
  H   H22       1.0  0.39511  0.25202  0.22653  1.0000
  H   H23       1.0  0.46494  0.34437  0.19735  1.0000
  C   C48       1.0  0.42880  0.27653  0.21393  1.0000
  O   O15       1.0  0.42609  0.27475  0.13312  1.0000
  O   O16       1.0  0.44274  0.26345  0.24383  1.0000
  H   H24       1.0  0.44564  0.26175  0.30152  1.0000
  C   C49       1.0  0.46596  0.65299  0.33600  1.0000
  C   C50       1.0  0.43053  0.68362  0.33783  1.0000
  C   C51       1.0  0.43740  0.67266  0.25568  1.0000
  C   C52       1.0  0.45515  0.65755  0.25618  1.0000
  H   H25       1.0  0.46068  0.65040  0.19711  1.0000
  C   C53       1.0  0.41356  0.70059  0.34713  1.0000
  C   C54       1.0  0.37926  0.73376  0.34904  1.0000
  C   C55       1.0  0.38052  0.71209  0.29275  1.0000
  N   N9        1.0  0.39719  0.69704  0.29356  1.0000
  H   H26       1.0  0.36951  0.70820  0.24709  1.0000
  C   C56       1.0  0.42837  0.67812  0.17442  1.0000
  O   O17       1.0  0.42293  0.66027  0.12692  1.0000
  O   O18       1.0  0.43249  0.69893  0.13965  1.0000
  H   H27       1.0  0.42855  0.70362  0.08535  1.0000
  C   C57       1.0  0.53989  0.35203  0.33770  1.0000
  C   C58       1.0  0.57537  0.32146  0.33954  1.0000
  C   C59       1.0  0.56864  0.33271  0.25762  1.0000
  C   C60       1.0  0.55089  0.34781  0.25815  1.0000
  H   H28       1.0  0.54550  0.35523  0.19923  1.0000
  C   C61       1.0  0.59242  0.30460  0.34877  1.0000
  C   C62       1.0  0.62690  0.27173  0.35052  1.0000
  C   C63       1.0  0.62555  0.29344  0.29450  1.0000
  N   N10       1.0  0.60880  0.30834  0.29540  1.0000
  H   H29       1.0  0.63655  0.29746  0.24893  1.0000
  C   C64       1.0  0.57783  0.32758  0.17644  1.0000
  O   O19       1.0  0.58335  0.34561  0.13001  1.0000
  O   O20       1.0  0.57376  0.30691  0.14050  1.0000
  H   H30       1.0  0.57780  0.30244  0.08611  1.0000
  C   C65       1.0  0.38575  0.04988  0.33570  1.0000
  C   C66       1.0  0.37398  0.10176  0.33451  1.0000
  C   C67       1.0  0.37531  0.08822  0.25179  1.0000
  C   C68       1.0  0.38159  0.06232  0.25385  1.0000
  H   H31       1.0  0.38411  0.05273  0.19491  1.0000
  C   C69       1.0  0.36959  0.12838  0.34213  1.0000
  C   C70       1.0  0.35878  0.18090  0.34392  1.0000
  C   C71       1.0  0.34853  0.16267  0.29109  1.0000
  N   N11       1.0  0.35424  0.13780  0.29196  1.0000
  H   H32       1.0  0.33704  0.16790  0.24958  1.0000
  C   C72       1.0  0.37287  0.10023  0.16979  1.0000
  O   O21       1.0  0.36127  0.09079  0.11522  1.0000
  O   O22       1.0  0.38687  0.11376  0.14316  1.0000
  H   H33       1.0  0.38734  0.12096  0.08944  1.0000
  C   C73       1.0  0.61896  0.95581  0.33352  1.0000
  C   C74       1.0  0.63103  0.90407  0.33390  1.0000
  C   C75       1.0  0.62962  0.91739  0.25076  1.0000
  C   C76       1.0  0.62320  0.94323  0.25202  1.0000
  H   H34       1.0  0.62075  0.95272  0.19281  1.0000
  C   C77       1.0  0.63568  0.87755  0.34233  1.0000
  C   C78       1.0  0.64692  0.82519  0.34517  1.0000
  C   C79       1.0  0.65703  0.84347  0.29197  1.0000
  N   N12       1.0  0.65111  0.86825  0.29232  1.0000
  H   H35       1.0  0.66853  0.83831  0.25041  1.0000
  C   C80       1.0  0.63225  0.90525  0.16911  1.0000
  O   O23       1.0  0.64388  0.91468  0.11467  1.0000
  O   O24       1.0  0.61839  0.89150  0.14248  1.0000
  H   H36       1.0  0.61804  0.88417  0.08893  1.0000
  C   C81       1.0  0.62108  0.06456  0.26083  1.0000
  N   N13       1.0  0.62678  0.08937  0.26525  1.0000
  C   C82       1.0  0.62504  0.14608  0.27967  1.0000
  C   C83       1.0  0.63087  0.17213  0.28031  1.0000
  H   H37       1.0  0.62324  0.18489  0.24081  1.0000
  H   H38       1.0  0.61726  0.05701  0.19992  1.0000
  C   C84       1.0  0.60820  0.13885  0.23068  1.0000
  O   O25       1.0  0.60783  0.14353  0.15040  1.0000
  O   O26       1.0  0.59157  0.13660  0.26661  1.0000
  H   H39       1.0  0.58959  0.13474  0.32500  1.0000
  C   C85       1.0  0.38585  0.94103  0.26077  1.0000
  N   N14       1.0  0.38021  0.91619  0.26505  1.0000
  C   C86       1.0  0.38154  0.85947  0.27937  1.0000
  C   C87       1.0  0.37565  0.83345  0.27991  1.0000
  H   H40       1.0  0.38329  0.82066  0.24057  1.0000
  H   H41       1.0  0.38991  0.94854  0.20014  1.0000
  C   C88       1.0  0.39846  0.86662  0.23069  1.0000
  O   O27       1.0  0.39885  0.86200  0.15037  1.0000
  O   O28       1.0  0.41507  0.86870  0.26687  1.0000
  H   H42       1.0  0.41702  0.87051  0.32530  1.0000
  C   C89       1.0  0.88570  0.54991  0.33532  1.0000
  C   C90       1.0  0.87347  0.60161  0.33448  1.0000
  C   C91       1.0  0.87516  0.58823  0.25157  1.0000
  C   C92       1.0  0.88166  0.56242  0.25346  1.0000
  H   H43       1.0  0.88440  0.55294  0.19448  1.0000
  C   C93       1.0  0.86893  0.62818  0.34233  1.0000
  C   C94       1.0  0.85809  0.68072  0.34369  1.0000
  C   C95       1.0  0.84796  0.66247  0.29043  1.0000
  N   N15       1.0  0.85369  0.63761  0.29145  1.0000
  H   H44       1.0  0.83661  0.66772  0.24819  1.0000
  C   C96       1.0  0.87283  0.60033  0.16968  1.0000
  O   O29       1.0  0.86142  0.59083  0.11443  1.0000
  O   O30       1.0  0.88680  0.61403  0.14393  1.0000
  H   H45       1.0  0.88735  0.62132  0.09035  1.0000
  C   C97       1.0  0.11903  0.45582  0.33306  1.0000
  C   C98       1.0  0.13155  0.40426  0.33377  1.0000
  C   C99       1.0  0.12977  0.41741  0.25045  1.0000
  C   C100      1.0  0.12313  0.44317  0.25156  1.0000
  H   H46       1.0  0.12045  0.45254  0.19231  1.0000
  C   C101      1.0  0.13635  0.37779  0.34242  1.0000
  C   C102      1.0  0.14761  0.32541  0.34482  1.0000
  C   C103      1.0  0.15759  0.34369  0.29115  1.0000
  N   N16       1.0  0.15165  0.36847  0.29165  1.0000
  H   H47       1.0  0.16895  0.33851  0.24885  1.0000
  C   C104      1.0  0.13228  0.40519  0.16891  1.0000
  O   O31       1.0  0.14371  0.41465  0.11373  1.0000
  O   O32       1.0  0.11844  0.39125  0.14321  1.0000
  H   H48       1.0  0.11801  0.38384  0.08982  1.0000
  C   C105      1.0  0.12156  0.56433  0.26123  1.0000
  N   N17       1.0  0.12743  0.58907  0.26549  1.0000
  C   C106      1.0  0.12589  0.64580  0.27891  1.0000
  C   C107      1.0  0.13173  0.67183  0.27973  1.0000
  H   H49       1.0  0.12418  0.68458  0.23983  1.0000
  H   H50       1.0  0.11788  0.55671  0.20026  1.0000
  C   C108      1.0  0.10914  0.63858  0.22921  1.0000
  O   O33       1.0  0.10898  0.64319  0.14885  1.0000
  O   O34       1.0  0.09241  0.63648  0.26435  1.0000
  H   H51       1.0  0.09029  0.63470  0.32266  1.0000
  C   C109      1.0  0.88543  0.44127  0.26109  1.0000
  N   N18       1.0  0.87963  0.41649  0.26526  1.0000
  C   C110      1.0  0.88079  0.35976  0.27875  1.0000
  C   C111      1.0  0.87487  0.33375  0.27950  1.0000
  H   H52       1.0  0.88242  0.32097  0.23975  1.0000
  H   H53       1.0  0.88935  0.44884  0.20035  1.0000
  C   C112      1.0  0.89760  0.36688  0.22933  1.0000
  O   O35       1.0  0.89779  0.36232  0.14894  1.0000
  O   O36       1.0  0.91431  0.36882  0.26470  1.0000
  H   H54       1.0  0.91641  0.37056  0.32305  1.0000
  C   C113      1.0  0.55607  0.00322  0.32957  1.0000
  C   C114      1.0  0.51385  0.00514  0.32569  1.0000
  C   C115      1.0  0.52451  0.99914  0.24550  1.0000
  C   C116      1.0  0.54573  0.99828  0.24897  1.0000
  H   H55       1.0  0.55381  0.99466  0.19180  1.0000
  C   C117      1.0  0.49256  0.00640  0.33299  1.0000
  C   C118      1.0  0.45005  0.00459  0.33805  1.0000
  C   C119      1.0  0.46151  0.98725  0.28666  1.0000
  N   N19       1.0  0.48176  0.98880  0.28636  1.0000
  H   H56       1.0  0.45488  0.97369  0.24719  1.0000
  C   C120      1.0  0.51501  0.99608  0.16364  1.0000
  O   O37       1.0  0.51867  0.97698  0.11874  1.0000
  O   O38       1.0  0.50867  0.01562  0.12657  1.0000
  H   H57       1.0  0.50344  0.01593  0.07197  1.0000
  C   C121      1.0  0.05611  0.50324  0.32965  1.0000
  C   C122      1.0  0.01387  0.50516  0.32579  1.0000
  C   C123      1.0  0.02453  0.49909  0.24566  1.0000
  C   C124      1.0  0.04575  0.49823  0.24913  1.0000
  H   H58       1.0  0.05382  0.49456  0.19198  1.0000
  C   C125      1.0  0.99257  0.50642  0.33307  1.0000
  C   C126      1.0  0.95004  0.50463  0.33807  1.0000
  C   C127      1.0  0.96151  0.48725  0.28685  1.0000
  N   N20       1.0  0.98176  0.48880  0.28656  1.0000
  H   H59       1.0  0.95487  0.47367  0.24748  1.0000
  C   C128      1.0  0.01503  0.49597  0.16382  1.0000
  O   O39       1.0  0.01869  0.47686  0.11905  1.0000
  O   O40       1.0  0.00868  0.51549  0.12662  1.0000
  H   H60       1.0  0.00346  0.51577  0.07201  1.0000
  C   C129      1.0  0.21177  0.26366  0.27013  1.0000
  N   N21       1.0  0.23198  0.26199  0.27857  1.0000
  C   C130      1.0  0.27614  0.27021  0.29632  1.0000
  C   C131      1.0  0.29725  0.26622  0.29803  1.0000
  H   H61       1.0  0.30624  0.27686  0.25666  1.0000
  H   H62       1.0  0.20587  0.26948  0.21022  1.0000
  C   C132      1.0  0.26846  0.28990  0.24386  1.0000
  O   O41       1.0  0.27230  0.29005  0.16371  1.0000
  O   O42       1.0  0.26424  0.31097  0.27649  1.0000
  H   H63       1.0  0.26227  0.31388  0.33436  1.0000
  C   C133      1.0  0.79409  0.74278  0.26976  1.0000
  N   N22       1.0  0.77388  0.74445  0.27828  1.0000
  C   C134      1.0  0.72973  0.73612  0.29622  1.0000
  C   C135      1.0  0.70863  0.74009  0.29806  1.0000
  H   H64       1.0  0.69963  0.72945  0.25668  1.0000
  H   H65       1.0  0.79998  0.73703  0.20974  1.0000
  C   C136      1.0  0.73742  0.71646  0.24360  1.0000
  O   O43       1.0  0.73355  0.71635  0.16348  1.0000
  O   O44       1.0  0.74167  0.69539  0.27609  1.0000
  H   H66       1.0  0.74365  0.69246  0.33394  1.0000
  C   C137      1.0  0.80681  0.25841  0.33408  1.0000
  C   C138      1.0  0.76412  0.25561  0.32331  1.0000
  C   C139      1.0  0.77609  0.24980  0.24641  1.0000
  C   C140      1.0  0.79731  0.25153  0.25303  1.0000
  H   H67       1.0  0.80600  0.24887  0.19701  1.0000
  C   C141      1.0  0.74250  0.25468  0.32670  1.0000
  C   C142      1.0  0.69987  0.24703  0.32640  1.0000
  C   C143      1.0  0.71314  0.23280  0.27163  1.0000
  N   N23       1.0  0.73318  0.23691  0.27474  1.0000
  H   H68       1.0  0.70798  0.21892  0.22925  1.0000
  C   C144      1.0  0.76770  0.24492  0.16329  1.0000
  O   O45       1.0  0.77268  0.22547  0.12308  1.0000
  O   O46       1.0  0.76120  0.26349  0.12094  1.0000
  H   H69       1.0  0.75666  0.26265  0.06519  1.0000
  C   C145      1.0  0.19942  0.74758  0.33484  1.0000
  C   C146      1.0  0.24211  0.75035  0.32364  1.0000
  C   C147      1.0  0.23012  0.75607  0.24677  1.0000
  C   C148      1.0  0.20889  0.75432  0.25359  1.0000
  H   H70       1.0  0.20019  0.75689  0.19758  1.0000
  C   C149      1.0  0.26373  0.75126  0.32680  1.0000
  C   C150      1.0  0.30637  0.75881  0.32595  1.0000
  C   C151      1.0  0.29309  0.77311  0.27149  1.0000
  N   N24       1.0  0.27304  0.76904  0.27481  1.0000
  H   H71       1.0  0.29823  0.78700  0.22911  1.0000
  C   C152      1.0  0.23848  0.76085  0.16352  1.0000
  O   O47       1.0  0.23347  0.78024  0.12302  1.0000
  O   O48       1.0  0.24496  0.74223  0.12140  1.0000
  H   H72       1.0  0.24948  0.74300  0.06560  1.0000
  C   C153      1.0  0.98451  0.13951  0.33555  1.0000
  C   C154      1.0  0.00282  0.15316  0.33706  1.0000
  C   C155      1.0  0.02143  0.14021  0.33893  1.0000
  C   C156      1.0  0.02149  0.11315  0.33965  1.0000
  C   C157      1.0  0.00344  0.09866  0.33803  1.0000
  C   C158      1.0  0.98506  0.11244  0.33552  1.0000
  H   H73       1.0  0.03504  0.10391  0.33897  1.0000
  H   H74       1.0  0.97175  0.10266  0.33654  1.0000
  H   H75       1.0  0.00261  0.17277  0.33698  1.0000
  C   C159      1.0  0.02145  0.86579  0.33707  1.0000
  C   C160      1.0  0.00294  0.85253  0.33805  1.0000
  C   C161      1.0  0.98444  0.86582  0.33668  1.0000
  C   C162      1.0  0.98466  0.89289  0.33429  1.0000
  C   C163      1.0  0.00296  0.90667  0.33410  1.0000
  C   C164      1.0  0.02124  0.89286  0.33536  1.0000
  H   H76       1.0  0.97134  0.90267  0.33338  1.0000
  H   H77       1.0  0.03458  0.90263  0.33451  1.0000
  H   H78       1.0  0.00292  0.83291  0.33934  1.0000
  C   C165      1.0  0.48453  0.63950  0.33584  1.0000
  C   C166      1.0  0.50285  0.65314  0.33715  1.0000
  C   C167      1.0  0.52146  0.64019  0.33879  1.0000
  C   C168      1.0  0.52150  0.61312  0.33951  1.0000
  C   C169      1.0  0.50346  0.59864  0.33807  1.0000
  C   C170      1.0  0.48508  0.61242  0.33582  1.0000
  H   H79       1.0  0.53505  0.60388  0.33860  1.0000
  H   H80       1.0  0.47176  0.60265  0.33696  1.0000
  H   H81       1.0  0.50264  0.67275  0.33708  1.0000
  C   C171      1.0  0.52145  0.36579  0.33735  1.0000
  C   C172      1.0  0.50293  0.35252  0.33814  1.0000
  C   C173      1.0  0.48444  0.36581  0.33646  1.0000
  C   C174      1.0  0.48466  0.39288  0.33397  1.0000
  C   C175      1.0  0.50295  0.40666  0.33406  1.0000
  C   C176      1.0  0.52124  0.39286  0.33563  1.0000
  H   H82       1.0  0.47133  0.40266  0.33286  1.0000
  H   H83       1.0  0.53457  0.40263  0.33496  1.0000
  H   H84       1.0  0.50292  0.33291  0.33944  1.0000
  C   C177      1.0  0.42864  0.00385  0.33775  1.0000
  C   C178      1.0  0.41813  0.98035  0.33945  1.0000
  C   C179      1.0  0.39695  0.97953  0.33925  1.0000
  C   C180      1.0  0.38594  0.00262  0.33832  1.0000
  C   C181      1.0  0.39610  0.02631  0.33657  1.0000
  C   C182      1.0  0.41727  0.02670  0.33561  1.0000
  H   H85       1.0  0.37057  0.00218  0.33856  1.0000
  H   H86       1.0  0.42449  0.04399  0.33206  1.0000
  H   H87       1.0  0.42599  0.96351  0.34256  1.0000
  C   C183      1.0  0.57719  0.00312  0.33243  1.0000
  C   C184      1.0  0.58785  0.02637  0.33686  1.0000
  C   C185      1.0  0.60903  0.02648  0.33875  1.0000
  C   C186      1.0  0.61958  0.00302  0.33782  1.0000
  C   C187      1.0  0.60898  0.97962  0.33381  1.0000
  C   C188      1.0  0.58781  0.97983  0.33029  1.0000
  H   H88       1.0  0.63495  0.00298  0.33956  1.0000
  H   H89       1.0  0.58005  0.96290  0.32740  1.0000
  H   H90       1.0  0.58012  0.04335  0.33748  1.0000
  C   C189      1.0  0.92862  0.50390  0.33776  1.0000
  C   C190      1.0  0.91810  0.48040  0.33972  1.0000
  C   C191      1.0  0.89692  0.47960  0.33955  1.0000
  C   C192      1.0  0.88592  0.50269  0.33834  1.0000
  C   C193      1.0  0.89608  0.52637  0.33630  1.0000
  C   C194      1.0  0.91726  0.52675  0.33537  1.0000
  H   H91       1.0  0.87055  0.50225  0.33860  1.0000
  H   H92       1.0  0.92448  0.54404  0.33171  1.0000
  H   H93       1.0  0.92595  0.46356  0.34293  1.0000
  C   C195      1.0  0.07723  0.50313  0.33250  1.0000
  C   C196      1.0  0.08791  0.52637  0.33732  1.0000
  C   C197      1.0  0.10910  0.52646  0.33920  1.0000
  C   C198      1.0  0.11963  0.50300  0.33789  1.0000
  C   C199      1.0  0.10903  0.47962  0.33350  1.0000
  C   C200      1.0  0.08786  0.47983  0.32998  1.0000
  H   H94       1.0  0.13500  0.50295  0.33963  1.0000
  H   H95       1.0  0.08009  0.46291  0.32684  1.0000
  H   H96       1.0  0.08020  0.54336  0.33814  1.0000
  C   C201      1.0  0.15290  0.29890  0.34237  1.0000
  C   C202      1.0  0.13794  0.27973  0.33881  1.0000
  C   C203      1.0  0.14254  0.25324  0.33612  1.0000
  C   C204      1.0  0.16309  0.24614  0.34004  1.0000
  C   C205      1.0  0.17851  0.26484  0.34192  1.0000
  C   C206      1.0  0.17316  0.29100  0.34283  1.0000
  H   H97       1.0  0.16694  0.22718  0.33800  1.0000
  H   H98       1.0  0.18425  0.30455  0.34678  1.0000
  H   H99       1.0  0.12321  0.28529  0.33760  1.0000
  C   C207      1.0  0.85289  0.70727  0.34133  1.0000
  C   C208      1.0  0.86789  0.72640  0.33790  1.0000
  C   C209      1.0  0.86334  0.75291  0.33561  1.0000
  C   C210      1.0  0.84280  0.76007  0.33979  1.0000
  C   C211      1.0  0.82735  0.74141  0.34147  1.0000
  C   C212      1.0  0.83265  0.71523  0.34206  1.0000
  H   H100      1.0  0.83898  0.77903  0.33785  1.0000
  H   H101      1.0  0.82153  0.70173  0.34599  1.0000
  H   H102      1.0  0.88260  0.72079  0.33654  1.0000
  C   C213      1.0  0.85343  0.29843  0.33616  1.0000
  C   C214      1.0  0.86827  0.27910  0.33936  1.0000
  C   C215      1.0  0.86353  0.25265  0.34153  1.0000
  C   C216      1.0  0.84293  0.24575  0.33755  1.0000
  C   C217      1.0  0.82761  0.26459  0.33629  1.0000
  C   C218      1.0  0.83312  0.29071  0.33578  1.0000
  H   H103      1.0  0.83898  0.22683  0.33937  1.0000
  H   H104      1.0  0.82210  0.30435  0.33204  1.0000
  H   H105      1.0  0.88303  0.28452  0.34059  1.0000
  C   C219      1.0  0.15298  0.70725  0.33688  1.0000
  C   C220      1.0  0.13806  0.72647  0.34029  1.0000
  C   C221      1.0  0.14268  0.75294  0.34275  1.0000
  C   C222      1.0  0.16325  0.75999  0.33877  1.0000
  C   C223      1.0  0.17865  0.74125  0.33717  1.0000
  C   C224      1.0  0.17325  0.71510  0.33644  1.0000
  H   H106      1.0  0.16712  0.77894  0.34068  1.0000
  H   H107      1.0  0.18433  0.70153  0.33260  1.0000
  H   H108      1.0  0.12332  0.72094  0.34147  1.0000
  C   C225      1.0  0.65243  0.79875  0.34398  1.0000
  C   C226      1.0  0.63771  0.77937  0.33893  1.0000
  C   C227      1.0  0.64266  0.75301  0.33619  1.0000
  C   C228      1.0  0.66328  0.74631  0.34224  1.0000
  C   C229      1.0  0.67865  0.76514  0.34851  1.0000
  C   C230      1.0  0.67273  0.79118  0.34764  1.0000
  H   H109      1.0  0.66717  0.72737  0.34156  1.0000
  H   H110      1.0  0.68348  0.80515  0.35026  1.0000
  H   H111      1.0  0.62294  0.78470  0.33618  1.0000
  C   C231      1.0  0.35337  0.20738  0.34284  1.0000
  C   C232      1.0  0.36812  0.22673  0.33791  1.0000
  C   C233      1.0  0.36323  0.25311  0.33559  1.0000
  C   C234      1.0  0.34261  0.25986  0.34184  1.0000
  C   C235      1.0  0.32721  0.24108  0.34806  1.0000
  C   C236      1.0  0.33308  0.21502  0.34683  1.0000
  H   H112      1.0  0.33876  0.27881  0.34140  1.0000
  H   H113      1.0  0.32231  0.20109  0.34945  1.0000
  H   H114      1.0  0.38288  0.22135  0.33501  1.0000
  C   C237      1.0  0.35385  0.79823  0.33445  1.0000
  C   C238      1.0  0.36847  0.77872  0.33925  1.0000
  C   C239      1.0  0.36342  0.75239  0.34167  1.0000
  C   C240      1.0  0.34276  0.74585  0.33584  1.0000
  C   C241      1.0  0.32746  0.76479  0.33002  1.0000
  C   C242      1.0  0.33350  0.79079  0.33097  1.0000
  H   H115      1.0  0.33879  0.72694  0.33633  1.0000
  H   H116      1.0  0.32282  0.80483  0.32850  1.0000
  H   H117      1.0  0.38327  0.78393  0.34190  1.0000
  C   C243      1.0  0.65252  0.20742  0.33531  1.0000
  C   C244      1.0  0.63784  0.22685  0.34028  1.0000
  C   C245      1.0  0.64281  0.25320  0.34289  1.0000
  C   C246      1.0  0.66345  0.25984  0.33688  1.0000
  C   C247      1.0  0.67880  0.24098  0.33076  1.0000
  C   C248      1.0  0.67283  0.21494  0.33172  1.0000
  H   H118      1.0  0.66736  0.27877  0.33742  1.0000
  H   H119      1.0  0.68356  0.20095  0.32914  1.0000
  H   H120      1.0  0.62306  0.22155  0.34293  1.0000
  C   C249      1.0  0.00904  0.94846  0.40665  1.0000
  N   N25       1.0  0.00907  0.97439  0.40216  1.0000
  C   C250      1.0  0.01880  0.02996  0.39001  1.0000
  C   C251      1.0  0.01807  0.05711  0.39008  1.0000
  H   H121      1.0  0.02811  0.06697  0.42895  1.0000
  H   H122      1.0  0.01328  0.93979  0.46509  1.0000
  C   C252      1.0  0.03404  0.01787  0.43761  1.0000
  O   O49       1.0  0.03519  0.02171  0.51829  1.0000
  O   O50       1.0  0.04991  0.01154  0.40094  1.0000
  H   H123      1.0  0.05149  0.00958  0.34235  1.0000
  C   C253      1.0  0.50900  0.44845  0.40668  1.0000
  N   N26       1.0  0.50905  0.47438  0.40219  1.0000
  C   C254      1.0  0.51882  0.52994  0.38999  1.0000
  C   C255      1.0  0.51809  0.55710  0.39006  1.0000
  H   H124      1.0  0.52814  0.56695  0.42890  1.0000
  H   H125      1.0  0.51321  0.43978  0.46515  1.0000
  C   C256      1.0  0.53405  0.51784  0.43754  1.0000
  O   O51       1.0  0.53522  0.52169  0.51823  1.0000
  O   O52       1.0  0.54992  0.51149  0.40083  1.0000
  H   H126      1.0  0.55149  0.50953  0.34223  1.0000
  C   C257      1.0  0.03973  0.15427  0.33953  1.0000
  C   C258      1.0  0.07503  0.18513  0.33906  1.0000
  C   C259      1.0  0.06833  0.17361  0.42055  1.0000
  C   C260      1.0  0.05068  0.15834  0.41934  1.0000
  H   H127      1.0  0.04530  0.15069  0.47792  1.0000
  C   C261      1.0  0.09200  0.20210  0.33048  1.0000
  C   C262      1.0  0.12644  0.23499  0.32933  1.0000
  C   C263      1.0  0.12520  0.21304  0.38427  1.0000
  N   N27       1.0  0.10846  0.19813  0.38314  1.0000
  H   H128      1.0  0.13631  0.20878  0.42902  1.0000
  C   C264      1.0  0.07746  0.17863  0.50196  1.0000
  O   O53       1.0  0.08296  0.16055  0.54821  1.0000
  O   O54       1.0  0.07339  0.19927  0.53812  1.0000
  H   H129      1.0  0.07740  0.20367  0.59263  1.0000
  C   C265      1.0  0.96601  0.85206  0.33748  1.0000
  C   C266      1.0  0.93073  0.82121  0.33770  1.0000
  C   C267      1.0  0.93780  0.83217  0.41949  1.0000
  C   C268      1.0  0.95548  0.84738  0.41797  1.0000
  H   H130      1.0  0.96116  0.85457  0.47671  1.0000
  C   C269      1.0  0.91379  0.80419  0.32951  1.0000
  C   C270      1.0  0.87946  0.77115  0.32894  1.0000
  C   C271      1.0  0.88070  0.79310  0.38389  1.0000
  N   N28       1.0  0.89739  0.80809  0.38253  1.0000
  H   H131      1.0  0.86959  0.79732  0.42876  1.0000
  C   C272      1.0  0.92898  0.82666  0.50120  1.0000
  O   O55       1.0  0.92369  0.84447  0.54918  1.0000
  O   O56       1.0  0.93319  0.80581  0.53553  1.0000
  H   H132      1.0  0.92939  0.80109  0.59000  1.0000
  C   C273      1.0  0.95844  0.16409  0.41479  1.0000
  N   N29       1.0  0.94160  0.17864  0.41193  1.0000
  C   C274      1.0  0.91316  0.22220  0.40597  1.0000
  C   C275      1.0  0.89608  0.23836  0.40562  1.0000
  H   H133      1.0  0.89589  0.25391  0.44754  1.0000
  H   H134      1.0  0.96572  0.16185  0.47461  1.0000
  C   C276      1.0  0.92949  0.22922  0.45862  1.0000
  O   O57       1.0  0.92703  0.23097  0.53961  1.0000
  O   O58       1.0  0.94331  0.24234  0.42790  1.0000
  H   H135      1.0  0.94603  0.24405  0.37004  1.0000
  C   C277      1.0  0.04720  0.84057  0.41622  1.0000
  N   N30       1.0  0.06408  0.82610  0.41336  1.0000
  C   C278      1.0  0.09287  0.78290  0.40723  1.0000
  C   C279      1.0  0.11003  0.76689  0.40682  1.0000
  H   H136      1.0  0.11028  0.75130  0.44849  1.0000
  H   H137      1.0  0.03981  0.84261  0.47586  1.0000
  C   C280      1.0  0.07654  0.77566  0.45957  1.0000
  O   O59       1.0  0.07896  0.77384  0.54056  1.0000
  O   O60       1.0  0.06281  0.76245  0.42847  1.0000
  H   H138      1.0  0.06015  0.76078  0.37054  1.0000
  C   C281      1.0  0.53978  0.65421  0.33923  1.0000
  C   C282      1.0  0.57522  0.68482  0.33825  1.0000
  C   C283      1.0  0.56837  0.67363  0.42007  1.0000
  C   C284      1.0  0.55064  0.65849  0.41911  1.0000
  H   H139      1.0  0.54519  0.65106  0.47788  1.0000
  C   C285      1.0  0.59227  0.70166  0.32935  1.0000
  C   C286      1.0  0.62673  0.73452  0.32835  1.0000
  C   C287      1.0  0.62534  0.71278  0.38422  1.0000
  N   N31       1.0  0.60860  0.69790  0.38299  1.0000
  H   H140      1.0  0.63631  0.70874  0.42995  1.0000
  C   C288      1.0  0.57744  0.67883  0.50147  1.0000
  O   O61       1.0  0.58287  0.66085  0.54834  1.0000
  O   O62       1.0  0.57337  0.69957  0.53694  1.0000
  H   H141      1.0  0.57735  0.70409  0.59137  1.0000
  C   C289      1.0  0.46599  0.35208  0.33713  1.0000
  C   C290      1.0  0.43056  0.32149  0.33685  1.0000
  C   C291      1.0  0.43778  0.33210  0.41894  1.0000
  C   C292      1.0  0.45554  0.34717  0.41766  1.0000
  H   H142      1.0  0.46131  0.35412  0.47657  1.0000
  C   C293      1.0  0.41354  0.30459  0.32833  1.0000
  C   C294      1.0  0.37916  0.27160  0.32779  1.0000
  C   C295      1.0  0.38056  0.29332  0.38378  1.0000
  N   N32       1.0  0.39727  0.30829  0.38234  1.0000
  H   H143      1.0  0.36961  0.29731  0.42964  1.0000
  C   C296      1.0  0.42904  0.32639  0.50062  1.0000
  O   O63       1.0  0.42381  0.34410  0.54924  1.0000
  O   O64       1.0  0.43323  0.30545  0.53422  1.0000
  H   H144      1.0  0.42947  0.30060  0.58860  1.0000
  C   C297      1.0  0.45832  0.66376  0.41551  1.0000
  N   N33       1.0  0.44143  0.67820  0.41286  1.0000
  C   C298      1.0  0.41278  0.72157  0.40818  1.0000
  C   C299      1.0  0.39568  0.73769  0.40780  1.0000
  H   H145      1.0  0.39539  0.75314  0.45018  1.0000
  H   H146      1.0  0.46555  0.66136  0.47538  1.0000
  C   C300      1.0  0.42901  0.72849  0.46163  1.0000
  O   O65       1.0  0.42641  0.73001  0.54258  1.0000
  O   O66       1.0  0.44286  0.74174  0.43182  1.0000
  H   H147      1.0  0.44566  0.74363  0.37412  1.0000
  C   C301      1.0  0.54735  0.34092  0.41696  1.0000
  N   N34       1.0  0.56429  0.32655  0.41433  1.0000
  C   C302      1.0  0.59330  0.28358  0.40959  1.0000
  C   C303      1.0  0.61049  0.26761  0.40916  1.0000
  H   H148      1.0  0.61084  0.25213  0.45137  1.0000
  H   H149      1.0  0.54002  0.34312  0.47668  1.0000
  C   C304      1.0  0.57708  0.27645  0.46282  1.0000
  O   O67       1.0  0.57966  0.27490  0.54378  1.0000
  O   O68       1.0  0.56333  0.26309  0.43276  1.0000
  H   H150      1.0  0.56056  0.26122  0.37501  1.0000
  C   C305      1.0  0.38360  0.06399  0.41554  1.0000
  N   N35       1.0  0.37806  0.08887  0.41167  1.0000
  C   C306      1.0  0.38037  0.14567  0.39799  1.0000
  C   C307      1.0  0.37479  0.17180  0.39742  1.0000
  H   H151      1.0  0.38252  0.18444  0.43701  1.0000
  H   H152      1.0  0.38735  0.05629  0.47630  1.0000
  C   C308      1.0  0.39712  0.13814  0.44708  1.0000
  O   O69       1.0  0.39752  0.14282  0.52737  1.0000
  O   O70       1.0  0.41374  0.13560  0.41126  1.0000
  H   H153      1.0  0.41572  0.13371  0.35289  1.0000
  C   C309      1.0  0.62115  0.94193  0.41379  1.0000
  N   N36       1.0  0.62685  0.91710  0.41066  1.0000
  C   C310      1.0  0.62508  0.86023  0.39874  1.0000
  C   C311      1.0  0.63088  0.83418  0.39868  1.0000
  H   H154      1.0  0.62325  0.82150  0.43851  1.0000
  H   H155      1.0  0.61744  0.94979  0.47434  1.0000
  C   C312      1.0  0.60828  0.86762  0.44775  1.0000
  O   O71       1.0  0.60801  0.86318  0.52822  1.0000
  O   O72       1.0  0.59161  0.86960  0.41209  1.0000
  H   H156      1.0  0.58955  0.87125  0.35367  1.0000
  C   C313      1.0  0.61906  0.05026  0.34029  1.0000
  C   C314      1.0  0.63109  0.10204  0.34261  1.0000
  C   C315      1.0  0.62987  0.08829  0.42496  1.0000
  C   C316      1.0  0.62349  0.06243  0.42236  1.0000
  H   H157      1.0  0.62115  0.05265  0.48108  1.0000
  C   C317      1.0  0.63568  0.12861  0.33541  1.0000
  C   C318      1.0  0.64696  0.18098  0.33380  1.0000
  C   C319      1.0  0.65707  0.16258  0.38646  1.0000
  N   N37       1.0  0.65114  0.13779  0.38548  1.0000
  H   H158      1.0  0.66860  0.16763  0.42797  1.0000
  C   C320      1.0  0.63262  0.10005  0.50720  1.0000
  O   O73       1.0  0.64430  0.09035  0.56084  1.0000
  O   O74       1.0  0.61879  0.11367  0.53499  1.0000
  H   H159      1.0  0.61851  0.12074  0.58895  1.0000
  C   C321      1.0  0.38734  0.95546  0.34017  1.0000
  C   C322      1.0  0.37552  0.90359  0.34213  1.0000
  C   C323      1.0  0.37625  0.91748  0.42433  1.0000
  C   C324      1.0  0.38250  0.94340  0.42195  1.0000
  H   H160      1.0  0.38441  0.95331  0.48069  1.0000
  C   C325      1.0  0.37090  0.87701  0.33485  1.0000
  C   C326      1.0  0.35948  0.82464  0.33307  1.0000
  C   C327      1.0  0.34936  0.84311  0.38542  1.0000
  N   N38       1.0  0.35535  0.86787  0.38450  1.0000
  H   H161      1.0  0.33777  0.83812  0.42669  1.0000
  C   C328      1.0  0.37311  0.90585  0.50651  1.0000
  O   O75       1.0  0.36112  0.91556  0.55873  1.0000
  O   O76       1.0  0.38683  0.89233  0.53597  1.0000
  H   H162      1.0  0.38685  0.88534  0.59008  1.0000
  C   C329      1.0  0.88317  0.56383  0.41532  1.0000
  N   N39       1.0  0.87743  0.58864  0.41161  1.0000
  C   C330      1.0  0.87954  0.64546  0.39886  1.0000
  C   C331      1.0  0.87394  0.67158  0.39809  1.0000
  H   H163      1.0  0.88159  0.68421  0.43803  1.0000
  H   H164      1.0  0.88678  0.55607  0.47615  1.0000
  C   C332      1.0  0.89621  0.63797  0.44861  1.0000
  O   O77       1.0  0.89641  0.64258  0.52896  1.0000
  O   O78       1.0  0.91291  0.63557  0.41351  1.0000
  H   H165      1.0  0.91503  0.63374  0.35521  1.0000
  C   C333      1.0  0.12162  0.44214  0.41350  1.0000
  N   N40       1.0  0.12751  0.41737  0.41052  1.0000
  C   C334      1.0  0.12592  0.36049  0.39954  1.0000
  C   C335      1.0  0.13173  0.33444  0.39926  1.0000
  H   H166      1.0  0.12419  0.32177  0.43947  1.0000
  H   H167      1.0  0.11807  0.45007  0.47412  1.0000
  C   C336      1.0  0.10922  0.36785  0.44925  1.0000
  O   O79       1.0  0.10915  0.36348  0.52977  1.0000
  O   O80       1.0  0.09245  0.36969  0.41437  1.0000
  H   H168      1.0  0.09025  0.37128  0.35603  1.0000
  C   C337      1.0  0.11917  0.55021  0.34089  1.0000
  C   C338      1.0  0.13162  0.60182  0.34282  1.0000
  C   C339      1.0  0.13005  0.58823  0.42537  1.0000
  C   C340      1.0  0.12346  0.56246  0.42295  1.0000
  H   H169      1.0  0.12090  0.55280  0.48172  1.0000
  C   C341      1.0  0.13635  0.62836  0.33537  1.0000
  C   C342      1.0  0.14764  0.68075  0.33419  1.0000
  C   C343      1.0  0.15763  0.66234  0.38732  1.0000
  N   N41       1.0  0.15168  0.63756  0.38620  1.0000
  H   H170      1.0  0.16903  0.66743  0.42956  1.0000
  C   C344      1.0  0.13267  0.60008  0.50752  1.0000
  O   O81       1.0  0.14417  0.59035  0.56187  1.0000
  O   O82       1.0  0.11886  0.61388  0.53441  1.0000
  H   H171      1.0  0.11849  0.62103  0.58823  1.0000
  C   C345      1.0  0.88726  0.45556  0.34064  1.0000
  C   C346      1.0  0.87507  0.40383  0.34237  1.0000
  C   C347      1.0  0.87615  0.41758  0.42476  1.0000
  C   C348      1.0  0.88258  0.44343  0.42247  1.0000
  H   H172      1.0  0.88471  0.45324  0.48127  1.0000
  C   C349      1.0  0.87032  0.37728  0.33492  1.0000
  C   C350      1.0  0.85887  0.32491  0.33361  1.0000
  C   C351      1.0  0.84888  0.34338  0.38645  1.0000
  N   N42       1.0  0.85489  0.36814  0.38535  1.0000
  H   H173      1.0  0.83742  0.33837  0.42844  1.0000
  C   C352      1.0  0.87315  0.40588  0.50691  1.0000
  O   O83       1.0  0.86135  0.41564  0.55988  1.0000
  O   O84       1.0  0.88686  0.39218  0.53544  1.0000
  H   H174      1.0  0.88697  0.38511  0.58945  1.0000
  C   C353      1.0  0.54483  0.00891  0.40684  1.0000
  N   N43       1.0  0.52459  0.00942  0.40182  1.0000
  C   C354      1.0  0.48194  0.02423  0.38735  1.0000
  C   C355      1.0  0.46074  0.02301  0.38862  1.0000
  H   H175      1.0  0.45296  0.03578  0.42746  1.0000
  H   H176      1.0  0.55164  0.01257  0.46694  1.0000
  C   C356      1.0  0.49153  0.04391  0.43340  1.0000
  O   O85       1.0  0.48831  0.04628  0.51366  1.0000
  O   O86       1.0  0.49717  0.06355  0.39468  1.0000
  H   H177      1.0  0.49890  0.06495  0.33598  1.0000
  C   C357      1.0  0.04487  0.50901  0.40684  1.0000
  N   N44       1.0  0.02462  0.50952  0.40183  1.0000
  C   C358      1.0  0.98194  0.52428  0.38728  1.0000
  C   C359      1.0  0.96074  0.52307  0.38851  1.0000
  H   H178      1.0  0.95296  0.53587  0.42723  1.0000
  H   H179      1.0  0.05167  0.51273  0.46690  1.0000
  C   C360      1.0  0.99153  0.54397  0.43325  1.0000
  O   O87       1.0  0.98831  0.54637  0.51349  1.0000
  O   O88       1.0  0.99717  0.56360  0.39444  1.0000
  H   H180      1.0  0.99890  0.56498  0.33573  1.0000
  C   C361      1.0  0.19927  0.25849  0.34420  1.0000
  C   C362      1.0  0.24194  0.25577  0.35533  1.0000
  C   C363      1.0  0.22997  0.25014  0.43235  1.0000
  C   C364      1.0  0.20874  0.25187  0.42557  1.0000
  H   H181      1.0  0.20005  0.24939  0.48165  1.0000
  C   C365      1.0  0.26356  0.25486  0.35209  1.0000
  C   C366      1.0  0.30617  0.24723  0.35264  1.0000
  C   C367      1.0  0.29290  0.23307  0.40763  1.0000
  N   N45       1.0  0.27286  0.23716  0.40440  1.0000
  H   H182      1.0  0.29806  0.21923  0.45017  1.0000
  C   C368      1.0  0.23834  0.24547  0.51565  1.0000
  O   O89       1.0  0.23336  0.22611  0.55637  1.0000
  O   O90       1.0  0.24481  0.26414  0.55751  1.0000
  H   H183      1.0  0.24933  0.26343  0.61331  1.0000
  C   C369      1.0  0.80659  0.74781  0.34394  1.0000
  C   C370      1.0  0.76393  0.75056  0.35518  1.0000
  C   C371      1.0  0.77592  0.75606  0.43228  1.0000
  C   C372      1.0  0.79714  0.75433  0.42543  1.0000
  H   H184      1.0  0.80584  0.75672  0.48155  1.0000
  C   C373      1.0  0.74232  0.75145  0.35204  1.0000
  C   C374      1.0  0.69970  0.75904  0.35286  1.0000
  C   C375      1.0  0.71297  0.77319  0.40784  1.0000
  N   N46       1.0  0.73302  0.76912  0.40450  1.0000
  H   H185      1.0  0.70782  0.78700  0.45052  1.0000
  C   C376      1.0  0.76755  0.76062  0.51568  1.0000
  O   O91       1.0  0.77255  0.77991  0.55678  1.0000
  O   O92       1.0  0.76106  0.74189  0.55719  1.0000
  H   H186      1.0  0.75654  0.74252  0.61299  1.0000
  C   C377      1.0  0.79433  0.26377  0.40805  1.0000
  N   N47       1.0  0.77411  0.26205  0.39978  1.0000
  C   C378      1.0  0.72991  0.27009  0.38226  1.0000
  C   C379      1.0  0.70881  0.26610  0.38065  1.0000
  H   H187      1.0  0.69981  0.27681  0.42182  1.0000
  H   H188      1.0  0.80024  0.26972  0.46778  1.0000
  C   C380      1.0  0.73759  0.28986  0.43439  1.0000
  O   O93       1.0  0.73379  0.29007  0.51456  1.0000
  O   O94       1.0  0.74172  0.31091  0.40145  1.0000
  H   H189      1.0  0.74364  0.31378  0.34351  1.0000
  C   C381      1.0  0.21194  0.74228  0.40873  1.0000
  N   N48       1.0  0.23216  0.74399  0.40028  1.0000
  C   C382      1.0  0.27633  0.73580  0.38214  1.0000
  C   C383      1.0  0.29744  0.73975  0.38027  1.0000
  H   H190      1.0  0.30645  0.72900  0.42126  1.0000
  H   H191      1.0  0.20606  0.73638  0.46857  1.0000
  C   C384      1.0  0.26866  0.71603  0.43425  1.0000
  O   O95       1.0  0.27252  0.71576  0.51437  1.0000
  O   O96       1.0  0.26443  0.69501  0.40123  1.0000
  H   H192      1.0  0.26246  0.69220  0.34331  1.0000
