data_image0
_chemical_formula_structural       C15H12C4NC2NHC2H2OCO2HC10H4C2H2OCO2HC6N2HC15H12C4NC2NHC2H2OCO2HC10H4C2H2OCO2HC6N2HC15H12C4NC2NHC2H2OCO2HC10H4C2H2OCO2HC6N2HC15H12C4NC2NHC2H2OCO2HC10H4C2H2OCO2HC6N2HC15H12C4NC2NHC2H2OCO2HC10H4C2H2OCO2HC6N2HC15H12C4NC2NHC2H2OCO2HC10H4C2H2OCO2HC6N2HC15H12C4NC2NHC2H2OCO2HC10H4C2H2OCO2HC6N2HC15H12C4NC2NHC2H2OCO2HC10H4C2H2OCO2HC6N2HC15H12C4NC2NHC2H2OCO2HC10H4C2H2OCO2HC6N2H
_chemical_formula_sum              "C387 H216 N36 O54"
_cell_length_a       36.4703
_cell_length_b       36.4709
_cell_length_c       15.1049
_cell_angle_alpha    90
_cell_angle_beta     90
_cell_angle_gamma    89.9302

_space_group_name_H-M_alt    "P 1"
_space_group_IT_number       1

loop_
  _space_group_symop_operation_xyz
  'x, y, z'

loop_
  _atom_site_type_symbol
  _atom_site_label
  _atom_site_symmetry_multiplicity
  _atom_site_fract_x
  _atom_site_fract_y
  _atom_site_fract_z
  _atom_site_occupancy
  C   C1        1.0  0.99821  0.24035  0.28534  1.0000
  C   C2        1.0  0.03110  0.25691  0.25694  1.0000
  C   C3        1.0  0.02985  0.28541  0.19472  1.0000
  C   C4        1.0  0.99614  0.29831  0.15953  1.0000
  C   C5        1.0  0.29690  0.28509  0.19991  1.0000
  C   C6        1.0  0.29772  0.25641  0.26160  1.0000
  C   C7        1.0  0.99518  0.99734  0.09639  1.0000
  C   C8        1.0  0.99524  0.02750  0.16563  1.0000
  C   C9        1.0  0.29558  0.03978  0.20619  1.0000
  C   C10       1.0  0.29561  0.06911  0.26624  1.0000
  C   C11       1.0  0.99571  0.08614  0.28847  1.0000
  C   C12       1.0  0.02911  0.06958  0.26318  1.0000
  C   C13       1.0  0.02860  0.04067  0.20199  1.0000
  C   C14       1.0  0.02594  0.99894  0.02826  1.0000
  C   C15       1.0  0.29617  0.33182  0.03327  1.0000
  H   H1        1.0  0.29364  0.05664  0.02071  1.0000
  H   H2        1.0  0.29096  0.27423  0.01548  1.0000
  H   H3        1.0  0.03122  0.27488  0.00900  1.0000
  H   H4        1.0  0.02775  0.05699  0.01542  1.0000
  H   H5        1.0  0.05310  0.03177  0.17756  1.0000
  H   H6        1.0  0.05356  0.08263  0.27417  1.0000
  H   H7        1.0  0.27113  0.08156  0.28083  1.0000
  H   H8        1.0  0.27074  0.03000  0.18571  1.0000
  H   H9        1.0  0.27182  0.29465  0.18054  1.0000
  H   H10       1.0  0.05414  0.29525  0.17119  1.0000
  H   H11       1.0  0.05585  0.24448  0.26869  1.0000
  H   H12       1.0  0.27345  0.24395  0.27789  1.0000
  C   C16       1.0  0.33145  0.20184  0.28812  1.0000
  C   C17       1.0  0.33115  0.18251  0.20672  1.0000
  C   C18       1.0  0.99624  0.14379  0.20548  1.0000
  C   C19       1.0  0.99559  0.12473  0.28801  1.0000
  N   N1        1.0  0.99553  0.12723  0.12367  1.0000
  C   C20       1.0  0.99670  0.14566  0.04563  1.0000
  C   C21       1.0  0.33192  0.18412  0.04753  1.0000
  N   N2        1.0  0.33230  0.20057  0.12771  1.0000
  H   H13       1.0  0.99400  0.10095  0.11881  1.0000
  C   C22       1.0  0.18298  0.32107  0.32604  1.0000
  C   C23       1.0  0.14430  0.32145  0.32240  1.0000
  H   H14       1.0  0.12516  0.34438  0.02996  1.0000
  H   H15       1.0  0.18952  0.34372  0.03722  1.0000
  O   O1        1.0  0.20348  0.31718  0.25177  1.0000
  C   C24       1.0  0.12494  0.31888  0.24416  1.0000
  O   O2        1.0  0.12126  0.34817  0.20604  1.0000
  O   O3        1.0  0.12929  0.29231  0.19452  1.0000
  H   H16       1.0  0.13388  0.26970  0.21299  1.0000
  C   C25       1.0  0.28320  0.03234  0.66544  1.0000
  C   C26       1.0  0.25369  0.03381  0.60630  1.0000
  C   C27       1.0  0.23652  0.33443  0.57914  1.0000
  C   C28       1.0  0.25157  0.30037  0.60436  1.0000
  C   C29       1.0  0.28157  0.29930  0.66242  1.0000
  C   C30       1.0  0.03960  0.29999  0.65410  1.0000
  C   C31       1.0  0.06773  0.30126  0.59061  1.0000
  C   C32       1.0  0.08236  0.00199  0.56356  1.0000
  C   C33       1.0  0.06488  0.03444  0.59252  1.0000
  C   C34       1.0  0.03756  0.03277  0.65786  1.0000
  H   H17       1.0  0.24212  0.05878  0.59241  1.0000
  H   H18       1.0  0.23841  0.27635  0.58940  1.0000
  H   H19       1.0  0.08092  0.27731  0.57483  1.0000
  H   H20       1.0  0.07626  0.05947  0.57868  1.0000
  C   C35       1.0  0.99585  0.14412  0.36884  1.0000
  C   C36       1.0  0.33013  0.18261  0.36882  1.0000
  H   H21       1.0  0.33004  0.19647  0.42761  1.0000
  H   H22       1.0  0.99534  0.13043  0.42803  1.0000
  O   O4        1.0  0.99598  0.12706  0.63462  1.0000
  C   C37       1.0  0.33378  0.20554  0.63919  1.0000
  O   O5        1.0  0.30522  0.20931  0.59800  1.0000
  O   O6        1.0  0.36178  0.20519  0.59297  1.0000
  H   H23       1.0  0.38421  0.20093  0.61318  1.0000
  C   C38       1.0  0.12098  0.33656  0.55719  1.0000
  C   C39       1.0  0.14176  0.33108  0.47899  1.0000
  C   C40       1.0  0.18087  0.33065  0.48262  1.0000
  C   C41       1.0  0.19842  0.33572  0.56556  1.0000
  C   C42       1.0  0.17741  0.34078  0.64299  1.0000
  C   C43       1.0  0.13938  0.34118  0.63868  1.0000
  N   N3        1.0  0.19990  0.32554  0.40548  1.0000
  N   N4        1.0  0.12538  0.32658  0.39888  1.0000
  H   H24       1.0  0.22661  0.32543  0.40597  1.0000
  C   C44       1.0  0.99821  0.57369  0.28534  1.0000
  C   C45       1.0  0.03110  0.59024  0.25694  1.0000
  C   C46       1.0  0.02985  0.61874  0.19472  1.0000
  C   C47       1.0  0.99614  0.63165  0.15953  1.0000
  C   C48       1.0  0.29690  0.61842  0.19992  1.0000
  C   C49       1.0  0.29772  0.58974  0.26160  1.0000
  C   C50       1.0  0.99518  0.33067  0.09640  1.0000
  C   C51       1.0  0.99524  0.36084  0.16563  1.0000
  C   C52       1.0  0.29558  0.37311  0.20619  1.0000
  C   C53       1.0  0.29561  0.40244  0.26624  1.0000
  C   C54       1.0  0.99571  0.41948  0.28847  1.0000
  C   C55       1.0  0.02911  0.40292  0.26318  1.0000
  C   C56       1.0  0.02860  0.37400  0.20199  1.0000
  C   C57       1.0  0.02594  0.33227  0.02826  1.0000
  C   C58       1.0  0.29617  0.66515  0.03327  1.0000
  H   H25       1.0  0.29364  0.38997  0.02071  1.0000
  H   H26       1.0  0.29096  0.60756  0.01548  1.0000
  H   H27       1.0  0.03122  0.60822  0.00900  1.0000
  H   H28       1.0  0.02775  0.39032  0.01542  1.0000
  H   H29       1.0  0.05310  0.36510  0.17756  1.0000
  H   H30       1.0  0.05356  0.41596  0.27417  1.0000
  H   H31       1.0  0.27113  0.41489  0.28083  1.0000
  H   H32       1.0  0.27074  0.36334  0.18571  1.0000
  H   H33       1.0  0.27182  0.62799  0.18054  1.0000
  H   H34       1.0  0.05414  0.62858  0.17120  1.0000
  H   H35       1.0  0.05585  0.57782  0.26869  1.0000
  H   H36       1.0  0.27345  0.57729  0.27789  1.0000
  C   C59       1.0  0.33145  0.53517  0.28812  1.0000
  C   C60       1.0  0.33115  0.51584  0.20672  1.0000
  C   C61       1.0  0.99624  0.47712  0.20548  1.0000
  C   C62       1.0  0.99559  0.45806  0.28801  1.0000
  N   N5        1.0  0.99553  0.46056  0.12367  1.0000
  C   C63       1.0  0.99670  0.47900  0.04563  1.0000
  C   C64       1.0  0.33192  0.51745  0.04753  1.0000
  N   N6        1.0  0.33230  0.53390  0.12771  1.0000
  H   H37       1.0  0.99400  0.43428  0.11881  1.0000
  C   C65       1.0  0.18298  0.65441  0.32604  1.0000
  C   C66       1.0  0.14430  0.65478  0.32240  1.0000
  H   H38       1.0  0.12516  0.67771  0.02996  1.0000
  H   H39       1.0  0.18952  0.67705  0.03722  1.0000
  O   O7        1.0  0.20348  0.65052  0.25177  1.0000
  C   C67       1.0  0.12494  0.65222  0.24416  1.0000
  O   O8        1.0  0.12126  0.68151  0.20604  1.0000
  O   O9        1.0  0.12929  0.62564  0.19452  1.0000
  H   H40       1.0  0.13388  0.60303  0.21299  1.0000
  C   C68       1.0  0.28320  0.36567  0.66544  1.0000
  C   C69       1.0  0.25369  0.36714  0.60630  1.0000
  C   C70       1.0  0.23652  0.66777  0.57914  1.0000
  C   C71       1.0  0.25157  0.63370  0.60436  1.0000
  C   C72       1.0  0.28157  0.63263  0.66242  1.0000
  C   C73       1.0  0.03960  0.63332  0.65410  1.0000
  C   C74       1.0  0.06773  0.63459  0.59061  1.0000
  C   C75       1.0  0.08236  0.33532  0.56356  1.0000
  C   C76       1.0  0.06488  0.36777  0.59252  1.0000
  C   C77       1.0  0.03756  0.36611  0.65786  1.0000
  H   H41       1.0  0.24212  0.39212  0.59241  1.0000
  H   H42       1.0  0.23841  0.60968  0.58940  1.0000
  H   H43       1.0  0.08092  0.61064  0.57483  1.0000
  H   H44       1.0  0.07626  0.39280  0.57868  1.0000
  C   C78       1.0  0.99585  0.47745  0.36884  1.0000
  C   C79       1.0  0.33013  0.51594  0.36882  1.0000
  H   H45       1.0  0.33004  0.52980  0.42761  1.0000
  H   H46       1.0  0.99534  0.46377  0.42803  1.0000
  O   O10       1.0  0.99598  0.46040  0.63462  1.0000
  C   C80       1.0  0.33378  0.53888  0.63919  1.0000
  O   O11       1.0  0.30522  0.54264  0.59800  1.0000
  O   O12       1.0  0.36178  0.53853  0.59297  1.0000
  H   H47       1.0  0.38421  0.53426  0.61318  1.0000
  C   C81       1.0  0.12098  0.66989  0.55719  1.0000
  C   C82       1.0  0.14176  0.66441  0.47899  1.0000
  C   C83       1.0  0.18087  0.66398  0.48262  1.0000
  C   C84       1.0  0.19842  0.66906  0.56556  1.0000
  C   C85       1.0  0.17741  0.67411  0.64299  1.0000
  C   C86       1.0  0.13938  0.67452  0.63868  1.0000
  N   N7        1.0  0.19990  0.65887  0.40548  1.0000
  N   N8        1.0  0.12538  0.65992  0.39888  1.0000
  H   H48       1.0  0.22661  0.65876  0.40597  1.0000
  C   C87       1.0  0.99821  0.90702  0.28534  1.0000
  C   C88       1.0  0.03110  0.92357  0.25694  1.0000
  C   C89       1.0  0.02985  0.95207  0.19472  1.0000
  C   C90       1.0  0.99614  0.96498  0.15953  1.0000
  C   C91       1.0  0.29689  0.95176  0.19991  1.0000
  C   C92       1.0  0.29772  0.92307  0.26160  1.0000
  C   C93       1.0  0.99518  0.66401  0.09640  1.0000
  C   C94       1.0  0.99524  0.69417  0.16563  1.0000
  C   C95       1.0  0.29558  0.70644  0.20619  1.0000
  C   C96       1.0  0.29561  0.73577  0.26624  1.0000
  C   C97       1.0  0.99571  0.75281  0.28847  1.0000
  C   C98       1.0  0.02911  0.73625  0.26318  1.0000
  C   C99       1.0  0.02860  0.70733  0.20199  1.0000
  C   C100      1.0  0.02594  0.66561  0.02826  1.0000
  C   C101      1.0  0.29618  0.99849  0.03327  1.0000
  H   H49       1.0  0.29364  0.72331  0.02071  1.0000
  H   H50       1.0  0.29096  0.94090  0.01548  1.0000
  H   H51       1.0  0.03122  0.94155  0.00900  1.0000
  H   H52       1.0  0.02775  0.72365  0.01542  1.0000
  H   H53       1.0  0.05310  0.69843  0.17757  1.0000
  H   H54       1.0  0.05356  0.74930  0.27417  1.0000
  H   H55       1.0  0.27113  0.74823  0.28083  1.0000
  H   H56       1.0  0.27074  0.69667  0.18571  1.0000
  H   H57       1.0  0.27182  0.96132  0.18054  1.0000
  H   H58       1.0  0.05414  0.96191  0.17119  1.0000
  H   H59       1.0  0.05585  0.91115  0.26869  1.0000
  H   H60       1.0  0.27345  0.91062  0.27789  1.0000
  C   C102      1.0  0.33145  0.86851  0.28812  1.0000
  C   C103      1.0  0.33115  0.84917  0.20671  1.0000
  C   C104      1.0  0.99624  0.81045  0.20548  1.0000
  C   C105      1.0  0.99559  0.79139  0.28801  1.0000
  N   N9        1.0  0.99553  0.79389  0.12367  1.0000
  C   C106      1.0  0.99670  0.81233  0.04563  1.0000
  C   C107      1.0  0.33193  0.85078  0.04753  1.0000
  N   N10       1.0  0.33230  0.86723  0.12770  1.0000
  H   H61       1.0  0.99400  0.76761  0.11881  1.0000
  C   C108      1.0  0.18298  0.98774  0.32604  1.0000
  C   C109      1.0  0.14430  0.98811  0.32240  1.0000
  H   H62       1.0  0.12516  0.01104  0.02996  1.0000
  H   H63       1.0  0.18952  0.01039  0.03722  1.0000
  O   O13       1.0  0.20348  0.98385  0.25177  1.0000
  C   C110      1.0  0.12494  0.98555  0.24416  1.0000
  O   O14       1.0  0.12126  0.01484  0.20604  1.0000
  O   O15       1.0  0.12929  0.95898  0.19452  1.0000
  H   H64       1.0  0.13388  0.93637  0.21299  1.0000
  C   C111      1.0  0.28320  0.69900  0.66544  1.0000
  C   C112      1.0  0.25369  0.70048  0.60630  1.0000
  C   C113      1.0  0.23652  0.00110  0.57914  1.0000
  C   C114      1.0  0.25157  0.96704  0.60436  1.0000
  C   C115      1.0  0.28157  0.96596  0.66241  1.0000
  C   C116      1.0  0.03960  0.96666  0.65410  1.0000
  C   C117      1.0  0.06773  0.96793  0.59061  1.0000
  C   C118      1.0  0.08236  0.66866  0.56356  1.0000
  C   C119      1.0  0.06488  0.70110  0.59252  1.0000
  C   C120      1.0  0.03756  0.69944  0.65786  1.0000
  H   H65       1.0  0.24212  0.72545  0.59241  1.0000
  H   H66       1.0  0.23841  0.94302  0.58940  1.0000
  H   H67       1.0  0.08092  0.94397  0.57482  1.0000
  H   H68       1.0  0.07626  0.72613  0.57868  1.0000
  C   C121      1.0  0.99585  0.81079  0.36884  1.0000
  C   C122      1.0  0.33013  0.84928  0.36881  1.0000
  H   H69       1.0  0.33004  0.86313  0.42761  1.0000
  H   H70       1.0  0.99534  0.79710  0.42803  1.0000
  O   O16       1.0  0.99598  0.79373  0.63462  1.0000
  C   C123      1.0  0.33378  0.87221  0.63919  1.0000
  O   O17       1.0  0.30522  0.87597  0.59800  1.0000
  O   O18       1.0  0.36178  0.87186  0.59297  1.0000
  H   H71       1.0  0.38421  0.86760  0.61317  1.0000
  C   C124      1.0  0.12098  0.00323  0.55719  1.0000
  C   C125      1.0  0.14176  0.99775  0.47899  1.0000
  C   C126      1.0  0.18087  0.99731  0.48262  1.0000
  C   C127      1.0  0.19842  0.00239  0.56556  1.0000
  C   C128      1.0  0.17741  0.00745  0.64299  1.0000
  C   C129      1.0  0.13938  0.00785  0.63867  1.0000
  N   N11       1.0  0.19990  0.99220  0.40548  1.0000
  N   N12       1.0  0.12538  0.99325  0.39888  1.0000
  H   H72       1.0  0.22661  0.99210  0.40597  1.0000
  C   C130      1.0  0.33154  0.24035  0.28534  1.0000
  C   C131      1.0  0.36444  0.25691  0.25694  1.0000
  C   C132      1.0  0.36318  0.28541  0.19472  1.0000
  C   C133      1.0  0.32948  0.29831  0.15953  1.0000
  C   C134      1.0  0.63023  0.28509  0.19991  1.0000
  C   C135      1.0  0.63105  0.25641  0.26160  1.0000
  C   C136      1.0  0.32852  0.99734  0.09639  1.0000
  C   C137      1.0  0.32858  0.02750  0.16563  1.0000
  C   C138      1.0  0.62891  0.03978  0.20619  1.0000
  C   C139      1.0  0.62894  0.06911  0.26624  1.0000
  C   C140      1.0  0.32904  0.08614  0.28847  1.0000
  C   C141      1.0  0.36244  0.06958  0.26318  1.0000
  C   C142      1.0  0.36194  0.04067  0.20199  1.0000
  C   C143      1.0  0.35927  0.99894  0.02826  1.0000
  C   C144      1.0  0.62951  0.33182  0.03327  1.0000
  H   H73       1.0  0.62698  0.05664  0.02071  1.0000
  H   H74       1.0  0.62429  0.27423  0.01548  1.0000
  H   H75       1.0  0.36455  0.27488  0.00900  1.0000
  H   H76       1.0  0.36108  0.05699  0.01542  1.0000
  H   H77       1.0  0.38643  0.03177  0.17756  1.0000
  H   H78       1.0  0.38690  0.08263  0.27417  1.0000
  H   H79       1.0  0.60446  0.08156  0.28083  1.0000
  H   H80       1.0  0.60407  0.03000  0.18571  1.0000
  H   H81       1.0  0.60515  0.29465  0.18054  1.0000
  H   H82       1.0  0.38747  0.29525  0.17119  1.0000
  H   H83       1.0  0.38918  0.24448  0.26869  1.0000
  H   H84       1.0  0.60678  0.24395  0.27789  1.0000
  C   C145      1.0  0.66478  0.20184  0.28812  1.0000
  C   C146      1.0  0.66449  0.18251  0.20672  1.0000
  C   C147      1.0  0.32957  0.14379  0.20548  1.0000
  C   C148      1.0  0.32892  0.12473  0.28801  1.0000
  N   N13       1.0  0.32886  0.12723  0.12367  1.0000
  C   C149      1.0  0.33003  0.14566  0.04563  1.0000
  C   C150      1.0  0.66526  0.18412  0.04753  1.0000
  N   N14       1.0  0.66563  0.20057  0.12771  1.0000
  H   H85       1.0  0.32734  0.10095  0.11881  1.0000
  C   C151      1.0  0.51631  0.32107  0.32604  1.0000
  C   C152      1.0  0.47763  0.32145  0.32240  1.0000
  H   H86       1.0  0.45849  0.34438  0.02996  1.0000
  H   H87       1.0  0.52286  0.34372  0.03722  1.0000
  O   O19       1.0  0.53681  0.31718  0.25177  1.0000
  C   C153      1.0  0.45828  0.31888  0.24416  1.0000
  O   O20       1.0  0.45459  0.34817  0.20604  1.0000
  O   O21       1.0  0.46262  0.29231  0.19452  1.0000
  H   H88       1.0  0.46721  0.26970  0.21299  1.0000
  C   C154      1.0  0.61653  0.03234  0.66544  1.0000
  C   C155      1.0  0.58703  0.03381  0.60630  1.0000
  C   C156      1.0  0.56985  0.33443  0.57914  1.0000
  C   C157      1.0  0.58490  0.30037  0.60436  1.0000
  C   C158      1.0  0.61490  0.29930  0.66242  1.0000
  C   C159      1.0  0.37294  0.29999  0.65410  1.0000
  C   C160      1.0  0.40106  0.30126  0.59061  1.0000
  C   C161      1.0  0.41569  0.00199  0.56356  1.0000
  C   C162      1.0  0.39822  0.03444  0.59252  1.0000
  C   C163      1.0  0.37090  0.03277  0.65786  1.0000
  H   H89       1.0  0.57545  0.05878  0.59241  1.0000
  H   H90       1.0  0.57175  0.27635  0.58940  1.0000
  H   H91       1.0  0.41425  0.27731  0.57483  1.0000
  H   H92       1.0  0.40960  0.05947  0.57868  1.0000
  C   C164      1.0  0.32918  0.14412  0.36884  1.0000
  C   C165      1.0  0.66346  0.18261  0.36882  1.0000
  H   H93       1.0  0.66337  0.19647  0.42761  1.0000
  H   H94       1.0  0.32867  0.13043  0.42803  1.0000
  O   O22       1.0  0.32931  0.12706  0.63462  1.0000
  C   C166      1.0  0.66712  0.20554  0.63919  1.0000
  O   O23       1.0  0.63855  0.20931  0.59800  1.0000
  O   O24       1.0  0.69511  0.20519  0.59297  1.0000
  H   H95       1.0  0.71755  0.20093  0.61318  1.0000
  C   C167      1.0  0.45432  0.33656  0.55719  1.0000
  C   C168      1.0  0.47510  0.33108  0.47899  1.0000
  C   C169      1.0  0.51420  0.33065  0.48262  1.0000
  C   C170      1.0  0.53175  0.33572  0.56556  1.0000
  C   C171      1.0  0.51074  0.34078  0.64299  1.0000
  C   C172      1.0  0.47271  0.34118  0.63868  1.0000
  N   N15       1.0  0.53324  0.32554  0.40548  1.0000
  N   N16       1.0  0.45871  0.32658  0.39888  1.0000
  H   H96       1.0  0.55995  0.32543  0.40597  1.0000
  C   C173      1.0  0.33154  0.57369  0.28534  1.0000
  C   C174      1.0  0.36444  0.59024  0.25694  1.0000
  C   C175      1.0  0.36318  0.61874  0.19472  1.0000
  C   C176      1.0  0.32948  0.63165  0.15953  1.0000
  C   C177      1.0  0.63023  0.61842  0.19992  1.0000
  C   C178      1.0  0.63105  0.58974  0.26160  1.0000
  C   C179      1.0  0.32852  0.33067  0.09640  1.0000
  C   C180      1.0  0.32858  0.36084  0.16563  1.0000
  C   C181      1.0  0.62891  0.37311  0.20619  1.0000
  C   C182      1.0  0.62894  0.40244  0.26624  1.0000
  C   C183      1.0  0.32904  0.41948  0.28847  1.0000
  C   C184      1.0  0.36244  0.40292  0.26318  1.0000
  C   C185      1.0  0.36194  0.37400  0.20199  1.0000
  C   C186      1.0  0.35927  0.33227  0.02826  1.0000
  C   C187      1.0  0.62951  0.66515  0.03327  1.0000
  H   H97       1.0  0.62698  0.38997  0.02071  1.0000
  H   H98       1.0  0.62429  0.60756  0.01548  1.0000
  H   H99       1.0  0.36455  0.60822  0.00900  1.0000
  H   H100      1.0  0.36108  0.39032  0.01542  1.0000
  H   H101      1.0  0.38643  0.36510  0.17756  1.0000
  H   H102      1.0  0.38690  0.41596  0.27417  1.0000
  H   H103      1.0  0.60446  0.41489  0.28083  1.0000
  H   H104      1.0  0.60407  0.36334  0.18571  1.0000
  H   H105      1.0  0.60515  0.62799  0.18054  1.0000
  H   H106      1.0  0.38747  0.62858  0.17120  1.0000
  H   H107      1.0  0.38918  0.57782  0.26869  1.0000
  H   H108      1.0  0.60678  0.57729  0.27789  1.0000
  C   C188      1.0  0.66478  0.53517  0.28812  1.0000
  C   C189      1.0  0.66449  0.51584  0.20672  1.0000
  C   C190      1.0  0.32957  0.47712  0.20548  1.0000
  C   C191      1.0  0.32892  0.45806  0.28801  1.0000
  N   N17       1.0  0.32886  0.46056  0.12367  1.0000
  C   C192      1.0  0.33003  0.47900  0.04563  1.0000
  C   C193      1.0  0.66526  0.51745  0.04753  1.0000
  N   N18       1.0  0.66563  0.53390  0.12771  1.0000
  H   H109      1.0  0.32733  0.43428  0.11881  1.0000
  C   C194      1.0  0.51631  0.65441  0.32604  1.0000
  C   C195      1.0  0.47763  0.65478  0.32240  1.0000
  H   H110      1.0  0.45849  0.67771  0.02996  1.0000
  H   H111      1.0  0.52286  0.67705  0.03722  1.0000
  O   O25       1.0  0.53681  0.65052  0.25177  1.0000
  C   C196      1.0  0.45827  0.65222  0.24416  1.0000
  O   O26       1.0  0.45459  0.68151  0.20604  1.0000
  O   O27       1.0  0.46263  0.62564  0.19452  1.0000
  H   H112      1.0  0.46721  0.60303  0.21299  1.0000
  C   C197      1.0  0.61653  0.36567  0.66544  1.0000
  C   C198      1.0  0.58703  0.36714  0.60630  1.0000
  C   C199      1.0  0.56985  0.66777  0.57914  1.0000
  C   C200      1.0  0.58491  0.63370  0.60436  1.0000
  C   C201      1.0  0.61490  0.63263  0.66242  1.0000
  C   C202      1.0  0.37294  0.63332  0.65410  1.0000
  C   C203      1.0  0.40106  0.63459  0.59061  1.0000
  C   C204      1.0  0.41569  0.33532  0.56356  1.0000
  C   C205      1.0  0.39822  0.36777  0.59252  1.0000
  C   C206      1.0  0.37090  0.36611  0.65786  1.0000
  H   H113      1.0  0.57545  0.39212  0.59241  1.0000
  H   H114      1.0  0.57175  0.60968  0.58940  1.0000
  H   H115      1.0  0.41425  0.61064  0.57483  1.0000
  H   H116      1.0  0.40959  0.39280  0.57868  1.0000
  C   C207      1.0  0.32918  0.47745  0.36884  1.0000
  C   C208      1.0  0.66346  0.51594  0.36882  1.0000
  H   H117      1.0  0.66337  0.52980  0.42761  1.0000
  H   H118      1.0  0.32867  0.46377  0.42803  1.0000
  O   O28       1.0  0.32931  0.46040  0.63462  1.0000
  C   C209      1.0  0.66712  0.53888  0.63919  1.0000
  O   O29       1.0  0.63855  0.54264  0.59800  1.0000
  O   O30       1.0  0.69511  0.53853  0.59297  1.0000
  H   H119      1.0  0.71754  0.53426  0.61318  1.0000
  C   C210      1.0  0.45432  0.66989  0.55719  1.0000
  C   C211      1.0  0.47510  0.66441  0.47899  1.0000
  C   C212      1.0  0.51420  0.66398  0.48262  1.0000
  C   C213      1.0  0.53175  0.66906  0.56556  1.0000
  C   C214      1.0  0.51074  0.67411  0.64299  1.0000
  C   C215      1.0  0.47271  0.67452  0.63868  1.0000
  N   N19       1.0  0.53324  0.65887  0.40548  1.0000
  N   N20       1.0  0.45871  0.65992  0.39888  1.0000
  H   H120      1.0  0.55995  0.65876  0.40597  1.0000
  C   C216      1.0  0.33154  0.90702  0.28534  1.0000
  C   C217      1.0  0.36444  0.92357  0.25694  1.0000
  C   C218      1.0  0.36318  0.95207  0.19472  1.0000
  C   C219      1.0  0.32948  0.96498  0.15953  1.0000
  C   C220      1.0  0.63023  0.95176  0.19991  1.0000
  C   C221      1.0  0.63105  0.92307  0.26160  1.0000
  C   C222      1.0  0.32851  0.66401  0.09640  1.0000
  C   C223      1.0  0.32858  0.69417  0.16563  1.0000
  C   C224      1.0  0.62891  0.70644  0.20619  1.0000
  C   C225      1.0  0.62894  0.73577  0.26624  1.0000
  C   C226      1.0  0.32904  0.75281  0.28847  1.0000
  C   C227      1.0  0.36244  0.73625  0.26318  1.0000
  C   C228      1.0  0.36194  0.70733  0.20199  1.0000
  C   C229      1.0  0.35927  0.66561  0.02826  1.0000
  C   C230      1.0  0.62951  0.99849  0.03327  1.0000
  H   H121      1.0  0.62698  0.72331  0.02071  1.0000
  H   H122      1.0  0.62429  0.94090  0.01548  1.0000
  H   H123      1.0  0.36455  0.94155  0.00900  1.0000
  H   H124      1.0  0.36108  0.72365  0.01542  1.0000
  H   H125      1.0  0.38643  0.69843  0.17757  1.0000
  H   H126      1.0  0.38690  0.74930  0.27417  1.0000
  H   H127      1.0  0.60446  0.74823  0.28083  1.0000
  H   H128      1.0  0.60407  0.69667  0.18571  1.0000
  H   H129      1.0  0.60515  0.96132  0.18054  1.0000
  H   H130      1.0  0.38747  0.96191  0.17119  1.0000
  H   H131      1.0  0.38918  0.91115  0.26869  1.0000
  H   H132      1.0  0.60678  0.91062  0.27789  1.0000
  C   C231      1.0  0.66479  0.86851  0.28812  1.0000
  C   C232      1.0  0.66449  0.84917  0.20671  1.0000
  C   C233      1.0  0.32957  0.81045  0.20548  1.0000
  C   C234      1.0  0.32892  0.79139  0.28801  1.0000
  N   N21       1.0  0.32887  0.79389  0.12367  1.0000
  C   C235      1.0  0.33003  0.81233  0.04563  1.0000
  C   C236      1.0  0.66526  0.85078  0.04753  1.0000
  N   N22       1.0  0.66563  0.86723  0.12770  1.0000
  H   H133      1.0  0.32733  0.76761  0.11881  1.0000
  C   C237      1.0  0.51631  0.98774  0.32604  1.0000
  C   C238      1.0  0.47763  0.98811  0.32240  1.0000
  H   H134      1.0  0.45849  0.01104  0.02996  1.0000
  H   H135      1.0  0.52286  0.01039  0.03722  1.0000
  O   O31       1.0  0.53681  0.98385  0.25177  1.0000
  C   C239      1.0  0.45827  0.98555  0.24416  1.0000
  O   O32       1.0  0.45459  0.01484  0.20604  1.0000
  O   O33       1.0  0.46263  0.95898  0.19452  1.0000
  H   H136      1.0  0.46721  0.93637  0.21299  1.0000
  C   C240      1.0  0.61653  0.69900  0.66544  1.0000
  C   C241      1.0  0.58703  0.70048  0.60630  1.0000
  C   C242      1.0  0.56985  0.00110  0.57914  1.0000
  C   C243      1.0  0.58491  0.96704  0.60436  1.0000
  C   C244      1.0  0.61490  0.96596  0.66241  1.0000
  C   C245      1.0  0.37294  0.96666  0.65410  1.0000
  C   C246      1.0  0.40106  0.96793  0.59061  1.0000
  C   C247      1.0  0.41569  0.66866  0.56356  1.0000
  C   C248      1.0  0.39822  0.70110  0.59252  1.0000
  C   C249      1.0  0.37090  0.69944  0.65786  1.0000
  H   H137      1.0  0.57545  0.72545  0.59241  1.0000
  H   H138      1.0  0.57174  0.94302  0.58940  1.0000
  H   H139      1.0  0.41425  0.94397  0.57482  1.0000
  H   H140      1.0  0.40959  0.72613  0.57868  1.0000
  C   C250      1.0  0.32918  0.81079  0.36884  1.0000
  C   C251      1.0  0.66346  0.84928  0.36881  1.0000
  H   H141      1.0  0.66337  0.86313  0.42761  1.0000
  H   H142      1.0  0.32867  0.79710  0.42803  1.0000
  O   O34       1.0  0.32931  0.79373  0.63462  1.0000
  C   C252      1.0  0.66712  0.87221  0.63919  1.0000
  O   O35       1.0  0.63855  0.87597  0.59800  1.0000
  O   O36       1.0  0.69511  0.87186  0.59297  1.0000
  H   H143      1.0  0.71755  0.86760  0.61317  1.0000
  C   C253      1.0  0.45432  0.00323  0.55719  1.0000
  C   C254      1.0  0.47510  0.99775  0.47899  1.0000
  C   C255      1.0  0.51420  0.99731  0.48262  1.0000
  C   C256      1.0  0.53175  0.00239  0.56556  1.0000
  C   C257      1.0  0.51074  0.00745  0.64299  1.0000
  C   C258      1.0  0.47271  0.00785  0.63867  1.0000
  N   N23       1.0  0.53324  0.99220  0.40548  1.0000
  N   N24       1.0  0.45871  0.99325  0.39888  1.0000
  H   H144      1.0  0.55995  0.99210  0.40597  1.0000
  C   C259      1.0  0.66488  0.24035  0.28534  1.0000
  C   C260      1.0  0.69777  0.25691  0.25694  1.0000
  C   C261      1.0  0.69652  0.28541  0.19472  1.0000
  C   C262      1.0  0.66281  0.29831  0.15953  1.0000
  C   C263      1.0  0.96356  0.28509  0.19991  1.0000
  C   C264      1.0  0.96439  0.25641  0.26160  1.0000
  C   C265      1.0  0.66185  0.99734  0.09639  1.0000
  C   C266      1.0  0.66191  0.02750  0.16563  1.0000
  C   C267      1.0  0.96225  0.03978  0.20619  1.0000
  C   C268      1.0  0.96227  0.06911  0.26624  1.0000
  C   C269      1.0  0.66238  0.08614  0.28847  1.0000
  C   C270      1.0  0.69577  0.06958  0.26318  1.0000
  C   C271      1.0  0.69527  0.04067  0.20199  1.0000
  C   C272      1.0  0.69260  0.99894  0.02826  1.0000
  C   C273      1.0  0.96284  0.33182  0.03327  1.0000
  H   H145      1.0  0.96031  0.05664  0.02071  1.0000
  H   H146      1.0  0.95762  0.27423  0.01548  1.0000
  H   H147      1.0  0.69789  0.27488  0.00900  1.0000
  H   H148      1.0  0.69441  0.05699  0.01542  1.0000
  H   H149      1.0  0.71976  0.03177  0.17756  1.0000
  H   H150      1.0  0.72023  0.08263  0.27417  1.0000
  H   H151      1.0  0.93780  0.08156  0.28083  1.0000
  H   H152      1.0  0.93740  0.03000  0.18571  1.0000
  H   H153      1.0  0.93849  0.29465  0.18054  1.0000
  H   H154      1.0  0.72080  0.29525  0.17119  1.0000
  H   H155      1.0  0.72251  0.24448  0.26869  1.0000
  H   H156      1.0  0.94012  0.24395  0.27789  1.0000
  C   C274      1.0  0.99812  0.20184  0.28812  1.0000
  C   C275      1.0  0.99782  0.18251  0.20672  1.0000
  C   C276      1.0  0.66290  0.14379  0.20548  1.0000
  C   C277      1.0  0.66226  0.12473  0.28801  1.0000
  N   N25       1.0  0.66220  0.12723  0.12367  1.0000
  C   C278      1.0  0.66336  0.14566  0.04563  1.0000
  C   C279      1.0  0.99859  0.18412  0.04753  1.0000
  N   N26       1.0  0.99896  0.20057  0.12771  1.0000
  H   H157      1.0  0.66067  0.10095  0.11881  1.0000
  C   C280      1.0  0.84965  0.32107  0.32604  1.0000
  C   C281      1.0  0.81096  0.32145  0.32240  1.0000
  H   H158      1.0  0.79182  0.34438  0.02996  1.0000
  H   H159      1.0  0.85619  0.34372  0.03722  1.0000
  O   O37       1.0  0.87014  0.31718  0.25177  1.0000
  C   C282      1.0  0.79161  0.31888  0.24416  1.0000
  O   O38       1.0  0.78792  0.34817  0.20604  1.0000
  O   O39       1.0  0.79596  0.29231  0.19452  1.0000
  H   H160      1.0  0.80055  0.26970  0.21299  1.0000
  C   C283      1.0  0.94987  0.03234  0.66544  1.0000
  C   C284      1.0  0.92036  0.03381  0.60630  1.0000
  C   C285      1.0  0.90319  0.33443  0.57914  1.0000
  C   C286      1.0  0.91824  0.30037  0.60436  1.0000
  C   C287      1.0  0.94824  0.29930  0.66242  1.0000
  C   C288      1.0  0.70627  0.29999  0.65410  1.0000
  C   C289      1.0  0.73439  0.30126  0.59061  1.0000
  C   C290      1.0  0.74903  0.00199  0.56356  1.0000
  C   C291      1.0  0.73155  0.03444  0.59252  1.0000
  C   C292      1.0  0.70423  0.03277  0.65786  1.0000
  H   H161      1.0  0.90879  0.05878  0.59241  1.0000
  H   H162      1.0  0.90508  0.27635  0.58940  1.0000
  H   H163      1.0  0.74758  0.27731  0.57483  1.0000
  H   H164      1.0  0.74293  0.05947  0.57868  1.0000
  C   C293      1.0  0.66251  0.14412  0.36884  1.0000
  C   C294      1.0  0.99679  0.18261  0.36882  1.0000
  H   H165      1.0  0.99670  0.19647  0.42761  1.0000
  H   H166      1.0  0.66200  0.13043  0.42803  1.0000
  O   O40       1.0  0.66264  0.12706  0.63462  1.0000
  C   C295      1.0  0.00045  0.20554  0.63919  1.0000
  O   O41       1.0  0.97188  0.20931  0.59800  1.0000
  O   O42       1.0  0.02844  0.20519  0.59297  1.0000
  H   H167      1.0  0.05088  0.20093  0.61318  1.0000
  C   C296      1.0  0.78765  0.33656  0.55719  1.0000
  C   C297      1.0  0.80843  0.33108  0.47899  1.0000
  C   C298      1.0  0.84754  0.33065  0.48262  1.0000
  C   C299      1.0  0.86508  0.33572  0.56556  1.0000
  C   C300      1.0  0.84408  0.34078  0.64299  1.0000
  C   C301      1.0  0.80604  0.34118  0.63868  1.0000
  N   N27       1.0  0.86657  0.32554  0.40548  1.0000
  N   N28       1.0  0.79205  0.32658  0.39888  1.0000
  H   H168      1.0  0.89328  0.32543  0.40597  1.0000
  C   C302      1.0  0.66488  0.57369  0.28534  1.0000
  C   C303      1.0  0.69777  0.59024  0.25694  1.0000
  C   C304      1.0  0.69652  0.61874  0.19472  1.0000
  C   C305      1.0  0.66281  0.63165  0.15953  1.0000
  C   C306      1.0  0.96356  0.61842  0.19992  1.0000
  C   C307      1.0  0.96439  0.58974  0.26160  1.0000
  C   C308      1.0  0.66185  0.33067  0.09640  1.0000
  C   C309      1.0  0.66191  0.36084  0.16563  1.0000
  C   C310      1.0  0.96225  0.37311  0.20619  1.0000
  C   C311      1.0  0.96227  0.40244  0.26624  1.0000
  C   C312      1.0  0.66238  0.41948  0.28847  1.0000
  C   C313      1.0  0.69577  0.40292  0.26318  1.0000
  C   C314      1.0  0.69527  0.37400  0.20199  1.0000
  C   C315      1.0  0.69260  0.33227  0.02826  1.0000
  C   C316      1.0  0.96284  0.66515  0.03327  1.0000
  H   H169      1.0  0.96031  0.38997  0.02071  1.0000
  H   H170      1.0  0.95762  0.60756  0.01548  1.0000
  H   H171      1.0  0.69789  0.60822  0.00900  1.0000
  H   H172      1.0  0.69441  0.39032  0.01542  1.0000
  H   H173      1.0  0.71976  0.36510  0.17756  1.0000
  H   H174      1.0  0.72023  0.41596  0.27417  1.0000
  H   H175      1.0  0.93780  0.41489  0.28083  1.0000
  H   H176      1.0  0.93740  0.36334  0.18571  1.0000
  H   H177      1.0  0.93848  0.62799  0.18054  1.0000
  H   H178      1.0  0.72080  0.62858  0.17120  1.0000
  H   H179      1.0  0.72251  0.57782  0.26869  1.0000
  H   H180      1.0  0.94012  0.57729  0.27789  1.0000
  C   C317      1.0  0.99812  0.53517  0.28812  1.0000
  C   C318      1.0  0.99782  0.51584  0.20672  1.0000
  C   C319      1.0  0.66290  0.47712  0.20548  1.0000
  C   C320      1.0  0.66226  0.45806  0.28801  1.0000
  N   N29       1.0  0.66220  0.46056  0.12367  1.0000
  C   C321      1.0  0.66336  0.47900  0.04563  1.0000
  C   C322      1.0  0.99859  0.51745  0.04753  1.0000
  N   N30       1.0  0.99896  0.53390  0.12771  1.0000
  H   H181      1.0  0.66067  0.43428  0.11881  1.0000
  C   C323      1.0  0.84965  0.65441  0.32604  1.0000
  C   C324      1.0  0.81096  0.65478  0.32240  1.0000
  H   H182      1.0  0.79182  0.67771  0.02996  1.0000
  H   H183      1.0  0.85619  0.67705  0.03722  1.0000
  O   O43       1.0  0.87014  0.65052  0.25177  1.0000
  C   C325      1.0  0.79161  0.65222  0.24416  1.0000
  O   O44       1.0  0.78792  0.68151  0.20604  1.0000
  O   O45       1.0  0.79596  0.62564  0.19452  1.0000
  H   H184      1.0  0.80055  0.60303  0.21299  1.0000
  C   C326      1.0  0.94987  0.36567  0.66544  1.0000
  C   C327      1.0  0.92036  0.36714  0.60630  1.0000
  C   C328      1.0  0.90319  0.66777  0.57914  1.0000
  C   C329      1.0  0.91824  0.63370  0.60436  1.0000
  C   C330      1.0  0.94824  0.63263  0.66242  1.0000
  C   C331      1.0  0.70627  0.63332  0.65410  1.0000
  C   C332      1.0  0.73439  0.63459  0.59061  1.0000
  C   C333      1.0  0.74903  0.33532  0.56356  1.0000
  C   C334      1.0  0.73155  0.36777  0.59252  1.0000
  C   C335      1.0  0.70423  0.36611  0.65786  1.0000
  H   H185      1.0  0.90879  0.39212  0.59241  1.0000
  H   H186      1.0  0.90508  0.60968  0.58940  1.0000
  H   H187      1.0  0.74758  0.61064  0.57483  1.0000
  H   H188      1.0  0.74293  0.39280  0.57868  1.0000
  C   C336      1.0  0.66251  0.47745  0.36884  1.0000
  C   C337      1.0  0.99679  0.51594  0.36882  1.0000
  H   H189      1.0  0.99670  0.52980  0.42761  1.0000
  H   H190      1.0  0.66200  0.46377  0.42803  1.0000
  O   O46       1.0  0.66264  0.46040  0.63462  1.0000
  C   C338      1.0  0.00045  0.53888  0.63919  1.0000
  O   O47       1.0  0.97188  0.54264  0.59800  1.0000
  O   O48       1.0  0.02844  0.53853  0.59297  1.0000
  H   H191      1.0  0.05088  0.53426  0.61318  1.0000
  C   C339      1.0  0.78765  0.66989  0.55719  1.0000
  C   C340      1.0  0.80843  0.66441  0.47899  1.0000
  C   C341      1.0  0.84754  0.66398  0.48262  1.0000
  C   C342      1.0  0.86508  0.66906  0.56556  1.0000
  C   C343      1.0  0.84408  0.67411  0.64299  1.0000
  C   C344      1.0  0.80604  0.67452  0.63868  1.0000
  N   N31       1.0  0.86657  0.65887  0.40548  1.0000
  N   N32       1.0  0.79205  0.65992  0.39888  1.0000
  H   H192      1.0  0.89328  0.65876  0.40597  1.0000
  C   C345      1.0  0.66488  0.90702  0.28534  1.0000
  C   C346      1.0  0.69777  0.92357  0.25694  1.0000
  C   C347      1.0  0.69652  0.95207  0.19472  1.0000
  C   C348      1.0  0.66281  0.96498  0.15953  1.0000
  C   C349      1.0  0.96356  0.95176  0.19991  1.0000
  C   C350      1.0  0.96439  0.92307  0.26160  1.0000
  C   C351      1.0  0.66185  0.66401  0.09640  1.0000
  C   C352      1.0  0.66191  0.69417  0.16563  1.0000
  C   C353      1.0  0.96225  0.70644  0.20619  1.0000
  C   C354      1.0  0.96227  0.73577  0.26624  1.0000
  C   C355      1.0  0.66238  0.75281  0.28847  1.0000
  C   C356      1.0  0.69577  0.73625  0.26318  1.0000
  C   C357      1.0  0.69527  0.70733  0.20199  1.0000
  C   C358      1.0  0.69260  0.66561  0.02826  1.0000
  C   C359      1.0  0.96284  0.99849  0.03327  1.0000
  H   H193      1.0  0.96031  0.72331  0.02071  1.0000
  H   H194      1.0  0.95762  0.94090  0.01548  1.0000
  H   H195      1.0  0.69789  0.94155  0.00900  1.0000
  H   H196      1.0  0.69442  0.72365  0.01542  1.0000
  H   H197      1.0  0.71976  0.69843  0.17757  1.0000
  H   H198      1.0  0.72023  0.74930  0.27417  1.0000
  H   H199      1.0  0.93780  0.74823  0.28083  1.0000
  H   H200      1.0  0.93740  0.69667  0.18571  1.0000
  H   H201      1.0  0.93848  0.96132  0.18054  1.0000
  H   H202      1.0  0.72080  0.96191  0.17119  1.0000
  H   H203      1.0  0.72251  0.91115  0.26869  1.0000
  H   H204      1.0  0.94012  0.91062  0.27789  1.0000
  C   C360      1.0  0.99812  0.86851  0.28812  1.0000
  C   C361      1.0  0.99782  0.84917  0.20671  1.0000
  C   C362      1.0  0.66290  0.81045  0.20548  1.0000
  C   C363      1.0  0.66226  0.79139  0.28801  1.0000
  N   N33       1.0  0.66220  0.79389  0.12367  1.0000
  C   C364      1.0  0.66336  0.81233  0.04563  1.0000
  C   C365      1.0  0.99859  0.85078  0.04753  1.0000
  N   N34       1.0  0.99896  0.86723  0.12770  1.0000
  H   H205      1.0  0.66067  0.76761  0.11881  1.0000
  C   C366      1.0  0.84965  0.98774  0.32604  1.0000
  C   C367      1.0  0.81096  0.98811  0.32240  1.0000
  H   H206      1.0  0.79182  0.01104  0.02996  1.0000
  H   H207      1.0  0.85619  0.01039  0.03722  1.0000
  O   O49       1.0  0.87014  0.98385  0.25177  1.0000
  C   C368      1.0  0.79161  0.98555  0.24416  1.0000
  O   O50       1.0  0.78792  0.01484  0.20604  1.0000
  O   O51       1.0  0.79596  0.95898  0.19452  1.0000
  H   H208      1.0  0.80055  0.93637  0.21299  1.0000
  C   C369      1.0  0.94987  0.69900  0.66544  1.0000
  C   C370      1.0  0.92036  0.70048  0.60630  1.0000
  C   C371      1.0  0.90319  0.00110  0.57914  1.0000
  C   C372      1.0  0.91824  0.96704  0.60436  1.0000
  C   C373      1.0  0.94824  0.96596  0.66241  1.0000
  C   C374      1.0  0.70627  0.96666  0.65410  1.0000
  C   C375      1.0  0.73439  0.96793  0.59061  1.0000
  C   C376      1.0  0.74903  0.66866  0.56356  1.0000
  C   C377      1.0  0.73155  0.70110  0.59252  1.0000
  C   C378      1.0  0.70423  0.69944  0.65786  1.0000
  H   H209      1.0  0.90879  0.72545  0.59241  1.0000
  H   H210      1.0  0.90508  0.94302  0.58940  1.0000
  H   H211      1.0  0.74758  0.94397  0.57482  1.0000
  H   H212      1.0  0.74293  0.72613  0.57868  1.0000
  C   C379      1.0  0.66251  0.81079  0.36884  1.0000
  C   C380      1.0  0.99679  0.84928  0.36881  1.0000
  H   H213      1.0  0.99670  0.86313  0.42761  1.0000
  H   H214      1.0  0.66200  0.79710  0.42803  1.0000
  O   O52       1.0  0.66265  0.79373  0.63462  1.0000
  C   C381      1.0  0.00045  0.87221  0.63919  1.0000
  O   O53       1.0  0.97188  0.87597  0.59800  1.0000
  O   O54       1.0  0.02845  0.87186  0.59297  1.0000
  H   H215      1.0  0.05088  0.86760  0.61317  1.0000
  C   C382      1.0  0.78765  0.00323  0.55719  1.0000
  C   C383      1.0  0.80843  0.99775  0.47899  1.0000
  C   C384      1.0  0.84754  0.99731  0.48262  1.0000
  C   C385      1.0  0.86509  0.00239  0.56556  1.0000
  C   C386      1.0  0.84408  0.00745  0.64299  1.0000
  C   C387      1.0  0.80604  0.00785  0.63867  1.0000
  N   N35       1.0  0.86657  0.99220  0.40548  1.0000
  N   N36       1.0  0.79205  0.99325  0.39888  1.0000
  H   H216      1.0  0.89328  0.99210  0.40597  1.0000
