data_image0
_chemical_formula_structural       C2H2C3H2CHC7H2N2O4CHC7H2N2O4CHC7H2N2O4CHC2H2C3H2CHC2H2C3H2CHC2H2C3H2CHC2H2C3H2CHC7H2N2O4CHC7H2N2O4CHC2H2C3H2CHC7H2N2O4CHC7H2N2O4CHC7H2N2O4CHC2H2C3H2CHC2H2C3H2CHC2H2C3H2CHC2H2C3H2CHC7H2N2O4CHC7H2N2O4CHC2H2C3H2CHC2H2C3H2CHC7H2N2O4CHC7H2N2O4CHC2H2C3H2CHC2H2C3H2CHC7H2N2O4CHC7H2N2O4CHC2H2C3H2CHC2H2C3H2CHC7H2N2O4CHC7H2N2O4CHC2H2C3H2CHC2H2C3H2CHC7H2N2O4CHC7H2N2O4CHC6H3N3C6H3N3C6H3N3C6H3N3C6H3N3C6H3N3C6H3N3C6H3N3C6H3N3C6H3N3C6H3N3C6H3N3C6H3N3C6H3N3C6H3N3C6H3N3C6H3N3C6H3N3C6H3N3C6H3N3C6H3N3C6H3N3C6H3N3C6H3N3C7H2N2O4CHC2H2C3H2CHC2H2C3H2CHC2H2C3H2CHC7H2N2O4CHC7H2N2O4CHC7H2N2O4CHC7H2N2O4CHC2H2C3H2CHC2H2C3H2CHC7H2N2O4CHC2H2C3H2CHC2H2C3H2CHC2H2C3H2CHC7H2N2O4CHC7H2N2O4CHC7H2N2O4CHC7H2N2O4CHC2H2C3H2CHC2H2C3H2CHC7H2N2O4CHC7H2N2O4CHC2H2C3H2CHC2H2C3H2CHC7H2N2O4CHC7H2N2O4CHC2H2C3H2CHC2H2C3H2CHC7H2N2O4CHC7H2N2O4CHC2H2C3H2CHC2H2C3H2CHC7H2N2O4CHC7H2N2O4CHC2H2C3H2CHC2H2C3H2CH
_chemical_formula_sum              "C648 H360 N144 O144"
_cell_length_a       85.0536
_cell_length_b       108.145
_cell_length_c       14.9871
_cell_angle_alpha    90
_cell_angle_beta     90
_cell_angle_gamma    90

_space_group_name_H-M_alt    "P 1"
_space_group_IT_number       1

loop_
  _space_group_symop_operation_xyz
  'x, y, z'

loop_
  _atom_site_type_symbol
  _atom_site_label
  _atom_site_symmetry_multiplicity
  _atom_site_fract_x
  _atom_site_fract_y
  _atom_site_fract_z
  _atom_site_occupancy
  C   C1        1.0  0.48701  0.01083  0.28046  1.0000
  C   C2        1.0  0.47645  0.02075  0.28990  1.0000
  H   H1        1.0  0.48885  0.00721  0.21821  1.0000
  H   H2        1.0  0.47089  0.02405  0.23415  1.0000
  C   C3        1.0  0.52752  0.97592  0.32336  1.0000
  C   C4        1.0  0.52920  0.98722  0.27687  1.0000
  C   C5        1.0  0.51829  0.99686  0.28770  1.0000
  H   H3        1.0  0.53847  0.98859  0.23445  1.0000
  H   H4        1.0  0.52008  0.00493  0.25346  1.0000
  C   C6        1.0  0.53870  0.96661  0.31194  1.0000
  H   H5        1.0  0.54846  0.96858  0.27822  1.0000
  C   C7        1.0  0.02759  0.52586  0.29363  1.0000
  C   C8        1.0  0.01992  0.52091  0.21743  1.0000
  C   C9        1.0  0.00924  0.51096  0.22818  1.0000
  C   C10       1.0  0.00620  0.50571  0.31282  1.0000
  C   C11       1.0  0.99555  0.49561  0.32245  1.0000
  C   C12       1.0  0.99751  0.48430  0.27542  1.0000
  C   C13       1.0  0.98642  0.47464  0.28725  1.0000
  H   H6        1.0  0.98802  0.46658  0.25270  1.0000
  H   H7        1.0  0.00359  0.50757  0.17309  1.0000
  N   N1        1.0  0.01076  0.48266  0.21935  1.0000
  N   N2        1.0  0.02292  0.52606  0.13216  1.0000
  O   O1        1.0  0.00673  0.48051  0.14017  1.0000
  O   O2        1.0  0.02855  0.51813  0.07978  1.0000
  O   O3        1.0  0.01935  0.47397  0.24613  1.0000
  O   O4        1.0  0.01062  0.53044  0.09812  1.0000
  C   C14       1.0  0.03864  0.53518  0.28590  1.0000
  H   H8        1.0  0.04785  0.53384  0.24612  1.0000
  C   C15       1.0  0.38732  0.06900  0.28921  1.0000
  C   C16       1.0  0.37688  0.07050  0.21585  1.0000
  C   C17       1.0  0.36043  0.07057  0.23095  1.0000
  C   C18       1.0  0.35407  0.06921  0.31749  1.0000
  C   C19       1.0  0.33767  0.07095  0.33299  1.0000
  C   C20       1.0  0.32589  0.06399  0.28822  1.0000
  C   C21       1.0  0.30980  0.06678  0.30301  1.0000
  H   H9        1.0  0.30148  0.06172  0.26986  1.0000
  H   H10       1.0  0.35308  0.07222  0.17819  1.0000
  N   N3        1.0  0.33039  0.05421  0.23078  1.0000
  N   N4        1.0  0.38301  0.07214  0.12867  1.0000
  O   O5        1.0  0.32555  0.05596  0.15256  1.0000
  O   O6        1.0  0.37905  0.08240  0.09629  1.0000
  O   O7        1.0  0.32522  0.04400  0.25797  1.0000
  O   O8        1.0  0.37849  0.06371  0.07701  1.0000
  C   C22       1.0  0.40345  0.07053  0.27898  1.0000
  H   H11       1.0  0.40725  0.07683  0.23560  1.0000
  C   C23       1.0  0.61342  0.93155  0.28733  1.0000
  C   C24       1.0  0.62390  0.93006  0.21416  1.0000
  C   C25       1.0  0.64034  0.93004  0.22954  1.0000
  C   C26       1.0  0.64665  0.93142  0.31620  1.0000
  C   C27       1.0  0.66305  0.92973  0.33193  1.0000
  C   C28       1.0  0.67480  0.93674  0.28742  1.0000
  C   C29       1.0  0.69090  0.93399  0.30244  1.0000
  H   H12       1.0  0.69921  0.93909  0.26946  1.0000
  H   H13       1.0  0.64772  0.92840  0.17692  1.0000
  N   N5        1.0  0.67028  0.94651  0.23000  1.0000
  N   N6        1.0  0.61782  0.92841  0.12689  1.0000
  O   O9        1.0  0.67517  0.94479  0.15185  1.0000
  O   O10       1.0  0.62183  0.91815  0.09459  1.0000
  O   O11       1.0  0.67539  0.95674  0.25738  1.0000
  O   O12       1.0  0.62233  0.93685  0.07529  1.0000
  C   C30       1.0  0.59730  0.93003  0.27675  1.0000
  H   H14       1.0  0.59351  0.92363  0.23412  1.0000
  C   C31       1.0  0.13630  0.56745  0.27895  1.0000
  C   C32       1.0  0.11997  0.56733  0.29282  1.0000
  H   H15       1.0  0.14048  0.56662  0.21516  1.0000
  H   H16       1.0  0.11280  0.56659  0.23817  1.0000
  C   C33       1.0  0.19578  0.57643  0.30731  1.0000
  C   C34       1.0  0.18388  0.58314  0.26271  1.0000
  C   C35       1.0  0.16792  0.58047  0.27648  1.0000
  H   H17       1.0  0.18668  0.59030  0.22086  1.0000
  H   H18       1.0  0.15973  0.58583  0.24472  1.0000
  C   C36       1.0  0.21144  0.57984  0.29519  1.0000
  H   H19       1.0  0.21386  0.58643  0.25075  1.0000
  C   C37       1.0  0.86474  0.43317  0.28043  1.0000
  C   C38       1.0  0.88107  0.43324  0.29459  1.0000
  H   H20       1.0  0.86061  0.43401  0.21658  1.0000
  H   H21       1.0  0.88828  0.43400  0.24013  1.0000
  C   C39       1.0  0.80522  0.42435  0.30794  1.0000
  C   C40       1.0  0.81710  0.41760  0.26353  1.0000
  C   C41       1.0  0.83307  0.42023  0.27750  1.0000
  H   H22       1.0  0.81429  0.41045  0.22164  1.0000
  H   H23       1.0  0.84125  0.41484  0.24586  1.0000
  C   C42       1.0  0.78955  0.42099  0.29562  1.0000
  H   H24       1.0  0.78710  0.41444  0.25088  1.0000
  C   C43       1.0  0.48365  0.12349  0.27597  1.0000
  C   C44       1.0  0.47949  0.11099  0.28580  1.0000
  H   H25       1.0  0.48697  0.12661  0.21430  1.0000
  H   H26       1.0  0.47986  0.10536  0.23086  1.0000
  C   C45       1.0  0.49438  0.17006  0.31710  1.0000
  C   C46       1.0  0.48242  0.16421  0.26692  1.0000
  C   C47       1.0  0.47912  0.15157  0.27776  1.0000
  H   H27       1.0  0.47583  0.16914  0.22211  1.0000
  H   H28       1.0  0.47020  0.14778  0.24102  1.0000
  C   C48       1.0  0.49691  0.18271  0.30719  1.0000
  H   H29       1.0  0.48887  0.18766  0.27477  1.0000
  C   C49       1.0  0.51699  0.87755  0.27828  1.0000
  C   C50       1.0  0.52109  0.89007  0.28796  1.0000
  H   H30       1.0  0.51376  0.87439  0.21656  1.0000
  H   H31       1.0  0.52075  0.89567  0.23286  1.0000
  C   C51       1.0  0.50647  0.83097  0.31915  1.0000
  C   C52       1.0  0.51845  0.83686  0.26935  1.0000
  C   C53       1.0  0.52168  0.84950  0.28041  1.0000
  H   H32       1.0  0.52507  0.83196  0.22459  1.0000
  H   H33       1.0  0.53061  0.85333  0.24386  1.0000
  C   C54       1.0  0.50397  0.81832  0.30886  1.0000
  H   H34       1.0  0.51206  0.81340  0.27660  1.0000
  C   C55       1.0  0.02582  0.60623  0.29844  1.0000
  C   C56       1.0  0.02612  0.61424  0.22341  1.0000
  C   C57       1.0  0.02194  0.62683  0.23455  1.0000
  C   C58       1.0  0.01732  0.63158  0.31842  1.0000
  C   C59       1.0  0.01327  0.64430  0.32865  1.0000
  C   C60       1.0  0.00114  0.64998  0.27787  1.0000
  C   C61       1.0  0.99791  0.66273  0.28985  1.0000
  H   H35       1.0  0.98921  0.66668  0.25220  1.0000
  H   H36       1.0  0.02247  0.63261  0.18053  1.0000
  N   N7        1.0  0.99218  0.64277  0.21751  1.0000
  N   N8        1.0  0.03085  0.60962  0.13910  1.0000
  O   O13       1.0  0.99334  0.64676  0.13903  1.0000
  O   O14       1.0  0.02014  0.61083  0.08203  1.0000
  O   O15       1.0  0.97790  0.64257  0.23896  1.0000
  O   O16       1.0  0.04297  0.61503  0.11125  1.0000
  C   C62       1.0  0.02967  0.59386  0.29051  1.0000
  H   H37       1.0  0.02376  0.58865  0.24729  1.0000
  C   C63       1.0  0.97538  0.39487  0.29627  1.0000
  C   C64       1.0  0.97512  0.38689  0.22107  1.0000
  C   C65       1.0  0.97925  0.37428  0.23205  1.0000
  C   C66       1.0  0.98377  0.36948  0.31596  1.0000
  C   C67       1.0  0.98772  0.35674  0.32617  1.0000
  C   C68       1.0  0.99986  0.35102  0.27574  1.0000
  C   C69       1.0  0.00303  0.33826  0.28794  1.0000
  H   H38       1.0  0.01174  0.33428  0.25057  1.0000
  H   H39       1.0  0.97873  0.36853  0.17791  1.0000
  N   N9        1.0  0.00890  0.35820  0.21554  1.0000
  N   N10       1.0  0.97048  0.39156  0.13675  1.0000
  O   O17       1.0  0.00778  0.35419  0.13707  1.0000
  O   O18       1.0  0.98124  0.39035  0.07993  1.0000
  O   O19       1.0  0.02317  0.35836  0.23736  1.0000
  O   O20       1.0  0.95836  0.38619  0.10847  1.0000
  C   C70       1.0  0.97154  0.40725  0.28873  1.0000
  H   H40       1.0  0.97749  0.41251  0.24601  1.0000
  C   C71       1.0  0.51717  0.50744  0.27542  1.0000
  C   C72       1.0  0.53236  0.51235  0.28617  1.0000
  H   H41       1.0  0.51233  0.50728  0.21288  1.0000
  H   H42       1.0  0.53811  0.51565  0.23105  1.0000
  C   C73       1.0  0.46267  0.48737  0.31418  1.0000
  C   C74       1.0  0.47595  0.48284  0.26778  1.0000
  C   C75       1.0  0.49087  0.48817  0.27957  1.0000
  H   H43       1.0  0.47495  0.47549  0.22503  1.0000
  H   H44       1.0  0.50019  0.48446  0.24557  1.0000
  C   C76       1.0  0.44815  0.48161  0.30285  1.0000
  H   H45       1.0  0.44775  0.47376  0.26816  1.0000
  C   C77       1.0  0.96149  0.01304  0.29685  1.0000
  C   C78       1.0  0.96994  0.00867  0.22150  1.0000
  C   C79       1.0  0.98520  0.00368  0.23357  1.0000
  C   C80       1.0  0.99233  0.00314  0.31869  1.0000
  C   C81       1.0  0.00775  0.99819  0.32967  1.0000
  C   C82       1.0  0.02096  0.00296  0.28283  1.0000
  C   C83       1.0  0.03595  0.99750  0.29565  1.0000
  H   H46       1.0  0.04531  0.00102  0.26103  1.0000
  H   H47       1.0  0.99113  0.00037  0.17913  1.0000
  N   N11       1.0  0.01909  0.01330  0.22577  1.0000
  N   N12       1.0  0.96300  0.00926  0.13566  1.0000
  O   O21       1.0  0.02298  0.01078  0.14694  1.0000
  O   O22       1.0  0.97101  0.01581  0.08342  1.0000
  O   O23       1.0  0.02709  0.02237  0.25201  1.0000
  O   O24       1.0  0.96147  0.99866  0.10217  1.0000
  C   C84       1.0  0.94694  0.01862  0.28751  1.0000
  H   H48       1.0  0.94588  0.02555  0.24422  1.0000
  C   C85       1.0  0.38603  0.36664  0.29683  1.0000
  C   C86       1.0  0.38829  0.37449  0.22181  1.0000
  C   C87       1.0  0.38966  0.38742  0.23479  1.0000
  C   C88       1.0  0.38887  0.39274  0.32079  1.0000
  C   C89       1.0  0.39187  0.40558  0.33361  1.0000
  C   C90       1.0  0.38304  0.41496  0.29006  1.0000
  C   C91       1.0  0.38716  0.42755  0.30297  1.0000
  H   H49       1.0  0.38070  0.43418  0.27089  1.0000
  H   H50       1.0  0.39185  0.39294  0.18070  1.0000
  N   N13       1.0  0.37006  0.41163  0.23597  1.0000
  N   N14       1.0  0.38930  0.36930  0.13512  1.0000
  O   O25       1.0  0.37184  0.41526  0.15695  1.0000
  O   O26       1.0  0.40237  0.37155  0.09944  1.0000
  O   O27       1.0  0.35745  0.41605  0.26585  1.0000
  O   O28       1.0  0.37859  0.37333  0.08523  1.0000
  C   C92       1.0  0.38612  0.35387  0.28803  1.0000
  H   H51       1.0  0.39378  0.35004  0.24612  1.0000
  C   C93       1.0  0.61476  0.63426  0.29697  1.0000
  C   C94       1.0  0.61250  0.62642  0.22196  1.0000
  C   C95       1.0  0.61112  0.61348  0.23495  1.0000
  C   C96       1.0  0.61188  0.60817  0.32098  1.0000
  C   C97       1.0  0.60884  0.59533  0.33379  1.0000
  C   C98       1.0  0.61766  0.58593  0.29038  1.0000
  C   C99       1.0  0.61351  0.57336  0.30340  1.0000
  H   H52       1.0  0.61996  0.56671  0.27141  1.0000
  H   H53       1.0  0.60893  0.60797  0.18086  1.0000
  N   N15       1.0  0.63066  0.58924  0.23636  1.0000
  N   N16       1.0  0.61152  0.63160  0.13524  1.0000
  O   O29       1.0  0.62888  0.58560  0.15736  1.0000
  O   O30       1.0  0.59846  0.62936  0.09946  1.0000
  O   O31       1.0  0.64326  0.58481  0.26638  1.0000
  O   O32       1.0  0.62225  0.62756  0.08544  1.0000
  C   C100      1.0  0.61469  0.64704  0.28812  1.0000
  H   H54       1.0  0.60704  0.65087  0.24612  1.0000
  C   C101      1.0  0.11444  0.88484  0.27385  1.0000
  C   C102      1.0  0.11587  0.87201  0.28561  1.0000
  H   H55       1.0  0.11489  0.88837  0.21049  1.0000
  H   H56       1.0  0.11711  0.86658  0.23007  1.0000
  C   C103      1.0  0.10092  0.93106  0.31038  1.0000
  C   C104      1.0  0.09238  0.92158  0.26721  1.0000
  C   C105      1.0  0.09634  0.90909  0.27913  1.0000
  H   H57       1.0  0.08295  0.92364  0.22735  1.0000
  H   H58       1.0  0.08958  0.90253  0.24814  1.0000
  C   C106      1.0  0.09623  0.94331  0.29928  1.0000
  H   H59       1.0  0.08705  0.94506  0.25996  1.0000
  C   C107      1.0  0.88652  0.11607  0.27365  1.0000
  C   C108      1.0  0.88508  0.12890  0.28544  1.0000
  H   H60       1.0  0.88609  0.11255  0.21029  1.0000
  H   H61       1.0  0.88383  0.13433  0.22992  1.0000
  C   C109      1.0  0.90014  0.06987  0.30999  1.0000
  C   C110      1.0  0.90868  0.07937  0.26698  1.0000
  C   C111      1.0  0.90469  0.09185  0.27897  1.0000
  H   H62       1.0  0.91810  0.07733  0.22706  1.0000
  H   H63       1.0  0.91143  0.09843  0.24804  1.0000
  C   C112      1.0  0.90484  0.05762  0.29864  1.0000
  H   H64       1.0  0.91412  0.05590  0.26008  1.0000
  C   C113      1.0  0.31470  0.53877  0.28149  1.0000
  C   C114      1.0  0.30291  0.54770  0.29450  1.0000
  H   H65       1.0  0.31724  0.53600  0.21779  1.0000
  H   H66       1.0  0.29741  0.55128  0.23947  1.0000
  C   C115      1.0  0.36421  0.51139  0.31769  1.0000
  C   C116      1.0  0.36245  0.52291  0.27423  1.0000
  C   C117      1.0  0.34880  0.53004  0.28542  1.0000
  H   H67       1.0  0.37124  0.52636  0.23473  1.0000
  H   H68       1.0  0.34824  0.53848  0.25452  1.0000
  C   C118      1.0  0.37820  0.50480  0.30776  1.0000
  H   H69       1.0  0.38720  0.50890  0.27743  1.0000
  C   C119      1.0  0.68654  0.46217  0.27941  1.0000
  C   C120      1.0  0.69825  0.45319  0.29295  1.0000
  H   H70       1.0  0.68410  0.46495  0.21560  1.0000
  H   H71       1.0  0.70383  0.44961  0.23820  1.0000
  C   C121      1.0  0.63710  0.48971  0.31391  1.0000
  C   C122      1.0  0.63887  0.47820  0.27023  1.0000
  C   C123      1.0  0.65247  0.47102  0.28175  1.0000
  H   H72       1.0  0.63010  0.47479  0.23040  1.0000
  H   H73       1.0  0.65302  0.46259  0.25075  1.0000
  C   C124      1.0  0.62311  0.49629  0.30417  1.0000
  H   H74       1.0  0.61413  0.49223  0.27333  1.0000
  C   C125      1.0  0.20149  0.05219  0.28747  1.0000
  C   C126      1.0  0.19312  0.04733  0.21326  1.0000
  C   C127      1.0  0.18133  0.03828  0.22747  1.0000
  C   C128      1.0  0.17759  0.03399  0.31395  1.0000
  C   C129      1.0  0.16449  0.02596  0.32768  1.0000
  C   C130      1.0  0.16305  0.01435  0.28412  1.0000
  C   C131      1.0  0.14921  0.00722  0.29635  1.0000
  H   H75       1.0  0.14833  0.99893  0.26384  1.0000
  H   H76       1.0  0.17497  0.03521  0.17390  1.0000
  N   N17       1.0  0.17557  0.00995  0.23050  1.0000
  N   N18       1.0  0.19648  0.05169  0.12613  1.0000
  O   O33       1.0  0.17124  0.00820  0.15130  1.0000
  O   O34       1.0  0.18465  0.05669  0.09107  1.0000
  O   O35       1.0  0.18109  0.00000  0.26064  1.0000
  O   O36       1.0  0.20112  0.04309  0.07629  1.0000
  C   C132      1.0  0.21171  0.06211  0.27753  1.0000
  H   H77       1.0  0.20861  0.06891  0.23630  1.0000
  C   C133      1.0  0.79922  0.94868  0.28885  1.0000
  C   C134      1.0  0.80768  0.95357  0.21503  1.0000
  C   C135      1.0  0.81940  0.96266  0.22978  1.0000
  C   C136      1.0  0.82299  0.96697  0.31643  1.0000
  C   C137      1.0  0.83601  0.97504  0.33072  1.0000
  C   C138      1.0  0.83744  0.98665  0.28706  1.0000
  C   C139      1.0  0.85123  0.99382  0.29969  1.0000
  H   H78       1.0  0.85212  0.00210  0.26697  1.0000
  H   H79       1.0  0.82584  0.96574  0.17652  1.0000
  N   N19       1.0  0.82497  0.99100  0.23285  1.0000
  N   N20       1.0  0.80447  0.94919  0.12774  1.0000
  O   O37       1.0  0.82939  0.99273  0.15380  1.0000
  O   O38       1.0  0.81637  0.94423  0.09327  1.0000
  O   O39       1.0  0.81936  0.00093  0.26260  1.0000
  O   O40       1.0  0.79987  0.95778  0.07765  1.0000
  C   C140      1.0  0.78903  0.93875  0.27838  1.0000
  H   H80       1.0  0.79220  0.93197  0.23730  1.0000
  C   C141      1.0  0.22967  0.14464  0.27780  1.0000
  C   C142      1.0  0.23500  0.13240  0.28645  1.0000
  H   H81       1.0  0.22959  0.14862  0.21584  1.0000
  H   H82       1.0  0.23869  0.12782  0.23037  1.0000
  C   C143      1.0  0.20921  0.18895  0.32797  1.0000
  C   C144      1.0  0.20181  0.17915  0.28176  1.0000
  C   C145      1.0  0.20724  0.16693  0.28999  1.0000
  H   H83       1.0  0.19229  0.18080  0.24163  1.0000
  H   H84       1.0  0.20142  0.16008  0.25628  1.0000
  C   C146      1.0  0.20336  0.20093  0.32027  1.0000
  H   H85       1.0  0.19261  0.20215  0.29566  1.0000
  C   C147      1.0  0.77110  0.85620  0.27765  1.0000
  C   C148      1.0  0.76574  0.86844  0.28623  1.0000
  H   H86       1.0  0.77118  0.85221  0.21572  1.0000
  H   H87       1.0  0.76205  0.87300  0.23012  1.0000
  C   C149      1.0  0.79161  0.81191  0.32804  1.0000
  C   C150      1.0  0.79900  0.82171  0.28176  1.0000
  C   C151      1.0  0.79356  0.83393  0.28995  1.0000
  H   H88       1.0  0.80851  0.82006  0.24161  1.0000
  H   H89       1.0  0.79938  0.84078  0.25617  1.0000
  C   C152      1.0  0.79746  0.79993  0.32035  1.0000
  H   H90       1.0  0.80822  0.79871  0.29581  1.0000
  C   C153      1.0  0.26504  0.62666  0.29723  1.0000
  C   C154      1.0  0.26983  0.63337  0.22050  1.0000
  C   C155      1.0  0.27526  0.64568  0.23044  1.0000
  C   C156      1.0  0.27577  0.65151  0.31480  1.0000
  C   C157      1.0  0.28067  0.66405  0.32300  1.0000
  C   C158      1.0  0.27298  0.67378  0.27657  1.0000
  C   C159      1.0  0.27857  0.68606  0.28580  1.0000
  H   H91       1.0  0.27295  0.69293  0.25136  1.0000
  H   H92       1.0  0.27879  0.65044  0.17491  1.0000
  N   N21       1.0  0.25960  0.67117  0.22354  1.0000
  N   N22       1.0  0.26919  0.62770  0.13532  1.0000
  O   O41       1.0  0.26173  0.67420  0.14351  1.0000
  O   O42       1.0  0.26019  0.63349  0.08351  1.0000
  O   O43       1.0  0.24760  0.67665  0.25230  1.0000
  O   O44       1.0  0.28258  0.62708  0.10027  1.0000
  C   C160      1.0  0.25864  0.61494  0.28973  1.0000
  H   H93       1.0  0.24998  0.61363  0.24604  1.0000
  C   C161      1.0  0.73592  0.37419  0.29749  1.0000
  C   C162      1.0  0.73111  0.36749  0.22073  1.0000
  C   C163      1.0  0.72566  0.35519  0.23060  1.0000
  C   C164      1.0  0.72515  0.34935  0.31490  1.0000
  C   C165      1.0  0.72024  0.33681  0.32302  1.0000
  C   C166      1.0  0.72792  0.32708  0.27652  1.0000
  C   C167      1.0  0.72233  0.31481  0.28572  1.0000
  H   H94       1.0  0.72794  0.30793  0.25124  1.0000
  H   H95       1.0  0.72212  0.35044  0.17504  1.0000
  N   N23       1.0  0.74130  0.32970  0.22348  1.0000
  N   N24       1.0  0.73175  0.37318  0.13559  1.0000
  O   O45       1.0  0.73916  0.32667  0.14344  1.0000
  O   O46       1.0  0.74072  0.36739  0.08368  1.0000
  O   O47       1.0  0.75331  0.32421  0.25219  1.0000
  O   O48       1.0  0.71834  0.37382  0.10063  1.0000
  C   C168      1.0  0.74234  0.38590  0.29006  1.0000
  H   H96       1.0  0.75098  0.38722  0.24630  1.0000
  C   C169      1.0  0.30329  0.29018  0.28344  1.0000
  C   C170      1.0  0.31737  0.29667  0.29770  1.0000
  H   H97       1.0  0.29928  0.28912  0.21947  1.0000
  H   H98       1.0  0.32328  0.29996  0.24312  1.0000
  C   C171      1.0  0.25679  0.25970  0.31420  1.0000
  C   C172      1.0  0.27145  0.25810  0.27130  1.0000
  C   C173      1.0  0.28376  0.26656  0.28404  1.0000
  H   H99       1.0  0.27347  0.25057  0.23140  1.0000
  H   H100      1.0  0.29432  0.26482  0.25366  1.0000
  C   C174      1.0  0.24511  0.25080  0.30300  1.0000
  H   H101      1.0  0.24728  0.24359  0.26355  1.0000
  C   C175      1.0  0.69752  0.71071  0.28346  1.0000
  C   C176      1.0  0.68344  0.70422  0.29775  1.0000
  H   H102      1.0  0.70152  0.71176  0.21949  1.0000
  H   H103      1.0  0.67753  0.70092  0.24321  1.0000
  C   C177      1.0  0.74404  0.74117  0.31420  1.0000
  C   C178      1.0  0.72937  0.74278  0.27139  1.0000
  C   C179      1.0  0.71706  0.73432  0.28411  1.0000
  H   H104      1.0  0.72735  0.75031  0.23148  1.0000
  H   H105      1.0  0.70650  0.73606  0.25376  1.0000
  C   C180      1.0  0.75573  0.75005  0.30297  1.0000
  H   H106      1.0  0.75357  0.75726  0.26340  1.0000
  C   C181      1.0  0.17709  0.79791  0.28390  1.0000
  C   C182      1.0  0.18536  0.79268  0.21056  1.0000
  C   C183      1.0  0.19958  0.78621  0.22602  1.0000
  C   C184      1.0  0.20575  0.78475  0.31291  1.0000
  C   C185      1.0  0.21897  0.77696  0.32817  1.0000
  C   C186      1.0  0.23367  0.77884  0.28528  1.0000
  C   C187      1.0  0.24601  0.77023  0.29908  1.0000
  H   H107      1.0  0.25648  0.77170  0.26724  1.0000
  H   H108      1.0  0.20508  0.78205  0.17321  1.0000
  N   N25       1.0  0.23587  0.78940  0.23072  1.0000
  N   N26       1.0  0.17916  0.79376  0.12308  1.0000
  O   O49       1.0  0.23927  0.78642  0.15199  1.0000
  O   O50       1.0  0.17620  0.78335  0.08981  1.0000
  O   O51       1.0  0.24655  0.79626  0.26074  1.0000
  O   O52       1.0  0.18848  0.79941  0.07234  1.0000
  C   C188      1.0  0.16210  0.80277  0.27314  1.0000
  H   H109      1.0  0.15494  0.79870  0.22954  1.0000
  C   C189      1.0  0.82380  0.20297  0.28383  1.0000
  C   C190      1.0  0.81553  0.20819  0.21049  1.0000
  C   C191      1.0  0.80130  0.21465  0.22597  1.0000
  C   C192      1.0  0.79515  0.21613  0.31289  1.0000
  C   C193      1.0  0.78193  0.22392  0.32814  1.0000
  C   C194      1.0  0.76723  0.22202  0.28535  1.0000
  C   C195      1.0  0.75488  0.23062  0.29917  1.0000
  H   H110      1.0  0.74440  0.22914  0.26740  1.0000
  H   H111      1.0  0.79581  0.21882  0.17317  1.0000
  N   N27       1.0  0.76503  0.21146  0.23087  1.0000
  N   N28       1.0  0.82171  0.20711  0.12298  1.0000
  O   O53       1.0  0.76160  0.21443  0.15214  1.0000
  O   O54       1.0  0.82466  0.21752  0.08964  1.0000
  O   O55       1.0  0.75435  0.20460  0.26100  1.0000
  O   O56       1.0  0.81239  0.20145  0.07231  1.0000
  C   C196      1.0  0.83879  0.19810  0.27293  1.0000
  H   H112      1.0  0.84595  0.20219  0.22937  1.0000
  C   C197      1.0  0.46126  0.25837  0.27211  1.0000
  C   C198      1.0  0.47166  0.24846  0.28572  1.0000
  H   H113      1.0  0.45957  0.26155  0.20851  1.0000
  H   H114      1.0  0.47708  0.24466  0.23119  1.0000
  C   C199      1.0  0.41562  0.28957  0.30165  1.0000
  C   C200      1.0  0.41620  0.27811  0.25645  1.0000
  C   C201      1.0  0.42868  0.26984  0.26992  1.0000
  H   H115      1.0  0.40729  0.27548  0.21460  1.0000
  H   H116      1.0  0.42834  0.26148  0.23782  1.0000
  C   C202      1.0  0.40253  0.29714  0.29045  1.0000
  H   H117      1.0  0.39448  0.29470  0.24537  1.0000
  C   C203      1.0  0.53960  0.74260  0.27183  1.0000
  C   C204      1.0  0.52922  0.75252  0.28541  1.0000
  H   H118      1.0  0.54130  0.73941  0.20824  1.0000
  H   H119      1.0  0.52380  0.75631  0.23088  1.0000
  C   C205      1.0  0.58522  0.71137  0.30171  1.0000
  C   C206      1.0  0.58465  0.72283  0.25646  1.0000
  C   C207      1.0  0.57217  0.73110  0.26979  1.0000
  H   H120      1.0  0.59357  0.72545  0.21456  1.0000
  H   H121      1.0  0.57252  0.73945  0.23764  1.0000
  C   C208      1.0  0.59831  0.70379  0.29058  1.0000
  H   H122      1.0  0.60636  0.70623  0.24554  1.0000
  C   C209      1.0  0.02686  0.74343  0.29645  1.0000
  C   C210      1.0  0.03501  0.74872  0.22299  1.0000
  C   C211      1.0  0.04543  0.75873  0.23784  1.0000
  C   C212      1.0  0.04795  0.76360  0.32416  1.0000
  C   C213      1.0  0.05976  0.77271  0.33931  1.0000
  C   C214      1.0  0.05997  0.78426  0.29416  1.0000
  C   C215      1.0  0.07265  0.79253  0.30862  1.0000
  H   H123      1.0  0.07269  0.80078  0.27512  1.0000
  H   H124      1.0  0.05169  0.76216  0.18503  1.0000
  N   N29       1.0  0.04739  0.78742  0.23662  1.0000
  N   N30       1.0  0.03275  0.74388  0.13602  1.0000
  O   O57       1.0  0.05211  0.78930  0.15832  1.0000
  O   O58       1.0  0.04536  0.73979  0.10384  1.0000
  O   O59       1.0  0.04031  0.79692  0.26347  1.0000
  O   O60       1.0  0.02729  0.75193  0.08404  1.0000
  C   C216      1.0  0.01762  0.73295  0.28609  1.0000
  H   H125      1.0  0.02129  0.72631  0.24507  1.0000
  C   C217      1.0  0.97400  0.25754  0.29676  1.0000
  C   C218      1.0  0.96587  0.25223  0.22326  1.0000
  C   C219      1.0  0.95546  0.24221  0.23807  1.0000
  C   C220      1.0  0.95293  0.23735  0.32440  1.0000
  C   C221      1.0  0.94112  0.22824  0.33946  1.0000
  C   C222      1.0  0.94092  0.21669  0.29428  1.0000
  C   C223      1.0  0.92824  0.20841  0.30866  1.0000
  H   H126      1.0  0.92821  0.20016  0.27512  1.0000
  H   H127      1.0  0.94920  0.23878  0.18524  1.0000
  N   N31       1.0  0.95351  0.21353  0.23680  1.0000
  N   N32       1.0  0.96814  0.25707  0.13628  1.0000
  O   O61       1.0  0.94880  0.21165  0.15847  1.0000
  O   O62       1.0  0.95553  0.26115  0.10400  1.0000
  O   O63       1.0  0.96059  0.20403  0.26367  1.0000
  O   O64       1.0  0.97362  0.24902  0.08438  1.0000
  C   C224      1.0  0.98322  0.26803  0.28639  1.0000
  H   H128      1.0  0.97957  0.27465  0.24521  1.0000
  C   C225      1.0  0.13068  0.25820  0.27715  1.0000
  C   C226      1.0  0.14545  0.25270  0.29082  1.0000
  H   H129      1.0  0.12742  0.26048  0.21350  1.0000
  H   H130      1.0  0.15238  0.25102  0.23630  1.0000
  C   C227      1.0  0.07279  0.27185  0.30489  1.0000
  C   C228      1.0  0.07930  0.26147  0.26104  1.0000
  C   C229      1.0  0.09496  0.25793  0.27540  1.0000
  H   H131      1.0  0.07258  0.25617  0.21913  1.0000
  H   H132      1.0  0.09903  0.25016  0.24392  1.0000
  C   C230      1.0  0.05700  0.27469  0.29146  1.0000
  H   H133      1.0  0.05116  0.27008  0.24433  1.0000
  C   C231      1.0  0.87014  0.74272  0.27709  1.0000
  C   C232      1.0  0.85538  0.74821  0.29082  1.0000
  H   H134      1.0  0.87342  0.74045  0.21343  1.0000
  H   H135      1.0  0.84843  0.74989  0.23632  1.0000
  C   C233      1.0  0.92804  0.72909  0.30471  1.0000
  C   C234      1.0  0.92154  0.73948  0.26100  1.0000
  C   C235      1.0  0.90587  0.74301  0.27539  1.0000
  H   H136      1.0  0.92825  0.74479  0.21909  1.0000
  H   H137      1.0  0.90180  0.75079  0.24396  1.0000
  C   C236      1.0  0.94383  0.72625  0.29120  1.0000
  H   H138      1.0  0.94966  0.73083  0.24384  1.0000
  C   C237      1.0  0.35055  0.74902  0.29123  1.0000
  C   C238      1.0  0.36077  0.75114  0.21776  1.0000
  C   C239      1.0  0.37560  0.75674  0.23265  1.0000
  C   C240      1.0  0.38053  0.76024  0.31907  1.0000
  C   C241      1.0  0.39609  0.76465  0.33421  1.0000
  C   C242      1.0  0.40234  0.77519  0.29006  1.0000
  C   C243      1.0  0.41819  0.77866  0.30541  1.0000
  H   H139      1.0  0.42252  0.78626  0.27299  1.0000
  H   H140      1.0  0.38309  0.75783  0.17979  1.0000
  N   N33       1.0  0.39254  0.78221  0.23291  1.0000
  N   N34       1.0  0.35609  0.74754  0.13076  1.0000
  O   O65       1.0  0.39789  0.78255  0.15478  1.0000
  O   O66       1.0  0.36531  0.73965  0.09833  1.0000
  O   O67       1.0  0.39097  0.79310  0.26073  1.0000
  O   O68       1.0  0.35546  0.75667  0.07899  1.0000
  C   C244      1.0  0.33657  0.74256  0.28086  1.0000
  H   H141      1.0  0.33643  0.73522  0.24089  1.0000
  C   C245      1.0  0.65035  0.25188  0.29120  1.0000
  C   C246      1.0  0.64013  0.24975  0.21775  1.0000
  C   C247      1.0  0.62529  0.24416  0.23269  1.0000
  C   C248      1.0  0.62036  0.24068  0.31915  1.0000
  C   C249      1.0  0.60479  0.23629  0.33429  1.0000
  C   C250      1.0  0.59855  0.22573  0.29029  1.0000
  C   C251      1.0  0.58269  0.22226  0.30570  1.0000
  H   H142      1.0  0.57836  0.21465  0.27339  1.0000
  H   H143      1.0  0.61779  0.24307  0.17984  1.0000
  N   N35       1.0  0.60835  0.21869  0.23324  1.0000
  N   N36       1.0  0.64481  0.25333  0.13072  1.0000
  O   O69       1.0  0.60299  0.21834  0.15512  1.0000
  O   O70       1.0  0.63559  0.26122  0.09823  1.0000
  O   O71       1.0  0.60991  0.20781  0.26122  1.0000
  O   O72       1.0  0.64543  0.24419  0.07902  1.0000
  C   C252      1.0  0.66434  0.25831  0.28075  1.0000
  H   H144      1.0  0.66448  0.26565  0.24071  1.0000
  C   C253      1.0  0.42911  0.06560  0.32771  1.0000
  C   C254      1.0  0.43832  0.05481  0.33508  1.0000
  C   C255      1.0  0.45492  0.05550  0.34032  1.0000
  C   C256      1.0  0.46221  0.06723  0.33898  1.0000
  C   C257      1.0  0.45315  0.07819  0.33527  1.0000
  C   C258      1.0  0.43667  0.07725  0.32860  1.0000
  H   H145      1.0  0.47421  0.06781  0.34142  1.0000
  H   H146      1.0  0.43004  0.08515  0.32651  1.0000
  H   H147      1.0  0.43292  0.04635  0.33441  1.0000
  N   N37       1.0  0.41353  0.06453  0.32617  1.0000
  N   N38       1.0  0.46408  0.04554  0.34182  1.0000
  N   N39       1.0  0.45932  0.08948  0.33539  1.0000
  C   C259      1.0  0.57164  0.93521  0.32422  1.0000
  C   C260      1.0  0.56256  0.94609  0.33084  1.0000
  C   C261      1.0  0.54595  0.94554  0.33624  1.0000
  C   C262      1.0  0.53859  0.93384  0.33988  1.0000
  C   C263      1.0  0.54750  0.92282  0.33578  1.0000
  C   C264      1.0  0.56396  0.92363  0.32674  1.0000
  H   H148      1.0  0.52659  0.93334  0.34424  1.0000
  H   H149      1.0  0.57049  0.91568  0.32492  1.0000
  H   H150      1.0  0.56813  0.95446  0.33144  1.0000
  N   N40       1.0  0.58722  0.93619  0.32284  1.0000
  N   N41       1.0  0.53677  0.95551  0.34088  1.0000
  N   N42       1.0  0.54124  0.91156  0.33723  1.0000
  C   C265      1.0  0.07175  0.56560  0.34067  1.0000
  C   C266      1.0  0.06254  0.55481  0.33333  1.0000
  C   C267      1.0  0.04595  0.55550  0.32811  1.0000
  C   C268      1.0  0.03865  0.56722  0.32944  1.0000
  C   C269      1.0  0.04770  0.57818  0.33311  1.0000
  C   C270      1.0  0.06419  0.57724  0.33976  1.0000
  H   H151      1.0  0.02665  0.56780  0.32702  1.0000
  H   H152      1.0  0.07081  0.58515  0.34183  1.0000
  H   H153      1.0  0.06795  0.54635  0.33403  1.0000
  N   N43       1.0  0.08733  0.56453  0.34220  1.0000
  N   N44       1.0  0.03678  0.54554  0.32669  1.0000
  N   N45       1.0  0.04154  0.58947  0.33299  1.0000
  C   C271      1.0  0.92922  0.43522  0.34416  1.0000
  C   C272      1.0  0.93830  0.44609  0.33754  1.0000
  C   C273      1.0  0.95491  0.44554  0.33212  1.0000
  C   C274      1.0  0.96227  0.43385  0.32849  1.0000
  C   C275      1.0  0.95336  0.42282  0.33260  1.0000
  C   C276      1.0  0.93690  0.42363  0.34164  1.0000
  H   H154      1.0  0.97427  0.43334  0.32414  1.0000
  H   H155      1.0  0.93036  0.41568  0.34346  1.0000
  H   H156      1.0  0.93273  0.45447  0.33693  1.0000
  N   N46       1.0  0.91363  0.43619  0.34554  1.0000
  N   N47       1.0  0.96408  0.45551  0.32749  1.0000
  N   N48       1.0  0.95962  0.41157  0.33115  1.0000
  C   C277      1.0  0.42061  0.48155  0.33192  1.0000
  C   C278      1.0  0.40804  0.49005  0.33437  1.0000
  C   C279      1.0  0.39221  0.48598  0.33232  1.0000
  C   C280      1.0  0.38910  0.47316  0.33153  1.0000
  C   C281      1.0  0.40144  0.46446  0.33224  1.0000
  C   C282      1.0  0.41714  0.46876  0.33124  1.0000
  H   H157      1.0  0.37769  0.47012  0.33126  1.0000
  H   H158      1.0  0.42613  0.46250  0.33090  1.0000
  H   H159      1.0  0.41047  0.49930  0.33753  1.0000
  N   N49       1.0  0.43523  0.48596  0.33483  1.0000
  N   N50       1.0  0.37992  0.49360  0.33503  1.0000
  N   N51       1.0  0.39785  0.45248  0.33006  1.0000
  C   C283      1.0  0.58054  0.51921  0.33670  1.0000
  C   C284      1.0  0.59317  0.51077  0.33411  1.0000
  C   C285      1.0  0.60894  0.51495  0.33188  1.0000
  C   C286      1.0  0.61191  0.52780  0.33279  1.0000
  C   C287      1.0  0.59948  0.53643  0.33478  1.0000
  C   C288      1.0  0.58383  0.53201  0.33504  1.0000
  H   H160      1.0  0.62328  0.53092  0.33188  1.0000
  H   H161      1.0  0.57471  0.53817  0.33295  1.0000
  H   H162      1.0  0.59082  0.50150  0.33577  1.0000
  N   N52       1.0  0.56593  0.51482  0.33648  1.0000
  N   N53       1.0  0.62130  0.50740  0.33321  1.0000
  N   N54       1.0  0.60297  0.54842  0.33214  1.0000
  C   C289      1.0  0.08025  0.98154  0.33646  1.0000
  C   C290      1.0  0.09282  0.99005  0.33401  1.0000
  C   C291      1.0  0.10865  0.98599  0.33606  1.0000
  C   C292      1.0  0.11176  0.97316  0.33686  1.0000
  C   C293      1.0  0.09942  0.96445  0.33616  1.0000
  C   C294      1.0  0.08372  0.96876  0.33715  1.0000
  H   H163      1.0  0.12317  0.97012  0.33714  1.0000
  H   H164      1.0  0.07472  0.96249  0.33750  1.0000
  H   H165      1.0  0.09038  0.99930  0.33083  1.0000
  N   N55       1.0  0.06563  0.98595  0.33353  1.0000
  N   N56       1.0  0.12094  0.99361  0.33334  1.0000
  N   N57       1.0  0.10301  0.95248  0.33834  1.0000
  C   C295      1.0  0.92032  0.01921  0.33171  1.0000
  C   C296      1.0  0.90770  0.01078  0.33429  1.0000
  C   C297      1.0  0.89192  0.01495  0.33652  1.0000
  C   C298      1.0  0.88895  0.02780  0.33559  1.0000
  C   C299      1.0  0.90138  0.03643  0.33361  1.0000
  C   C300      1.0  0.91703  0.03202  0.33337  1.0000
  H   H166      1.0  0.87757  0.03092  0.33650  1.0000
  H   H167      1.0  0.92615  0.03817  0.33547  1.0000
  H   H168      1.0  0.91004  0.00150  0.33265  1.0000
  N   N58       1.0  0.93494  0.01483  0.33195  1.0000
  N   N59       1.0  0.87956  0.00740  0.33519  1.0000
  N   N60       1.0  0.89789  0.04842  0.33625  1.0000
  C   C301      1.0  0.24189  0.09416  0.33090  1.0000
  C   C302      1.0  0.23059  0.08466  0.32561  1.0000
  C   C303      1.0  0.23515  0.07208  0.32176  1.0000
  C   C304      1.0  0.25131  0.06910  0.32447  1.0000
  C   C305      1.0  0.26284  0.07845  0.32930  1.0000
  C   C306      1.0  0.25799  0.09096  0.33070  1.0000
  H   H169      1.0  0.25472  0.06001  0.32259  1.0000
  H   H170      1.0  0.26626  0.09782  0.33068  1.0000
  H   H171      1.0  0.21890  0.08692  0.32619  1.0000
  N   N61       1.0  0.23697  0.10583  0.33221  1.0000
  N   N62       1.0  0.22469  0.06293  0.32121  1.0000
  N   N63       1.0  0.27799  0.07533  0.32721  1.0000
  C   C307      1.0  0.75884  0.90667  0.33053  1.0000
  C   C308      1.0  0.77013  0.91618  0.32546  1.0000
  C   C309      1.0  0.76555  0.92876  0.32177  1.0000
  C   C310      1.0  0.74939  0.93173  0.32420  1.0000
  C   C311      1.0  0.73787  0.92237  0.32870  1.0000
  C   C312      1.0  0.74274  0.90986  0.33007  1.0000
  H   H172      1.0  0.74598  0.94082  0.32240  1.0000
  H   H173      1.0  0.73447  0.90299  0.32992  1.0000
  H   H174      1.0  0.78182  0.91393  0.32631  1.0000
  N   N64       1.0  0.76377  0.89500  0.33182  1.0000
  N   N65       1.0  0.77600  0.93792  0.32156  1.0000
  N   N66       1.0  0.72272  0.92547  0.32648  1.0000
  C   C313      1.0  0.25897  0.59416  0.33750  1.0000
  C   C314      1.0  0.27027  0.58466  0.34279  1.0000
  C   C315      1.0  0.26571  0.57208  0.34664  1.0000
  C   C316      1.0  0.24955  0.56909  0.34393  1.0000
  C   C317      1.0  0.23802  0.57845  0.33909  1.0000
  C   C318      1.0  0.24287  0.59096  0.33770  1.0000
  H   H175      1.0  0.24614  0.56001  0.34581  1.0000
  H   H176      1.0  0.23459  0.59782  0.33771  1.0000
  H   H177      1.0  0.28196  0.58692  0.34221  1.0000
  N   N67       1.0  0.26389  0.60583  0.33619  1.0000
  N   N68       1.0  0.27617  0.56293  0.34719  1.0000
  N   N69       1.0  0.22287  0.57533  0.34118  1.0000
  C   C319      1.0  0.74202  0.40667  0.33786  1.0000
  C   C320      1.0  0.73073  0.41619  0.34293  1.0000
  C   C321      1.0  0.73531  0.42876  0.34662  1.0000
  C   C322      1.0  0.75147  0.43174  0.34420  1.0000
  C   C323      1.0  0.76299  0.42237  0.33969  1.0000
  C   C324      1.0  0.75812  0.40987  0.33832  1.0000
  H   H178      1.0  0.75488  0.44082  0.34600  1.0000
  H   H179      1.0  0.76639  0.40300  0.33848  1.0000
  H   H180      1.0  0.71904  0.41393  0.34209  1.0000
  N   N70       1.0  0.73709  0.39501  0.33656  1.0000
  N   N71       1.0  0.72486  0.43792  0.34682  1.0000
  N   N72       1.0  0.77814  0.42547  0.34191  1.0000
  C   C325      1.0  0.38713  0.31391  0.33790  1.0000
  C   C326      1.0  0.38886  0.32686  0.33557  1.0000
  C   C327      1.0  0.37553  0.33470  0.33437  1.0000
  C   C328      1.0  0.36038  0.32942  0.34011  1.0000
  C   C329      1.0  0.35841  0.31650  0.34604  1.0000
  C   C330      1.0  0.37187  0.30884  0.34363  1.0000
  H   H181      1.0  0.35067  0.33503  0.34025  1.0000
  H   H182      1.0  0.37055  0.29943  0.34608  1.0000
  H   H183      1.0  0.39991  0.33060  0.33385  1.0000
  N   N73       1.0  0.39981  0.30672  0.33914  1.0000
  N   N74       1.0  0.37667  0.34695  0.33276  1.0000
  N   N75       1.0  0.34399  0.31175  0.34731  1.0000
  C   C331      1.0  0.61368  0.68700  0.33794  1.0000
  C   C332      1.0  0.61194  0.67405  0.33570  1.0000
  C   C333      1.0  0.62527  0.66621  0.33459  1.0000
  C   C334      1.0  0.64042  0.67148  0.34027  1.0000
  C   C335      1.0  0.64240  0.68440  0.34611  1.0000
  C   C336      1.0  0.62895  0.69207  0.34369  1.0000
  H   H184      1.0  0.65012  0.66586  0.34044  1.0000
  H   H185      1.0  0.63028  0.70147  0.34612  1.0000
  H   H186      1.0  0.60089  0.67032  0.33395  1.0000
  N   N76       1.0  0.60101  0.69420  0.33918  1.0000
  N   N77       1.0  0.62411  0.65395  0.33298  1.0000
  N   N78       1.0  0.65682  0.68914  0.34741  1.0000
  C   C337      1.0  0.11373  0.81390  0.33049  1.0000
  C   C338      1.0  0.11200  0.82686  0.33283  1.0000
  C   C339      1.0  0.12533  0.83470  0.33402  1.0000
  C   C340      1.0  0.14048  0.82941  0.32828  1.0000
  C   C341      1.0  0.14244  0.81649  0.32234  1.0000
  C   C342      1.0  0.12899  0.80883  0.32475  1.0000
  H   H187      1.0  0.15018  0.83503  0.32814  1.0000
  H   H188      1.0  0.13031  0.79943  0.32230  1.0000
  H   H189      1.0  0.10094  0.83059  0.33454  1.0000
  N   N79       1.0  0.10105  0.80671  0.32925  1.0000
  N   N80       1.0  0.12418  0.84695  0.33563  1.0000
  N   N81       1.0  0.15686  0.81175  0.32108  1.0000
  C   C343      1.0  0.88717  0.18701  0.33045  1.0000
  C   C344      1.0  0.88892  0.17405  0.33269  1.0000
  C   C345      1.0  0.87559  0.16621  0.33379  1.0000
  C   C346      1.0  0.86044  0.17148  0.32812  1.0000
  C   C347      1.0  0.85846  0.18440  0.32228  1.0000
  C   C348      1.0  0.87191  0.19207  0.32470  1.0000
  H   H190      1.0  0.85074  0.16586  0.32795  1.0000
  H   H191      1.0  0.87058  0.20147  0.32227  1.0000
  H   H192      1.0  0.89997  0.17032  0.33445  1.0000
  N   N82       1.0  0.89985  0.19420  0.32922  1.0000
  N   N83       1.0  0.87674  0.15396  0.33541  1.0000
  N   N84       1.0  0.84404  0.18914  0.32098  1.0000
  C   C349      1.0  0.20859  0.22254  0.34120  1.0000
  C   C350      1.0  0.19331  0.22769  0.34400  1.0000
  C   C351      1.0  0.19107  0.24065  0.34658  1.0000
  C   C352      1.0  0.20432  0.24848  0.34397  1.0000
  C   C353      1.0  0.21966  0.24356  0.34086  1.0000
  C   C354      1.0  0.22164  0.23057  0.34135  1.0000
  H   H193      1.0  0.20278  0.25788  0.34482  1.0000
  H   H194      1.0  0.23275  0.22692  0.34177  1.0000
  H   H195      1.0  0.18373  0.22199  0.34476  1.0000
  N   N85       1.0  0.21154  0.21046  0.34213  1.0000
  N   N86       1.0  0.17691  0.24585  0.34671  1.0000
  N   N87       1.0  0.23169  0.25140  0.34240  1.0000
  C   C355      1.0  0.79223  0.77833  0.34135  1.0000
  C   C356      1.0  0.80750  0.77318  0.34403  1.0000
  C   C357      1.0  0.80975  0.76022  0.34657  1.0000
  C   C358      1.0  0.79650  0.75239  0.34405  1.0000
  C   C359      1.0  0.78116  0.75731  0.34101  1.0000
  C   C360      1.0  0.77917  0.77030  0.34147  1.0000
  H   H196      1.0  0.79804  0.74299  0.34490  1.0000
  H   H197      1.0  0.76806  0.77395  0.34192  1.0000
  H   H198      1.0  0.81708  0.77888  0.34478  1.0000
  N   N88       1.0  0.78928  0.79040  0.34221  1.0000
  N   N89       1.0  0.82391  0.75502  0.34671  1.0000
  N   N90       1.0  0.76913  0.74947  0.34254  1.0000
  C   C361      1.0  0.29227  0.72254  0.32719  1.0000
  C   C362      1.0  0.30755  0.72769  0.32438  1.0000
  C   C363      1.0  0.30979  0.74065  0.32181  1.0000
  C   C364      1.0  0.29654  0.74847  0.32441  1.0000
  C   C365      1.0  0.28120  0.74355  0.32753  1.0000
  C   C366      1.0  0.27921  0.73057  0.32704  1.0000
  H   H199      1.0  0.29808  0.75787  0.32356  1.0000
  H   H200      1.0  0.26811  0.72692  0.32661  1.0000
  H   H201      1.0  0.31713  0.72199  0.32363  1.0000
  N   N91       1.0  0.28932  0.71046  0.32626  1.0000
  N   N92       1.0  0.32394  0.74585  0.32168  1.0000
  N   N93       1.0  0.26917  0.75140  0.32599  1.0000
  C   C367      1.0  0.70863  0.27833  0.32704  1.0000
  C   C368      1.0  0.69336  0.27318  0.32435  1.0000
  C   C369      1.0  0.69111  0.26022  0.32182  1.0000
  C   C370      1.0  0.70436  0.25239  0.32433  1.0000
  C   C371      1.0  0.71970  0.25731  0.32737  1.0000
  C   C372      1.0  0.72169  0.27030  0.32691  1.0000
  H   H202      1.0  0.70282  0.24299  0.32348  1.0000
  H   H203      1.0  0.73279  0.27395  0.32647  1.0000
  H   H204      1.0  0.68378  0.27888  0.32360  1.0000
  N   N94       1.0  0.71158  0.29041  0.32618  1.0000
  N   N95       1.0  0.67695  0.25503  0.32168  1.0000
  N   N96       1.0  0.73173  0.24947  0.32585  1.0000
  C   C373      1.0  0.00647  0.27861  0.32836  1.0000
  C   C374      1.0  0.02258  0.27576  0.33441  1.0000
  C   C375      1.0  0.03409  0.28519  0.33501  1.0000
  C   C376      1.0  0.02920  0.29767  0.33475  1.0000
  C   C377      1.0  0.01308  0.30079  0.33196  1.0000
  C   C378      1.0  0.00184  0.29116  0.32739  1.0000
  H   H205      1.0  0.03748  0.30454  0.33655  1.0000
  H   H206      1.0  0.99014  0.29328  0.32393  1.0000
  H   H207      1.0  0.02601  0.26668  0.33706  1.0000
  N   N97       1.0  0.99631  0.26929  0.32823  1.0000
  N   N98       1.0  0.04934  0.28252  0.33949  1.0000
  N   N99       1.0  0.00916  0.31272  0.32958  1.0000
  C   C379      1.0  0.99436  0.72238  0.32811  1.0000
  C   C380      1.0  0.97825  0.72523  0.33413  1.0000
  C   C381      1.0  0.96675  0.71579  0.33505  1.0000
  C   C382      1.0  0.97164  0.70332  0.33519  1.0000
  C   C383      1.0  0.98776  0.70020  0.33251  1.0000
  C   C384      1.0  0.99901  0.70983  0.32763  1.0000
  H   H208      1.0  0.96337  0.69644  0.33724  1.0000
  H   H209      1.0  0.01071  0.70771  0.32430  1.0000
  H   H210      1.0  0.97482  0.73431  0.33646  1.0000
  N   N100      1.0  0.00452  0.73170  0.32787  1.0000
  N   N101      1.0  0.95150  0.71846  0.33951  1.0000
  N   N102      1.0  0.99170  0.68828  0.33060  1.0000
  C   C385      1.0  0.49439  0.77861  0.34002  1.0000
  C   C386      1.0  0.47828  0.77575  0.33398  1.0000
  C   C387      1.0  0.46677  0.78519  0.33338  1.0000
  C   C388      1.0  0.47166  0.79766  0.33364  1.0000
  C   C389      1.0  0.48777  0.80079  0.33643  1.0000
  C   C390      1.0  0.49902  0.79116  0.34101  1.0000
  H   H211      1.0  0.46338  0.80454  0.33184  1.0000
  H   H212      1.0  0.51072  0.79327  0.34446  1.0000
  H   H213      1.0  0.47485  0.76668  0.33133  1.0000
  N   N103      1.0  0.50454  0.76928  0.34016  1.0000
  N   N104      1.0  0.45152  0.78252  0.32890  1.0000
  N   N105      1.0  0.49169  0.81272  0.33881  1.0000
  C   C391      1.0  0.50649  0.22238  0.34029  1.0000
  C   C392      1.0  0.52260  0.22524  0.33426  1.0000
  C   C393      1.0  0.53411  0.21580  0.33333  1.0000
  C   C394      1.0  0.52921  0.20333  0.33319  1.0000
  C   C395      1.0  0.51310  0.20021  0.33587  1.0000
  C   C396      1.0  0.50185  0.20984  0.34075  1.0000
  H   H214      1.0  0.53749  0.19645  0.33114  1.0000
  H   H215      1.0  0.49015  0.20772  0.34409  1.0000
  H   H216      1.0  0.52604  0.23431  0.33193  1.0000
  N   N106      1.0  0.49634  0.23171  0.34052  1.0000
  N   N107      1.0  0.54936  0.21846  0.32888  1.0000
  N   N108      1.0  0.50916  0.18828  0.33778  1.0000
  C   C397      1.0  0.47328  0.02587  0.37482  1.0000
  C   C398      1.0  0.48094  0.02091  0.45101  1.0000
  C   C399      1.0  0.49162  0.01096  0.44024  1.0000
  C   C400      1.0  0.49465  0.00571  0.35558  1.0000
  C   C401      1.0  0.50530  0.99560  0.34592  1.0000
  C   C402      1.0  0.50334  0.98429  0.39296  1.0000
  C   C403      1.0  0.51444  0.97464  0.38112  1.0000
  H   H217      1.0  0.51284  0.96658  0.41569  1.0000
  H   H218      1.0  0.49727  0.00756  0.49530  1.0000
  N   N109      1.0  0.49010  0.98266  0.44903  1.0000
  N   N110      1.0  0.47794  0.02605  0.53629  1.0000
  O   O73       1.0  0.49412  0.98051  0.52821  1.0000
  O   O74       1.0  0.47232  0.01813  0.58865  1.0000
  O   O75       1.0  0.48151  0.97396  0.42228  1.0000
  O   O76       1.0  0.49025  0.03043  0.57034  1.0000
  C   C404      1.0  0.46222  0.03519  0.38258  1.0000
  H   H219      1.0  0.45300  0.03384  0.42220  1.0000
  C   C405      1.0  0.01384  0.51083  0.38796  1.0000
  C   C406      1.0  0.02441  0.52074  0.37854  1.0000
  H   H220      1.0  0.01200  0.50721  0.45020  1.0000
  H   H221      1.0  0.02997  0.52404  0.43431  1.0000
  C   C407      1.0  0.97334  0.47592  0.34500  1.0000
  C   C408      1.0  0.97166  0.48722  0.39149  1.0000
  C   C409      1.0  0.98256  0.49686  0.38066  1.0000
  H   H222      1.0  0.96238  0.48860  0.43392  1.0000
  H   H223      1.0  0.98077  0.50493  0.41492  1.0000
  C   C410      1.0  0.96216  0.46662  0.35645  1.0000
  H   H224      1.0  0.95240  0.46859  0.39016  1.0000
  C   C411      1.0  0.36456  0.06745  0.38943  1.0000
  C   C412      1.0  0.38089  0.06732  0.37555  1.0000
  H   H225      1.0  0.36039  0.06662  0.45322  1.0000
  H   H226      1.0  0.38806  0.06659  0.43020  1.0000
  C   C413      1.0  0.30508  0.07643  0.36107  1.0000
  C   C414      1.0  0.31698  0.08314  0.40567  1.0000
  C   C415      1.0  0.33295  0.08046  0.39189  1.0000
  H   H227      1.0  0.31419  0.09030  0.44752  1.0000
  H   H228      1.0  0.34114  0.08583  0.42366  1.0000
  C   C416      1.0  0.28942  0.07984  0.37319  1.0000
  H   H229      1.0  0.28700  0.08643  0.41762  1.0000
  C   C417      1.0  0.63611  0.93317  0.38795  1.0000
  C   C418      1.0  0.61979  0.93324  0.37379  1.0000
  H   H230      1.0  0.64025  0.93401  0.45181  1.0000
  H   H231      1.0  0.61258  0.93399  0.42826  1.0000
  C   C419      1.0  0.69564  0.92435  0.36045  1.0000
  C   C420      1.0  0.68376  0.91759  0.40485  1.0000
  C   C421      1.0  0.66779  0.92023  0.39089  1.0000
  H   H232      1.0  0.68657  0.91045  0.44676  1.0000
  H   H233      1.0  0.65961  0.91483  0.42254  1.0000
  C   C422      1.0  0.71131  0.92099  0.37277  1.0000
  H   H234      1.0  0.71376  0.91444  0.41750  1.0000
  C   C423      1.0  0.11354  0.56900  0.37916  1.0000
  C   C424      1.0  0.12398  0.57050  0.45251  1.0000
  C   C425      1.0  0.14043  0.57057  0.43742  1.0000
  C   C426      1.0  0.14679  0.56922  0.35088  1.0000
  C   C427      1.0  0.16319  0.57095  0.33539  1.0000
  C   C428      1.0  0.17497  0.56399  0.38015  1.0000
  C   C429      1.0  0.19106  0.56678  0.36537  1.0000
  H   H235      1.0  0.19937  0.56172  0.39852  1.0000
  H   H236      1.0  0.14778  0.57222  0.49018  1.0000
  N   N111      1.0  0.17046  0.55421  0.43760  1.0000
  N   N112      1.0  0.11785  0.57215  0.53970  1.0000
  O   O77       1.0  0.17531  0.55596  0.51582  1.0000
  O   O78       1.0  0.12181  0.58241  0.57208  1.0000
  O   O79       1.0  0.17564  0.54400  0.41041  1.0000
  O   O80       1.0  0.12237  0.56371  0.59136  1.0000
  C   C430      1.0  0.09741  0.57053  0.38939  1.0000
  H   H237      1.0  0.09361  0.57684  0.43276  1.0000
  C   C431      1.0  0.88744  0.43155  0.38105  1.0000
  C   C432      1.0  0.87696  0.43006  0.45423  1.0000
  C   C433      1.0  0.86052  0.43004  0.43885  1.0000
  C   C434      1.0  0.85421  0.43142  0.35218  1.0000
  C   C435      1.0  0.83781  0.42973  0.33646  1.0000
  C   C436      1.0  0.82606  0.43674  0.38097  1.0000
  C   C437      1.0  0.80996  0.43399  0.36595  1.0000
  H   H238      1.0  0.80165  0.43909  0.39893  1.0000
  H   H239      1.0  0.85313  0.42839  0.49147  1.0000
  N   N113      1.0  0.83058  0.44652  0.43838  1.0000
  N   N114      1.0  0.88304  0.42840  0.54149  1.0000
  O   O81       1.0  0.82569  0.44479  0.51654  1.0000
  O   O82       1.0  0.87903  0.41815  0.57380  1.0000
  O   O83       1.0  0.82547  0.45674  0.41101  1.0000
  O   O84       1.0  0.87853  0.43685  0.59309  1.0000
  C   C438      1.0  0.90356  0.43003  0.39164  1.0000
  H   H240      1.0  0.90734  0.42363  0.43427  1.0000
  C   C439      1.0  0.47503  0.10624  0.36995  1.0000
  C   C440      1.0  0.47473  0.11425  0.44498  1.0000
  C   C441      1.0  0.47892  0.12684  0.43383  1.0000
  C   C442      1.0  0.48354  0.13159  0.34996  1.0000
  C   C443      1.0  0.48759  0.14430  0.33973  1.0000
  C   C444      1.0  0.49972  0.14998  0.39050  1.0000
  C   C445      1.0  0.50295  0.16274  0.37852  1.0000
  H   H241      1.0  0.51164  0.16669  0.41617  1.0000
  H   H242      1.0  0.47839  0.13262  0.48786  1.0000
  N   N115      1.0  0.50868  0.14277  0.45087  1.0000
  N   N116      1.0  0.47000  0.10962  0.52929  1.0000
  O   O85       1.0  0.50752  0.14677  0.52935  1.0000
  O   O86       1.0  0.48072  0.11084  0.58636  1.0000
  O   O87       1.0  0.52296  0.14258  0.42941  1.0000
  O   O88       1.0  0.45788  0.11504  0.55715  1.0000
  C   C446      1.0  0.47119  0.09386  0.37789  1.0000
  H   H243      1.0  0.47709  0.08865  0.42113  1.0000
  C   C447      1.0  0.52548  0.89487  0.37211  1.0000
  C   C448      1.0  0.52574  0.88689  0.44732  1.0000
  C   C449      1.0  0.52161  0.87428  0.43633  1.0000
  C   C450      1.0  0.51709  0.86948  0.35242  1.0000
  C   C451      1.0  0.51314  0.85674  0.34221  1.0000
  C   C452      1.0  0.50099  0.85102  0.39265  1.0000
  C   C453      1.0  0.49782  0.83826  0.38045  1.0000
  H   H244      1.0  0.48912  0.83428  0.41781  1.0000
  H   H245      1.0  0.52212  0.86852  0.49048  1.0000
  N   N117      1.0  0.49196  0.85819  0.45284  1.0000
  N   N118      1.0  0.53038  0.89156  0.53163  1.0000
  O   O89       1.0  0.49308  0.85419  0.53132  1.0000
  O   O90       1.0  0.51962  0.89035  0.58844  1.0000
  O   O91       1.0  0.47769  0.85835  0.43103  1.0000
  O   O92       1.0  0.54250  0.88619  0.55992  1.0000
  C   C454      1.0  0.52932  0.90725  0.37965  1.0000
  H   H246      1.0  0.52337  0.91251  0.42237  1.0000
  C   C455      1.0  0.01720  0.62349  0.39241  1.0000
  C   C456      1.0  0.02136  0.61098  0.38259  1.0000
  H   H247      1.0  0.01388  0.62661  0.45408  1.0000
  H   H248      1.0  0.02099  0.60535  0.43752  1.0000
  C   C457      1.0  0.00647  0.67005  0.35127  1.0000
  C   C458      1.0  0.01843  0.66421  0.40146  1.0000
  C   C459      1.0  0.02173  0.65157  0.39061  1.0000
  H   H249      1.0  0.02502  0.66914  0.44627  1.0000
  H   H250      1.0  0.03066  0.64777  0.42737  1.0000
  C   C460      1.0  0.00394  0.68270  0.36119  1.0000
  H   H251      1.0  0.01199  0.68765  0.39360  1.0000
  C   C461      1.0  0.98386  0.37755  0.39011  1.0000
  C   C462      1.0  0.97977  0.39007  0.38043  1.0000
  H   H252      1.0  0.98710  0.37440  0.45182  1.0000
  H   H253      1.0  0.98011  0.39567  0.43552  1.0000
  C   C463      1.0  0.99439  0.33098  0.34924  1.0000
  C   C464      1.0  0.98241  0.33686  0.39904  1.0000
  C   C465      1.0  0.97918  0.34950  0.38798  1.0000
  H   H254      1.0  0.97578  0.33196  0.44380  1.0000
  H   H255      1.0  0.97025  0.35333  0.42452  1.0000
  C   C466      1.0  0.99689  0.31832  0.35953  1.0000
  H   H256      1.0  0.98880  0.31340  0.39179  1.0000
  C   C467      1.0  0.53937  0.51303  0.37157  1.0000
  C   C468      1.0  0.53091  0.50866  0.44691  1.0000
  C   C469      1.0  0.51565  0.50368  0.43481  1.0000
  C   C470      1.0  0.50853  0.50314  0.34969  1.0000
  C   C471      1.0  0.49311  0.49820  0.33870  1.0000
  C   C472      1.0  0.47989  0.50296  0.38554  1.0000
  C   C473      1.0  0.46491  0.49750  0.37272  1.0000
  H   H257      1.0  0.45555  0.50102  0.40736  1.0000
  H   H258      1.0  0.50972  0.50037  0.48926  1.0000
  N   N119      1.0  0.48177  0.51330  0.44263  1.0000
  N   N120      1.0  0.53786  0.50925  0.53276  1.0000
  O   O93       1.0  0.47788  0.51077  0.52146  1.0000
  O   O94       1.0  0.52984  0.51580  0.58498  1.0000
  O   O95       1.0  0.47377  0.52237  0.41641  1.0000
  O   O96       1.0  0.53938  0.49866  0.56625  1.0000
  C   C474      1.0  0.55392  0.51861  0.38091  1.0000
  H   H259      1.0  0.55497  0.52555  0.42416  1.0000
  C   C475      1.0  0.98369  0.00744  0.39298  1.0000
  C   C476      1.0  0.96851  0.01236  0.38223  1.0000
  H   H260      1.0  0.98853  0.00727  0.45551  1.0000
  H   H261      1.0  0.96275  0.01565  0.43737  1.0000
  C   C477      1.0  0.03819  0.98736  0.35416  1.0000
  C   C478      1.0  0.02491  0.98283  0.40056  1.0000
  C   C479      1.0  0.00999  0.98816  0.38878  1.0000
  H   H262      1.0  0.02591  0.97549  0.44333  1.0000
  H   H263      1.0  0.00067  0.98446  0.42280  1.0000
  C   C480      1.0  0.05271  0.98160  0.36553  1.0000
  H   H264      1.0  0.05311  0.97376  0.40024  1.0000
  C   C481      1.0  0.38642  0.38485  0.39454  1.0000
  C   C482      1.0  0.38499  0.37201  0.38278  1.0000
  H   H265      1.0  0.38597  0.38837  0.45790  1.0000
  H   H266      1.0  0.38375  0.36658  0.43832  1.0000
  C   C483      1.0  0.39994  0.43106  0.35801  1.0000
  C   C484      1.0  0.40848  0.42158  0.40118  1.0000
  C   C485      1.0  0.40452  0.40909  0.38927  1.0000
  H   H267      1.0  0.41791  0.42364  0.44104  1.0000
  H   H268      1.0  0.41128  0.40253  0.42025  1.0000
  C   C486      1.0  0.40463  0.44332  0.36911  1.0000
  H   H269      1.0  0.41381  0.44506  0.40841  1.0000
  C   C487      1.0  0.61433  0.61606  0.39473  1.0000
  C   C488      1.0  0.61577  0.62890  0.38294  1.0000
  H   H270      1.0  0.61476  0.61254  0.45809  1.0000
  H   H271      1.0  0.61703  0.63433  0.43847  1.0000
  C   C489      1.0  0.60071  0.56986  0.35839  1.0000
  C   C490      1.0  0.59218  0.57937  0.40139  1.0000
  C   C491      1.0  0.59617  0.59185  0.38941  1.0000
  H   H272      1.0  0.58275  0.57733  0.44131  1.0000
  H   H273      1.0  0.58942  0.59842  0.42034  1.0000
  C   C492      1.0  0.59601  0.55762  0.36974  1.0000
  H   H274      1.0  0.58673  0.55590  0.40829  1.0000
  C   C493      1.0  0.11483  0.86664  0.37157  1.0000
  C   C494      1.0  0.11256  0.87448  0.44658  1.0000
  C   C495      1.0  0.11120  0.88742  0.43360  1.0000
  C   C496      1.0  0.11199  0.89274  0.34760  1.0000
  C   C497      1.0  0.10899  0.90558  0.33479  1.0000
  C   C498      1.0  0.11782  0.91496  0.37834  1.0000
  C   C499      1.0  0.11370  0.92755  0.36542  1.0000
  H   H275      1.0  0.12016  0.93418  0.39751  1.0000
  H   H276      1.0  0.10901  0.89294  0.48769  1.0000
  N   N121      1.0  0.13080  0.91163  0.43242  1.0000
  N   N122      1.0  0.11155  0.86930  0.53328  1.0000
  O   O97       1.0  0.12902  0.91526  0.51145  1.0000
  O   O98       1.0  0.09849  0.87155  0.56895  1.0000
  O   O99       1.0  0.14341  0.91604  0.40254  1.0000
  O   O100      1.0  0.12227  0.87333  0.58317  1.0000
  C   C500      1.0  0.11474  0.85386  0.38036  1.0000
  H   H277      1.0  0.10708  0.85003  0.42226  1.0000
  C   C501      1.0  0.88610  0.13426  0.37141  1.0000
  C   C502      1.0  0.88835  0.12642  0.44643  1.0000
  C   C503      1.0  0.88973  0.11349  0.43343  1.0000
  C   C504      1.0  0.88898  0.10817  0.34740  1.0000
  C   C505      1.0  0.89201  0.09533  0.33459  1.0000
  C   C506      1.0  0.88320  0.08593  0.37800  1.0000
  C   C507      1.0  0.88734  0.07336  0.36498  1.0000
  H   H278      1.0  0.88090  0.06671  0.39697  1.0000
  H   H279      1.0  0.89193  0.10797  0.48752  1.0000
  N   N123      1.0  0.87020  0.08924  0.43202  1.0000
  N   N124      1.0  0.88934  0.13160  0.53314  1.0000
  O   O101      1.0  0.87197  0.08560  0.51103  1.0000
  O   O102      1.0  0.90239  0.12936  0.56892  1.0000
  O   O103      1.0  0.85760  0.08482  0.40201  1.0000
  O   O104      1.0  0.87861  0.12756  0.58294  1.0000
  C   C508      1.0  0.88617  0.14704  0.38027  1.0000
  H   H280      1.0  0.89382  0.15087  0.42227  1.0000
  C   C509      1.0  0.29937  0.55219  0.38093  1.0000
  C   C510      1.0  0.30774  0.54732  0.45513  1.0000
  C   C511      1.0  0.31953  0.53828  0.44092  1.0000
  C   C512      1.0  0.32327  0.53399  0.35444  1.0000
  C   C513      1.0  0.33637  0.52596  0.34070  1.0000
  C   C514      1.0  0.33781  0.51435  0.38426  1.0000
  C   C515      1.0  0.35165  0.50722  0.37201  1.0000
  H   H281      1.0  0.35253  0.49893  0.40451  1.0000
  H   H282      1.0  0.32589  0.53521  0.49448  1.0000
  N   N125      1.0  0.32529  0.50994  0.43788  1.0000
  N   N126      1.0  0.30438  0.55169  0.54227  1.0000
  O   O105      1.0  0.32962  0.50820  0.51707  1.0000
  O   O106      1.0  0.31621  0.55669  0.57733  1.0000
  O   O107      1.0  0.31977  0.50001  0.40774  1.0000
  O   O108      1.0  0.29974  0.54308  0.59210  1.0000
  C   C516      1.0  0.28915  0.56211  0.39087  1.0000
  H   H283      1.0  0.29225  0.56891  0.43210  1.0000
  C   C517      1.0  0.70164  0.44869  0.37953  1.0000
  C   C518      1.0  0.69318  0.45357  0.45336  1.0000
  C   C519      1.0  0.68146  0.46266  0.43860  1.0000
  C   C520      1.0  0.67787  0.46697  0.35196  1.0000
  C   C521      1.0  0.66485  0.47504  0.33767  1.0000
  C   C522      1.0  0.66342  0.48665  0.38133  1.0000
  C   C523      1.0  0.64963  0.49382  0.36869  1.0000
  H   H284      1.0  0.64874  0.50210  0.40141  1.0000
  H   H285      1.0  0.67502  0.46573  0.49187  1.0000
  N   N127      1.0  0.67589  0.49100  0.43553  1.0000
  N   N128      1.0  0.69639  0.44919  0.54065  1.0000
  O   O109      1.0  0.67148  0.49273  0.51458  1.0000
  O   O110      1.0  0.68449  0.44423  0.57511  1.0000
  O   O111      1.0  0.68150  0.50093  0.40579  1.0000
  O   O112      1.0  0.70099  0.45778  0.59073  1.0000
  C   C524      1.0  0.71183  0.43876  0.39001  1.0000
  H   H286      1.0  0.70866  0.43196  0.43108  1.0000
  C   C525      1.0  0.18616  0.03877  0.38690  1.0000
  C   C526      1.0  0.19795  0.04770  0.37389  1.0000
  H   H287      1.0  0.18361  0.03600  0.45060  1.0000
  H   H288      1.0  0.20345  0.05128  0.42893  1.0000
  C   C527      1.0  0.13665  0.01139  0.35067  1.0000
  C   C528      1.0  0.13841  0.02291  0.39414  1.0000
  C   C529      1.0  0.15206  0.03005  0.38297  1.0000
  H   H289      1.0  0.12962  0.02636  0.43364  1.0000
  H   H290      1.0  0.15261  0.03848  0.41386  1.0000
  C   C530      1.0  0.12266  0.00481  0.36058  1.0000
  H   H291      1.0  0.11365  0.00891  0.39091  1.0000
  C   C531      1.0  0.81433  0.96217  0.38898  1.0000
  C   C532      1.0  0.80261  0.95319  0.37544  1.0000
  H   H292      1.0  0.81676  0.96495  0.45278  1.0000
  H   H293      1.0  0.79703  0.94961  0.43020  1.0000
  C   C533      1.0  0.86376  0.98970  0.35446  1.0000
  C   C534      1.0  0.86200  0.97820  0.39815  1.0000
  C   C535      1.0  0.84839  0.97102  0.38662  1.0000
  H   H294      1.0  0.87077  0.97478  0.43798  1.0000
  H   H295      1.0  0.84784  0.96259  0.41762  1.0000
  C   C536      1.0  0.87775  0.99629  0.36421  1.0000
  H   H296      1.0  0.88673  0.99223  0.39504  1.0000
  C   C537      1.0  0.23582  0.12666  0.37116  1.0000
  C   C538      1.0  0.23103  0.13338  0.44789  1.0000
  C   C539      1.0  0.22560  0.14568  0.43794  1.0000
  C   C540      1.0  0.22509  0.15151  0.35359  1.0000
  C   C541      1.0  0.22019  0.16405  0.34539  1.0000
  C   C542      1.0  0.22787  0.17378  0.39182  1.0000
  C   C543      1.0  0.22229  0.18606  0.38258  1.0000
  H   H297      1.0  0.22791  0.19293  0.41703  1.0000
  H   H298      1.0  0.22207  0.15044  0.49348  1.0000
  N   N129      1.0  0.24126  0.17117  0.44484  1.0000
  N   N130      1.0  0.23167  0.12771  0.53308  1.0000
  O   O113      1.0  0.23913  0.17421  0.52488  1.0000
  O   O114      1.0  0.24067  0.13349  0.58488  1.0000
  O   O115      1.0  0.25327  0.17665  0.41608  1.0000
  O   O116      1.0  0.21827  0.12708  0.56813  1.0000
  C   C544      1.0  0.24222  0.11494  0.37866  1.0000
  H   H299      1.0  0.25088  0.11363  0.42235  1.0000
  C   C545      1.0  0.76494  0.87419  0.37089  1.0000
  C   C546      1.0  0.76975  0.86749  0.44766  1.0000
  C   C547      1.0  0.77519  0.85519  0.43779  1.0000
  C   C548      1.0  0.77571  0.84935  0.35348  1.0000
  C   C549      1.0  0.78062  0.83681  0.34536  1.0000
  C   C550      1.0  0.77294  0.82708  0.39186  1.0000
  C   C551      1.0  0.77853  0.81480  0.38266  1.0000
  H   H300      1.0  0.77292  0.80793  0.41716  1.0000
  H   H301      1.0  0.77874  0.85044  0.49335  1.0000
  N   N131      1.0  0.75955  0.82969  0.44490  1.0000
  N   N132      1.0  0.76911  0.87317  0.53280  1.0000
  O   O117      1.0  0.76170  0.82667  0.52495  1.0000
  O   O118      1.0  0.76013  0.86739  0.58471  1.0000
  O   O119      1.0  0.74755  0.82421  0.41620  1.0000
  O   O120      1.0  0.78252  0.87381  0.56776  1.0000
  C   C552      1.0  0.75852  0.88590  0.37832  1.0000
  H   H302      1.0  0.74987  0.88721  0.42208  1.0000
  C   C553      1.0  0.27119  0.64464  0.39059  1.0000
  C   C554      1.0  0.26586  0.63239  0.38193  1.0000
  H   H303      1.0  0.27127  0.64862  0.45255  1.0000
  H   H304      1.0  0.26217  0.62782  0.43802  1.0000
  C   C555      1.0  0.29165  0.68895  0.34041  1.0000
  C   C556      1.0  0.29905  0.67915  0.38663  1.0000
  C   C557      1.0  0.29362  0.66693  0.37840  1.0000
  H   H305      1.0  0.30857  0.68080  0.42675  1.0000
  H   H306      1.0  0.29944  0.66008  0.41211  1.0000
  C   C558      1.0  0.29750  0.70093  0.34811  1.0000
  H   H307      1.0  0.30825  0.70215  0.37273  1.0000
  C   C559      1.0  0.72976  0.35620  0.39074  1.0000
  C   C560      1.0  0.73512  0.36844  0.38215  1.0000
  H   H308      1.0  0.72968  0.35221  0.45267  1.0000
  H   H309      1.0  0.73880  0.37300  0.43826  1.0000
  C   C561      1.0  0.70925  0.31191  0.34035  1.0000
  C   C562      1.0  0.70186  0.32171  0.38662  1.0000
  C   C563      1.0  0.70729  0.33393  0.37844  1.0000
  H   H310      1.0  0.69234  0.32006  0.42678  1.0000
  H   H311      1.0  0.70148  0.34078  0.41221  1.0000
  C   C564      1.0  0.70340  0.29994  0.34804  1.0000
  H   H312      1.0  0.69264  0.29871  0.37257  1.0000
  C   C565      1.0  0.32376  0.29791  0.38448  1.0000
  C   C566      1.0  0.31550  0.29269  0.45783  1.0000
  C   C567      1.0  0.30128  0.28622  0.44237  1.0000
  C   C568      1.0  0.29511  0.28475  0.35548  1.0000
  C   C569      1.0  0.28189  0.27696  0.34021  1.0000
  C   C570      1.0  0.26719  0.27884  0.38310  1.0000
  C   C571      1.0  0.25485  0.27024  0.36931  1.0000
  H   H313      1.0  0.24437  0.27171  0.40115  1.0000
  H   H314      1.0  0.29578  0.28205  0.49518  1.0000
  N   N133      1.0  0.26499  0.28940  0.43767  1.0000
  N   N134      1.0  0.32170  0.29376  0.54531  1.0000
  O   O121      1.0  0.26158  0.28642  0.51640  1.0000
  O   O122      1.0  0.32466  0.28335  0.57858  1.0000
  O   O123      1.0  0.25431  0.29626  0.40765  1.0000
  O   O124      1.0  0.31238  0.29941  0.59604  1.0000
  C   C572      1.0  0.33876  0.30277  0.39525  1.0000
  H   H315      1.0  0.34592  0.29870  0.43885  1.0000
  C   C573      1.0  0.67705  0.70297  0.38456  1.0000
  C   C574      1.0  0.68533  0.70819  0.45790  1.0000
  C   C575      1.0  0.69956  0.71465  0.44241  1.0000
  C   C576      1.0  0.70571  0.71612  0.35550  1.0000
  C   C577      1.0  0.71893  0.72392  0.34025  1.0000
  C   C578      1.0  0.73363  0.72202  0.38304  1.0000
  C   C579      1.0  0.74598  0.73062  0.36922  1.0000
  H   H316      1.0  0.75646  0.72914  0.40100  1.0000
  H   H317      1.0  0.70505  0.71882  0.49522  1.0000
  N   N135      1.0  0.73583  0.71146  0.43752  1.0000
  N   N136      1.0  0.67914  0.70710  0.54540  1.0000
  O   O125      1.0  0.73926  0.71442  0.51624  1.0000
  O   O126      1.0  0.67620  0.71751  0.57874  1.0000
  O   O127      1.0  0.74651  0.70460  0.40739  1.0000
  O   O128      1.0  0.68847  0.70145  0.59607  1.0000
  C   C580      1.0  0.66206  0.69810  0.39545  1.0000
  H   H318      1.0  0.65491  0.70218  0.43902  1.0000
  C   C581      1.0  0.19757  0.79017  0.38495  1.0000
  C   C582      1.0  0.18349  0.79667  0.37069  1.0000
  H   H319      1.0  0.20157  0.78912  0.44892  1.0000
  H   H320      1.0  0.17758  0.79996  0.42526  1.0000
  C   C583      1.0  0.24407  0.75970  0.35419  1.0000
  C   C584      1.0  0.22941  0.75809  0.39709  1.0000
  C   C585      1.0  0.21710  0.76656  0.38435  1.0000
  H   H321      1.0  0.22739  0.75057  0.43698  1.0000
  H   H322      1.0  0.20654  0.76482  0.41472  1.0000
  C   C586      1.0  0.25575  0.75080  0.36539  1.0000
  H   H323      1.0  0.25358  0.74359  0.40484  1.0000
  C   C587      1.0  0.80334  0.21071  0.38492  1.0000
  C   C588      1.0  0.81742  0.20423  0.37064  1.0000
  H   H324      1.0  0.79934  0.21177  0.44891  1.0000
  H   H325      1.0  0.82333  0.20092  0.42518  1.0000
  C   C589      1.0  0.75682  0.24117  0.35418  1.0000
  C   C590      1.0  0.77149  0.24279  0.39699  1.0000
  C   C591      1.0  0.78380  0.23433  0.38428  1.0000
  H   H326      1.0  0.77350  0.25031  0.43690  1.0000
  H   H327      1.0  0.79436  0.23607  0.41462  1.0000
  C   C592      1.0  0.74513  0.25006  0.36542  1.0000
  H   H328      1.0  0.74728  0.25726  0.40499  1.0000
  C   C593      1.0  0.47400  0.24343  0.37195  1.0000
  C   C594      1.0  0.46585  0.24873  0.44540  1.0000
  C   C595      1.0  0.45543  0.25874  0.43055  1.0000
  C   C596      1.0  0.45291  0.26360  0.34422  1.0000
  C   C597      1.0  0.44110  0.27271  0.32908  1.0000
  C   C598      1.0  0.44089  0.28426  0.37423  1.0000
  C   C599      1.0  0.42820  0.29254  0.35976  1.0000
  H   H329      1.0  0.42817  0.30078  0.39327  1.0000
  H   H330      1.0  0.44916  0.26217  0.48335  1.0000
  N   N137      1.0  0.45347  0.28743  0.43178  1.0000
  N   N138      1.0  0.46811  0.24389  0.53237  1.0000
  O   O129      1.0  0.44875  0.28930  0.51007  1.0000
  O   O130      1.0  0.45550  0.23979  0.56455  1.0000
  O   O131      1.0  0.46055  0.29692  0.40492  1.0000
  O   O132      1.0  0.47357  0.25194  0.58435  1.0000
  C   C600      1.0  0.48324  0.23295  0.38230  1.0000
  H   H331      1.0  0.47957  0.22631  0.42332  1.0000
  C   C601      1.0  0.52686  0.75753  0.37163  1.0000
  C   C602      1.0  0.53499  0.75223  0.44513  1.0000
  C   C603      1.0  0.54540  0.74221  0.43032  1.0000
  C   C604      1.0  0.54793  0.73735  0.34398  1.0000
  C   C605      1.0  0.55974  0.72823  0.32893  1.0000
  C   C606      1.0  0.55994  0.71669  0.37411  1.0000
  C   C607      1.0  0.57262  0.70840  0.35973  1.0000
  H   H332      1.0  0.57265  0.70016  0.39328  1.0000
  H   H333      1.0  0.55166  0.73878  0.48315  1.0000
  N   N139      1.0  0.54735  0.71353  0.43160  1.0000
  N   N140      1.0  0.53272  0.75706  0.53210  1.0000
  O   O133      1.0  0.55206  0.71165  0.50992  1.0000
  O   O134      1.0  0.54533  0.76114  0.56439  1.0000
  O   O135      1.0  0.54027  0.70403  0.40472  1.0000
  O   O136      1.0  0.52724  0.74902  0.58401  1.0000
  C   C608      1.0  0.51764  0.76802  0.38201  1.0000
  H   H334      1.0  0.52129  0.77465  0.42318  1.0000
  C   C609      1.0  0.03960  0.75836  0.39629  1.0000
  C   C610      1.0  0.02920  0.74845  0.38267  1.0000
  H   H335      1.0  0.04129  0.76155  0.45988  1.0000
  H   H336      1.0  0.02378  0.74466  0.43719  1.0000
  C   C611      1.0  0.08523  0.78957  0.36673  1.0000
  C   C612      1.0  0.08466  0.77810  0.41194  1.0000
  C   C613      1.0  0.07218  0.76983  0.39848  1.0000
  H   H337      1.0  0.09357  0.77547  0.45379  1.0000
  H   H338      1.0  0.07252  0.76148  0.43057  1.0000
  C   C614      1.0  0.09833  0.79714  0.37794  1.0000
  H   H339      1.0  0.10637  0.79470  0.42302  1.0000
  C   C615      1.0  0.96126  0.24260  0.39655  1.0000
  C   C616      1.0  0.97164  0.25252  0.38298  1.0000
  H   H340      1.0  0.95956  0.23941  0.46014  1.0000
  H   H341      1.0  0.97706  0.25631  0.43751  1.0000
  C   C617      1.0  0.91564  0.21137  0.36668  1.0000
  C   C618      1.0  0.91621  0.22283  0.41193  1.0000
  C   C619      1.0  0.92869  0.23110  0.39860  1.0000
  H   H342      1.0  0.90729  0.22545  0.45382  1.0000
  H   H343      1.0  0.92834  0.23945  0.43076  1.0000
  C   C620      1.0  0.90255  0.20379  0.37780  1.0000
  H   H344      1.0  0.89449  0.20623  0.42286  1.0000
  C   C621      1.0  0.15031  0.24902  0.37716  1.0000
  C   C622      1.0  0.14009  0.25114  0.45063  1.0000
  C   C623      1.0  0.12526  0.25674  0.43573  1.0000
  C   C624      1.0  0.12033  0.26025  0.34931  1.0000
  C   C625      1.0  0.10476  0.26465  0.33418  1.0000
  C   C626      1.0  0.09852  0.27519  0.37832  1.0000
  C   C627      1.0  0.08267  0.27866  0.36298  1.0000
  H   H345      1.0  0.07834  0.28627  0.39540  1.0000
  H   H346      1.0  0.11776  0.25783  0.48860  1.0000
  N   N141      1.0  0.10832  0.28221  0.43547  1.0000
  N   N142      1.0  0.14477  0.24754  0.53762  1.0000
  O   O137      1.0  0.10297  0.28255  0.51361  1.0000
  O   O138      1.0  0.13554  0.23965  0.57006  1.0000
  O   O139      1.0  0.10989  0.29311  0.40766  1.0000
  O   O140      1.0  0.14540  0.25667  0.58939  1.0000
  C   C628      1.0  0.16429  0.24257  0.38753  1.0000
  H   H347      1.0  0.16442  0.23522  0.42749  1.0000
  C   C629      1.0  0.85051  0.75187  0.37718  1.0000
  C   C630      1.0  0.86073  0.74975  0.45063  1.0000
  C   C631      1.0  0.87557  0.74415  0.43570  1.0000
  C   C632      1.0  0.88050  0.74068  0.34924  1.0000
  C   C633      1.0  0.89607  0.73628  0.33410  1.0000
  C   C634      1.0  0.90231  0.72573  0.37810  1.0000
  C   C635      1.0  0.91817  0.72226  0.36270  1.0000
  H   H348      1.0  0.92250  0.71465  0.39500  1.0000
  H   H349      1.0  0.88307  0.74307  0.48855  1.0000
  N   N143      1.0  0.89251  0.71869  0.43515  1.0000
  N   N144      1.0  0.85605  0.75333  0.53766  1.0000
  O   O141      1.0  0.89786  0.71833  0.51327  1.0000
  O   O142      1.0  0.86527  0.76122  0.57016  1.0000
  O   O143      1.0  0.89095  0.70781  0.40718  1.0000
  O   O144      1.0  0.85543  0.74419  0.58936  1.0000
  C   C636      1.0  0.83652  0.75831  0.38763  1.0000
  H   H350      1.0  0.83637  0.76565  0.42767  1.0000
  C   C637      1.0  0.37017  0.75820  0.39124  1.0000
  C   C638      1.0  0.35541  0.75270  0.37756  1.0000
  H   H351      1.0  0.37344  0.76048  0.45489  1.0000
  H   H352      1.0  0.34847  0.75101  0.43208  1.0000
  C   C639      1.0  0.42807  0.77185  0.36350  1.0000
  C   C640      1.0  0.42156  0.76147  0.40735  1.0000
  C   C641      1.0  0.40590  0.75793  0.39298  1.0000
  H   H353      1.0  0.42828  0.75616  0.44926  1.0000
  H   H354      1.0  0.40183  0.75016  0.42447  1.0000
  C   C642      1.0  0.44386  0.77469  0.37692  1.0000
  H   H355      1.0  0.44970  0.77008  0.42406  1.0000
  C   C643      1.0  0.63071  0.24272  0.39130  1.0000
  C   C644      1.0  0.64548  0.24822  0.37757  1.0000
  H   H356      1.0  0.62744  0.24045  0.45496  1.0000
  H   H357      1.0  0.65243  0.24989  0.43206  1.0000
  C   C645      1.0  0.57282  0.22909  0.36368  1.0000
  C   C646      1.0  0.57932  0.23949  0.40739  1.0000
  C   C647      1.0  0.59499  0.24302  0.39300  1.0000
  H   H358      1.0  0.57261  0.24479  0.44930  1.0000
  H   H359      1.0  0.59906  0.25079  0.42442  1.0000
  C   C648      1.0  0.55703  0.22625  0.37720  1.0000
  H   H360      1.0  0.55121  0.23083  0.42455  1.0000
