data_image0
_chemical_formula_structural       C3HCH3C3HCH3C3HCH3C3HCH3C3HCH3C3HCH3C3HCH3C3HCH3C3HCH3C3HCH3C3HCH3C3HCH3C3HCH3C3HCH3C3HCH3C3HCH3C3HCH3C3HCH3C3HCH3C3HCH3C3HCH3C3HCH3C3HCH3C3HCH3C3HCH3C3HCH3C3HCH3C3HCH3C3HCH3C3HCH3C3HCH3C3HCH3C3HCH3C3HCH3C3HCH3C3HCH3CNCNCNCNCNCNCNCNCNCNCNCNCNCNCNCNCNCNCNCNCNCNCNCNCNCNCNCNCNCNCNCNCNCNCNCNCNCNCNCNCNCNCNCNCNCNCNCNCNCNCNCNCNCNCNCNCNCNCNCNCNCNCNCNCNCNCNCNCNCNCNCNC3HCH3C3HCH3C3HCH3C3HCH3C3HCH3C3HCH3C3HCH3C3HCH3C3HCH3C3HCH3C3HCH3C3HCH3C3HCH3C3HCH3C3HCH3C3HCH3C3HCH3C3HCH3C3HCH3C3HCH3C3HCH3C3HCH3C3HCH3C3HCH3C3HCH3C3HCH3C3HCH3C3HCH3C3HCH3C3HCH3C3HCH3C3HCH3C3HCH3C3HCH3C3HCH3C3HCH3
_chemical_formula_sum              "C360 H288 N72"
_cell_length_a       42.3103
_cell_length_b       53.7975
_cell_length_c       14.8497
_cell_angle_alpha    90
_cell_angle_beta     90
_cell_angle_gamma    90

_space_group_name_H-M_alt    "P 1"
_space_group_IT_number       1

loop_
  _space_group_symop_operation_xyz
  'x, y, z'

loop_
  _atom_site_type_symbol
  _atom_site_label
  _atom_site_symmetry_multiplicity
  _atom_site_fract_x
  _atom_site_fract_y
  _atom_site_fract_z
  _atom_site_occupancy
  C   C1        1.0  0.48478  0.02645  0.33131  1.0000
  C   C2        1.0  0.47723  0.00440  0.28254  1.0000
  C   C3        1.0  0.49757  0.98348  0.28824  1.0000
  H   H1        1.0  0.49213  0.96805  0.25092  1.0000
  C   C4        1.0  0.44931  0.00285  0.22173  1.0000
  H   H2        1.0  0.44968  0.01829  0.17407  1.0000
  H   H3        1.0  0.42765  0.00360  0.26139  1.0000
  H   H4        1.0  0.44863  0.98569  0.18251  1.0000
  C   C5        1.0  0.98474  0.48310  0.34545  1.0000
  C   C6        1.0  0.97745  0.50499  0.29539  1.0000
  C   C7        1.0  0.99733  0.52615  0.30317  1.0000
  H   H5        1.0  0.99177  0.54163  0.26615  1.0000
  C   C8        1.0  0.95076  0.50687  0.23017  1.0000
  H   H6        1.0  0.94131  0.48888  0.21027  1.0000
  H   H7        1.0  0.95854  0.51592  0.16815  1.0000
  H   H8        1.0  0.93178  0.51791  0.25979  1.0000
  C   C9        1.0  0.38190  0.06958  0.33816  1.0000
  C   C10       1.0  0.36123  0.05629  0.27960  1.0000
  C   C11       1.0  0.32800  0.05896  0.28974  1.0000
  H   H9        1.0  0.31340  0.05023  0.24457  1.0000
  C   C12       1.0  0.37228  0.04113  0.20188  1.0000
  H   H10       1.0  0.39755  0.04263  0.18986  1.0000
  H   H11       1.0  0.36053  0.04723  0.14023  1.0000
  H   H12       1.0  0.36652  0.02162  0.21354  1.0000
  C   C13       1.0  0.62872  0.94072  0.34384  1.0000
  C   C14       1.0  0.64931  0.95534  0.28925  1.0000
  C   C15       1.0  0.68257  0.95242  0.29819  1.0000
  H   H13       1.0  0.69711  0.96205  0.25535  1.0000
  C   C16       1.0  0.63822  0.97243  0.21694  1.0000
  H   H14       1.0  0.61277  0.97217  0.20687  1.0000
  H   H15       1.0  0.64902  0.96724  0.15283  1.0000
  H   H16       1.0  0.64521  0.99143  0.23329  1.0000
  C   C17       1.0  0.19579  0.57502  0.33255  1.0000
  C   C18       1.0  0.17520  0.58783  0.27249  1.0000
  C   C19       1.0  0.14212  0.58495  0.28212  1.0000
  H   H17       1.0  0.12765  0.59440  0.23853  1.0000
  C   C20       1.0  0.18629  0.60400  0.19730  1.0000
  H   H18       1.0  0.21164  0.60276  0.18538  1.0000
  H   H19       1.0  0.18034  0.62333  0.21190  1.0000
  H   H20       1.0  0.17469  0.59858  0.13458  1.0000
  C   C21       1.0  0.81376  0.43523  0.32814  1.0000
  C   C22       1.0  0.83429  0.42144  0.27080  1.0000
  C   C23       1.0  0.86739  0.42427  0.28005  1.0000
  H   H21       1.0  0.88177  0.41402  0.23864  1.0000
  C   C24       1.0  0.82315  0.40425  0.19866  1.0000
  H   H22       1.0  0.79793  0.40583  0.18506  1.0000
  H   H23       1.0  0.82836  0.38509  0.21780  1.0000
  H   H24       1.0  0.83529  0.40837  0.13547  1.0000
  C   C25       1.0  0.47784  0.11724  0.33868  1.0000
  C   C26       1.0  0.50346  0.12534  0.28366  1.0000
  C   C27       1.0  0.51496  0.15000  0.29333  1.0000
  H   H25       1.0  0.53241  0.15597  0.25057  1.0000
  C   C28       1.0  0.51789  0.11015  0.21050  1.0000
  H   H26       1.0  0.50585  0.09261  0.19846  1.0000
  H   H27       1.0  0.54248  0.10614  0.22731  1.0000
  H   H28       1.0  0.51729  0.12046  0.14715  1.0000
  C   C29       1.0  0.53312  0.89248  0.33950  1.0000
  C   C30       1.0  0.50739  0.88471  0.28426  1.0000
  C   C31       1.0  0.49576  0.86005  0.29263  1.0000
  H   H29       1.0  0.47822  0.85432  0.24974  1.0000
  C   C32       1.0  0.49296  0.90031  0.21228  1.0000
  H   H30       1.0  0.50518  0.91783  0.20116  1.0000
  H   H31       1.0  0.46844  0.90440  0.22972  1.0000
  H   H32       1.0  0.49334  0.89030  0.14829  1.0000
  C   C33       1.0  0.00851  0.66724  0.33241  1.0000
  C   C34       1.0  0.03328  0.65885  0.27498  1.0000
  C   C35       1.0  0.04485  0.63431  0.28498  1.0000
  H   H33       1.0  0.06280  0.62860  0.24341  1.0000
  C   C36       1.0  0.04752  0.67406  0.20147  1.0000
  H   H34       1.0  0.03375  0.69057  0.18522  1.0000
  H   H35       1.0  0.04903  0.66317  0.13952  1.0000
  H   H36       1.0  0.07131  0.67978  0.22089  1.0000
  C   C37       1.0  0.00110  0.34251  0.33403  1.0000
  C   C38       1.0  0.97620  0.35058  0.27640  1.0000
  C   C39       1.0  0.96447  0.37510  0.28524  1.0000
  H   H37       1.0  0.94648  0.38059  0.24339  1.0000
  C   C40       1.0  0.96205  0.33505  0.20361  1.0000
  H   H38       1.0  0.97598  0.31860  0.18788  1.0000
  H   H39       1.0  0.96035  0.34574  0.14125  1.0000
  H   H40       1.0  0.93834  0.32923  0.22349  1.0000
  C   C41       1.0  0.53670  0.51437  0.32944  1.0000
  C   C42       1.0  0.51188  0.52553  0.27840  1.0000
  C   C43       1.0  0.48053  0.51656  0.28740  1.0000
  H   H41       1.0  0.46317  0.52440  0.24857  1.0000
  C   C44       1.0  0.51780  0.54571  0.21197  1.0000
  H   H42       1.0  0.53666  0.54020  0.16599  1.0000
  H   H43       1.0  0.52454  0.56261  0.24750  1.0000
  H   H44       1.0  0.49711  0.55014  0.17102  1.0000
  C   C45       1.0  0.03782  0.99679  0.34125  1.0000
  C   C46       1.0  0.01311  0.98566  0.28982  1.0000
  C   C47       1.0  0.98162  0.99433  0.30019  1.0000
  H   H45       1.0  0.96425  0.98633  0.26178  1.0000
  C   C48       1.0  0.01835  0.96601  0.22065  1.0000
  H   H46       1.0  0.04316  0.96304  0.20456  1.0000
  H   H47       1.0  0.00673  0.97117  0.15767  1.0000
  H   H48       1.0  0.00833  0.94849  0.24426  1.0000
  C   C49       1.0  0.39657  0.42907  0.33290  1.0000
  C   C50       1.0  0.41399  0.41198  0.27899  1.0000
  C   C51       1.0  0.40791  0.38620  0.28761  1.0000
  H   H49       1.0  0.42025  0.37421  0.24704  1.0000
  C   C52       1.0  0.43749  0.41946  0.20922  1.0000
  H   H50       1.0  0.43710  0.43925  0.19402  1.0000
  H   H51       1.0  0.43265  0.40982  0.14596  1.0000
  H   H52       1.0  0.46120  0.41445  0.23181  1.0000
  C   C53       1.0  0.61439  0.58109  0.32145  1.0000
  C   C54       1.0  0.60083  0.59807  0.25888  1.0000
  C   C55       1.0  0.60651  0.62385  0.26926  1.0000
  H   H53       1.0  0.59682  0.63582  0.22310  1.0000
  C   C56       1.0  0.58248  0.59043  0.17795  1.0000
  H   H54       1.0  0.58216  0.57042  0.16759  1.0000
  H   H55       1.0  0.59295  0.59862  0.11761  1.0000
  H   H56       1.0  0.55818  0.59703  0.18392  1.0000
  C   C57       1.0  0.12543  0.87641  0.34037  1.0000
  C   C58       1.0  0.14293  0.89357  0.28673  1.0000
  C   C59       1.0  0.13701  0.91942  0.29579  1.0000
  H   H57       1.0  0.14920  0.93151  0.25525  1.0000
  C   C60       1.0  0.16614  0.88613  0.21616  1.0000
  H   H58       1.0  0.16497  0.86651  0.19877  1.0000
  H   H59       1.0  0.19002  0.89040  0.23924  1.0000
  H   H60       1.0  0.16170  0.89636  0.15388  1.0000
  C   C61       1.0  0.88399  0.13362  0.34897  1.0000
  C   C62       1.0  0.86958  0.11657  0.28802  1.0000
  C   C63       1.0  0.87557  0.09075  0.29789  1.0000
  H   H61       1.0  0.86594  0.07870  0.25193  1.0000
  C   C64       1.0  0.84976  0.12413  0.20975  1.0000
  H   H62       1.0  0.84932  0.14410  0.19831  1.0000
  H   H63       1.0  0.82552  0.11779  0.22021  1.0000
  H   H64       1.0  0.85885  0.11565  0.14815  1.0000
  C   C65       1.0  0.35918  0.51479  0.33449  1.0000
  C   C66       1.0  0.35997  0.53745  0.28478  1.0000
  C   C67       1.0  0.33463  0.55454  0.29341  1.0000
  H   H65       1.0  0.33549  0.57062  0.25638  1.0000
  C   C68       1.0  0.38539  0.54404  0.21944  1.0000
  H   H66       1.0  0.39956  0.52812  0.19905  1.0000
  H   H67       1.0  0.40089  0.55801  0.24929  1.0000
  H   H68       1.0  0.37520  0.55166  0.15774  1.0000
  C   C69       1.0  0.64989  0.49509  0.32861  1.0000
  C   C70       1.0  0.64943  0.47232  0.27950  1.0000
  C   C71       1.0  0.67485  0.45535  0.28932  1.0000
  H   H69       1.0  0.67423  0.43919  0.25269  1.0000
  C   C72       1.0  0.62436  0.46547  0.21339  1.0000
  H   H70       1.0  0.61024  0.48127  0.19157  1.0000
  H   H71       1.0  0.60875  0.45158  0.24324  1.0000
  H   H72       1.0  0.63488  0.45764  0.15247  1.0000
  C   C73       1.0  0.20250  0.04992  0.33948  1.0000
  C   C74       1.0  0.20352  0.02707  0.29090  1.0000
  C   C75       1.0  0.17808  0.01001  0.29921  1.0000
  H   H73       1.0  0.17880  0.99397  0.26196  1.0000
  C   C76       1.0  0.22897  0.02030  0.22600  1.0000
  H   H74       1.0  0.24509  0.03550  0.21105  1.0000
  H   H75       1.0  0.21861  0.01462  0.16184  1.0000
  H   H76       1.0  0.24265  0.00479  0.25298  1.0000
  C   C77       1.0  0.80842  0.96021  0.34329  1.0000
  C   C78       1.0  0.80771  0.98313  0.29521  1.0000
  C   C79       1.0  0.83329  0.00005  0.30444  1.0000
  H   H77       1.0  0.83272  0.01619  0.26776  1.0000
  C   C80       1.0  0.78241  0.99017  0.23021  1.0000
  H   H78       1.0  0.76599  0.97517  0.21539  1.0000
  H   H79       1.0  0.79292  0.99569  0.16606  1.0000
  H   H80       1.0  0.76902  0.00586  0.25704  1.0000
  C   C81       1.0  0.23302  0.13706  0.33215  1.0000
  C   C82       1.0  0.24994  0.15496  0.28039  1.0000
  C   C83       1.0  0.24257  0.18047  0.29055  1.0000
  H   H81       1.0  0.25476  0.19312  0.25226  1.0000
  C   C84       1.0  0.27442  0.14858  0.21192  1.0000
  H   H82       1.0  0.27496  0.12890  0.19496  1.0000
  H   H83       1.0  0.29768  0.15401  0.23687  1.0000
  H   H84       1.0  0.26980  0.15853  0.14916  1.0000
  C   C85       1.0  0.77757  0.87321  0.33219  1.0000
  C   C86       1.0  0.76045  0.85543  0.28047  1.0000
  C   C87       1.0  0.76767  0.82988  0.29026  1.0000
  H   H85       1.0  0.75537  0.81731  0.25194  1.0000
  C   C88       1.0  0.73590  0.86196  0.21241  1.0000
  H   H86       1.0  0.73543  0.88167  0.19579  1.0000
  H   H87       1.0  0.71265  0.85657  0.23754  1.0000
  H   H88       1.0  0.74039  0.85208  0.14943  1.0000
  C   C89       1.0  0.29176  0.68912  0.33844  1.0000
  C   C90       1.0  0.30907  0.67118  0.28781  1.0000
  C   C91       1.0  0.30166  0.64561  0.29787  1.0000
  H   H89       1.0  0.31351  0.63293  0.25889  1.0000
  C   C92       1.0  0.33340  0.67754  0.21896  1.0000
  H   H90       1.0  0.33470  0.69729  0.20386  1.0000
  H   H91       1.0  0.32804  0.66815  0.15555  1.0000
  H   H92       1.0  0.35657  0.67138  0.24229  1.0000
  C   C93       1.0  0.71824  0.32111  0.33907  1.0000
  C   C94       1.0  0.70076  0.33892  0.28836  1.0000
  C   C95       1.0  0.70802  0.36453  0.29802  1.0000
  H   H93       1.0  0.69605  0.37712  0.25896  1.0000
  C   C96       1.0  0.67641  0.33241  0.21978  1.0000
  H   H94       1.0  0.67528  0.31264  0.20473  1.0000
  H   H95       1.0  0.68158  0.34181  0.15627  1.0000
  H   H96       1.0  0.65320  0.33843  0.24333  1.0000
  C   C97       1.0  0.31548  0.30296  0.35297  1.0000
  C   C98       1.0  0.28931  0.30786  0.29541  1.0000
  C   C99       1.0  0.26194  0.29278  0.30288  1.0000
  H   H97       1.0  0.24375  0.29563  0.25844  1.0000
  C   C100      1.0  0.28942  0.32677  0.22214  1.0000
  H   H98       1.0  0.31176  0.33658  0.21519  1.0000
  H   H99       1.0  0.27101  0.34053  0.23505  1.0000
  H   H100      1.0  0.28457  0.31779  0.15764  1.0000
  C   C101      1.0  0.69479  0.70709  0.34995  1.0000
  C   C102      1.0  0.72101  0.70234  0.29241  1.0000
  C   C103      1.0  0.74831  0.71747  0.30034  1.0000
  H   H101      1.0  0.76655  0.71472  0.25599  1.0000
  C   C104      1.0  0.72105  0.68355  0.21870  1.0000
  H   H102      1.0  0.69874  0.67375  0.21115  1.0000
  H   H103      1.0  0.73945  0.66978  0.23156  1.0000
  H   H104      1.0  0.72601  0.69265  0.15448  1.0000
  C   C105      1.0  0.25024  0.77268  0.32271  1.0000
  C   C106      1.0  0.22459  0.76846  0.26265  1.0000
  C   C107      1.0  0.19731  0.78346  0.27028  1.0000
  H   H105      1.0  0.17872  0.77999  0.22770  1.0000
  C   C108      1.0  0.22461  0.74944  0.18959  1.0000
  H   H106      1.0  0.24784  0.74146  0.17702  1.0000
  H   H107      1.0  0.21691  0.75782  0.12628  1.0000
  H   H108      1.0  0.20832  0.73446  0.20700  1.0000
  C   C109      1.0  0.75989  0.23752  0.32492  1.0000
  C   C110      1.0  0.78560  0.24161  0.26497  1.0000
  C   C111      1.0  0.81281  0.22653  0.27296  1.0000
  H   H109      1.0  0.83145  0.22990  0.23046  1.0000
  C   C112      1.0  0.78572  0.26055  0.19168  1.0000
  H   H110      1.0  0.76254  0.26860  0.17890  1.0000
  H   H111      1.0  0.79341  0.25209  0.12850  1.0000
  H   H112      1.0  0.80209  0.27549  0.20895  1.0000
  C   C113      1.0  0.42652  0.29197  0.32765  1.0000
  C   C114      1.0  0.42561  0.27036  0.27223  1.0000
  C   C115      1.0  0.44917  0.25197  0.28316  1.0000
  H   H113      1.0  0.44849  0.23656  0.24246  1.0000
  C   C116      1.0  0.40186  0.26605  0.19968  1.0000
  H   H114      1.0  0.38781  0.28247  0.18419  1.0000
  H   H115      1.0  0.38594  0.25106  0.21964  1.0000
  H   H116      1.0  0.41373  0.26072  0.13728  1.0000
  C   C117      1.0  0.58379  0.71782  0.32216  1.0000
  C   C118      1.0  0.58479  0.73959  0.26758  1.0000
  C   C119      1.0  0.56118  0.75793  0.27881  1.0000
  H   H117      1.0  0.56193  0.77345  0.23870  1.0000
  C   C120      1.0  0.60871  0.74413  0.19566  1.0000
  H   H118      1.0  0.62291  0.72780  0.18009  1.0000
  H   H119      1.0  0.62446  0.75914  0.21632  1.0000
  H   H120      1.0  0.59695  0.74952  0.13314  1.0000
  C   C121      1.0  0.03587  0.75456  0.34156  1.0000
  C   C122      1.0  0.03437  0.77652  0.28807  1.0000
  C   C123      1.0  0.05815  0.79484  0.29840  1.0000
  H   H121      1.0  0.05777  0.81007  0.25687  1.0000
  C   C124      1.0  0.01039  0.78095  0.21628  1.0000
  H   H122      1.0  0.99531  0.76496  0.20320  1.0000
  H   H123      1.0  0.02218  0.78542  0.15288  1.0000
  H   H124      1.0  0.99539  0.79659  0.23539  1.0000
  C   C125      1.0  0.97411  0.25517  0.34627  1.0000
  C   C126      1.0  0.97567  0.23308  0.29349  1.0000
  C   C127      1.0  0.95187  0.21479  0.30420  1.0000
  H   H125      1.0  0.95228  0.19946  0.26314  1.0000
  C   C128      1.0  0.99968  0.22849  0.22195  1.0000
  H   H126      1.0  0.01474  0.24445  0.20833  1.0000
  H   H127      1.0  0.98793  0.22383  0.15866  1.0000
  H   H128      1.0  0.01470  0.21291  0.24168  1.0000
  C   C129      1.0  0.14673  0.25996  0.34613  1.0000
  C   C130      1.0  0.13672  0.28027  0.29151  1.0000
  C   C131      1.0  0.10541  0.28931  0.30074  1.0000
  H   H129      1.0  0.09796  0.30319  0.25842  1.0000
  C   C132      1.0  0.15646  0.29185  0.21974  1.0000
  H   H130      1.0  0.17851  0.28202  0.20718  1.0000
  H   H131      1.0  0.16206  0.31097  0.23846  1.0000
  H   H132      1.0  0.14350  0.29205  0.15613  1.0000
  C   C133      1.0  0.86334  0.75017  0.34391  1.0000
  C   C134      1.0  0.87322  0.72986  0.28913  1.0000
  C   C135      1.0  0.90449  0.72074  0.29810  1.0000
  H   H133      1.0  0.91185  0.70686  0.25570  1.0000
  C   C136      1.0  0.85337  0.71835  0.21745  1.0000
  H   H134      1.0  0.83139  0.72827  0.20491  1.0000
  H   H135      1.0  0.84765  0.69926  0.23626  1.0000
  H   H136      1.0  0.86631  0.71807  0.15380  1.0000
  C   C137      1.0  0.42667  0.77870  0.32558  1.0000
  C   C138      1.0  0.41634  0.75885  0.26919  1.0000
  C   C139      1.0  0.38518  0.74972  0.27888  1.0000
  H   H137      1.0  0.37792  0.73559  0.23737  1.0000
  C   C140      1.0  0.43592  0.74745  0.19660  1.0000
  H   H138      1.0  0.45711  0.75812  0.18106  1.0000
  H   H139      1.0  0.42235  0.74628  0.13417  1.0000
  H   H140      1.0  0.44292  0.72872  0.21657  1.0000
  C   C141      1.0  0.58359  0.23133  0.32832  1.0000
  C   C142      1.0  0.59376  0.25121  0.27193  1.0000
  C   C143      1.0  0.62490  0.26041  0.28134  1.0000
  H   H141      1.0  0.63208  0.27455  0.23976  1.0000
  C   C144      1.0  0.57405  0.26259  0.19960  1.0000
  H   H142      1.0  0.55281  0.25195  0.18448  1.0000
  H   H143      1.0  0.58750  0.26372  0.13694  1.0000
  H   H144      1.0  0.56712  0.28135  0.21955  1.0000
  C   C145      1.0  0.41570  0.06941  0.33241  1.0000
  N   N1        1.0  0.43357  0.04828  0.33098  1.0000
  C   C146      1.0  0.46591  0.04875  0.33016  1.0000
  N   N2        1.0  0.48007  0.07158  0.33262  1.0000
  C   C147      1.0  0.46339  0.09324  0.33347  1.0000
  N   N3        1.0  0.43136  0.09146  0.33454  1.0000
  C   C148      1.0  0.59489  0.94072  0.33814  1.0000
  N   N4        1.0  0.57681  0.96171  0.33979  1.0000
  C   C149      1.0  0.54449  0.96098  0.34039  1.0000
  N   N5        1.0  0.53052  0.93809  0.33870  1.0000
  C   C150      1.0  0.54742  0.91656  0.33645  1.0000
  N   N6        1.0  0.57944  0.91855  0.33763  1.0000
  C   C151      1.0  0.09442  0.56941  0.35444  1.0000
  N   N7        1.0  0.07656  0.54828  0.35589  1.0000
  C   C152      1.0  0.04423  0.54875  0.35669  1.0000
  N   N8        1.0  0.03006  0.57157  0.35424  1.0000
  C   C153      1.0  0.04674  0.59323  0.35338  1.0000
  N   N9        1.0  0.07877  0.59146  0.35232  1.0000
  C   C154      1.0  0.91524  0.44071  0.34860  1.0000
  N   N10       1.0  0.93332  0.46171  0.34705  1.0000
  C   C155      1.0  0.96564  0.46098  0.34647  1.0000
  N   N11       1.0  0.97961  0.43809  0.34815  1.0000
  C   C156      1.0  0.96270  0.41656  0.35033  1.0000
  N   N12       1.0  0.93068  0.41855  0.34914  1.0000
  C   C157      1.0  0.40286  0.45516  0.33535  1.0000
  N   N13       1.0  0.37907  0.47225  0.33457  1.0000
  C   C158      1.0  0.38469  0.49721  0.33646  1.0000
  N   N14       1.0  0.41544  0.50470  0.34195  1.0000
  C   C159      1.0  0.44013  0.48841  0.34523  1.0000
  N   N15       1.0  0.43307  0.46376  0.34084  1.0000
  C   C160      1.0  0.60740  0.55513  0.32235  1.0000
  N   N16       1.0  0.63077  0.53775  0.32543  1.0000
  C   C161      1.0  0.62457  0.51289  0.32763  1.0000
  N   N17       1.0  0.59356  0.50584  0.32952  1.0000
  C   C162      1.0  0.56913  0.52242  0.32659  1.0000
  N   N18       1.0  0.57692  0.54698  0.32356  1.0000
  C   C163      1.0  0.10725  0.95517  0.35158  1.0000
  N   N19       1.0  0.13105  0.97225  0.35235  1.0000
  C   C164      1.0  0.12543  0.99721  0.35046  1.0000
  N   N20       1.0  0.09468  0.00470  0.34498  1.0000
  C   C165      1.0  0.06999  0.98841  0.34172  1.0000
  N   N21       1.0  0.07705  0.96377  0.34612  1.0000
  C   C166      1.0  0.90272  0.05513  0.36457  1.0000
  N   N22       1.0  0.87935  0.03776  0.36150  1.0000
  C   C167      1.0  0.88555  0.01289  0.35930  1.0000
  N   N23       1.0  0.91656  0.00585  0.35741  1.0000
  C   C168      1.0  0.94099  0.02242  0.36033  1.0000
  N   N24       1.0  0.93319  0.04698  0.36337  1.0000
  C   C169      1.0  0.28131  0.08033  0.34882  1.0000
  N   N25       1.0  0.25839  0.06249  0.34565  1.0000
  C   C170      1.0  0.22703  0.06836  0.33846  1.0000
  N   N26       1.0  0.21922  0.09296  0.33461  1.0000
  C   C171      1.0  0.24131  0.11135  0.33492  1.0000
  N   N27       1.0  0.27206  0.10446  0.34286  1.0000
  C   C172      1.0  0.72942  0.92996  0.35169  1.0000
  N   N28       1.0  0.75240  0.94778  0.34923  1.0000
  C   C173      1.0  0.78375  0.94188  0.34133  1.0000
  N   N29       1.0  0.79151  0.91729  0.33618  1.0000
  C   C174      1.0  0.76938  0.89894  0.33566  1.0000
  N   N30       1.0  0.73867  0.90586  0.34425  1.0000
  C   C175      1.0  0.22881  0.58034  0.33819  1.0000
  N   N31       1.0  0.25173  0.56250  0.34129  1.0000
  C   C176      1.0  0.28309  0.56837  0.34843  1.0000
  N   N32       1.0  0.29092  0.59297  0.35229  1.0000
  C   C177      1.0  0.26883  0.61136  0.35200  1.0000
  N   N33       1.0  0.23808  0.60448  0.34413  1.0000
  C   C178      1.0  0.78071  0.42997  0.33521  1.0000
  N   N34       1.0  0.75772  0.44778  0.33768  1.0000
  C   C179      1.0  0.72637  0.44188  0.34560  1.0000
  N   N35       1.0  0.71863  0.41729  0.35072  1.0000
  C   C180      1.0  0.74076  0.39894  0.35117  1.0000
  N   N36       1.0  0.77146  0.40587  0.34259  1.0000
  C   C181      1.0  0.34544  0.31482  0.34588  1.0000
  N   N37       1.0  0.35012  0.33987  0.34895  1.0000
  C   C182      1.0  0.37970  0.35004  0.34597  1.0000
  N   N38       1.0  0.40477  0.33418  0.33776  1.0000
  C   C183      1.0  0.40098  0.30910  0.33274  1.0000
  N   N39       1.0  0.37123  0.30002  0.33882  1.0000
  C   C184      1.0  0.66491  0.69516  0.34238  1.0000
  N   N40       1.0  0.66041  0.67008  0.34430  1.0000
  C   C185      1.0  0.63088  0.65992  0.33943  1.0000
  N   N41       1.0  0.60570  0.67562  0.33068  1.0000
  C   C186      1.0  0.60938  0.70074  0.32721  1.0000
  N   N42       1.0  0.63907  0.70989  0.33486  1.0000
  C   C187      1.0  0.16467  0.81482  0.34097  1.0000
  N   N43       1.0  0.16000  0.83987  0.33796  1.0000
  C   C188      1.0  0.13042  0.85004  0.34098  1.0000
  N   N44       1.0  0.10534  0.83419  0.34917  1.0000
  C   C189      1.0  0.10912  0.80910  0.35414  1.0000
  N   N45       1.0  0.13888  0.80002  0.34806  1.0000
  C   C190      1.0  0.84522  0.19517  0.34441  1.0000
  N   N46       1.0  0.84971  0.17009  0.34254  1.0000
  C   C191      1.0  0.87924  0.15992  0.34741  1.0000
  N   N47       1.0  0.90443  0.17562  0.35614  1.0000
  C   C192      1.0  0.90075  0.20074  0.35953  1.0000
  N   N48       1.0  0.87106  0.20990  0.35193  1.0000
  C   C193      1.0  0.23336  0.25649  0.35849  1.0000
  N   N49       1.0  0.20340  0.26548  0.35319  1.0000
  C   C194      1.0  0.17797  0.25014  0.34609  1.0000
  N   N50       1.0  0.18312  0.22512  0.34620  1.0000
  C   C195      1.0  0.21271  0.21528  0.35131  1.0000
  N   N51       1.0  0.23742  0.23141  0.35612  1.0000
  C   C196      1.0  0.77673  0.75373  0.35676  1.0000
  N   N52       1.0  0.80668  0.74471  0.35119  1.0000
  C   C197      1.0  0.83213  0.76004  0.34424  1.0000
  N   N53       1.0  0.82701  0.78506  0.34478  1.0000
  C   C198      1.0  0.79744  0.79492  0.35022  1.0000
  N   N54       1.0  0.77270  0.77881  0.35482  1.0000
  C   C199      1.0  0.27676  0.75650  0.32843  1.0000
  N   N55       1.0  0.30672  0.76550  0.33371  1.0000
  C   C200      1.0  0.33215  0.75015  0.34082  1.0000
  N   N56       1.0  0.32700  0.72513  0.34073  1.0000
  C   C201      1.0  0.29741  0.71529  0.33563  1.0000
  N   N57       1.0  0.27271  0.73142  0.33082  1.0000
  C   C202      1.0  0.73339  0.25373  0.33020  1.0000
  N   N58       1.0  0.70344  0.24472  0.33577  1.0000
  C   C203      1.0  0.67800  0.26004  0.34276  1.0000
  N   N59       1.0  0.68311  0.28507  0.34221  1.0000
  C   C204      1.0  0.71268  0.29493  0.33678  1.0000
  N   N60       1.0  0.73742  0.27881  0.33215  1.0000
  C   C205      1.0  0.01118  0.31717  0.33938  1.0000
  N   N61       1.0  0.04221  0.31058  0.34804  1.0000
  C   C206      1.0  0.05126  0.28631  0.35579  1.0000
  N   N62       1.0  0.02844  0.26857  0.35251  1.0000
  C   C207      1.0  0.99737  0.27422  0.34422  1.0000
  N   N63       1.0  0.98926  0.29863  0.33973  1.0000
  C   C208      1.0  0.99859  0.69263  0.33668  1.0000
  N   N64       1.0  0.96761  0.69932  0.34554  1.0000
  C   C209      1.0  0.95868  0.72363  0.35268  1.0000
  N   N65       1.0  0.98156  0.74131  0.34861  1.0000
  C   C210      1.0  0.01258  0.73555  0.34008  1.0000
  N   N66       1.0  0.02060  0.71111  0.33624  1.0000
  C   C211      1.0  0.49895  0.81717  0.34754  1.0000
  N   N67       1.0  0.46792  0.81058  0.33894  1.0000
  C   C212      1.0  0.45887  0.78631  0.33125  1.0000
  N   N68       1.0  0.48169  0.76857  0.33447  1.0000
  C   C213      1.0  0.51276  0.77422  0.34270  1.0000
  N   N69       1.0  0.52087  0.79864  0.34718  1.0000
  C   C214      1.0  0.51153  0.19264  0.35022  1.0000
  N   N70       1.0  0.54251  0.19933  0.34140  1.0000
  C   C215      1.0  0.55144  0.22364  0.33427  1.0000
  N   N71       1.0  0.52856  0.24131  0.33830  1.0000
  C   C216      1.0  0.49753  0.23555  0.34683  1.0000
  N   N72       1.0  0.48952  0.21111  0.35067  1.0000
  C   C217      1.0  0.52539  0.98310  0.34144  1.0000
  C   C218      1.0  0.53268  0.00500  0.39148  1.0000
  C   C219      1.0  0.51280  0.02616  0.38369  1.0000
  H   H145      1.0  0.51838  0.04164  0.42070  1.0000
  C   C220      1.0  0.55938  0.00688  0.45666  1.0000
  H   H146      1.0  0.56884  0.98889  0.47654  1.0000
  H   H147      1.0  0.55160  0.01592  0.51870  1.0000
  H   H148      1.0  0.57835  0.01793  0.42703  1.0000
  C   C221      1.0  0.02535  0.52645  0.35557  1.0000
  C   C222      1.0  0.03290  0.50440  0.40436  1.0000
  C   C223      1.0  0.01256  0.48347  0.39866  1.0000
  H   H149      1.0  0.01799  0.46804  0.43599  1.0000
  C   C224      1.0  0.06082  0.50285  0.46518  1.0000
  H   H150      1.0  0.06044  0.51829  0.51283  1.0000
  H   H151      1.0  0.08248  0.50360  0.42551  1.0000
  H   H152      1.0  0.06149  0.48569  0.50440  1.0000
  C   C225      1.0  0.31433  0.07500  0.35447  1.0000
  C   C226      1.0  0.33493  0.08782  0.41447  1.0000
  C   C227      1.0  0.36802  0.08495  0.40480  1.0000
  H   H153      1.0  0.38249  0.09441  0.44837  1.0000
  C   C228      1.0  0.32386  0.10399  0.48967  1.0000
  H   H154      1.0  0.29850  0.10275  0.50161  1.0000
  H   H155      1.0  0.32980  0.12332  0.47506  1.0000
  H   H156      1.0  0.33546  0.09857  0.55238  1.0000
  C   C229      1.0  0.69635  0.93520  0.35863  1.0000
  C   C230      1.0  0.67583  0.92141  0.41597  1.0000
  C   C231      1.0  0.64273  0.92425  0.40670  1.0000
  H   H157      1.0  0.62835  0.91399  0.44806  1.0000
  C   C232      1.0  0.68695  0.90420  0.48807  1.0000
  H   H158      1.0  0.71217  0.90577  0.50171  1.0000
  H   H159      1.0  0.68175  0.88505  0.46887  1.0000
  H   H160      1.0  0.67481  0.90830  0.55127  1.0000
  C   C233      1.0  0.12823  0.56958  0.34874  1.0000
  C   C234      1.0  0.14889  0.55628  0.40732  1.0000
  C   C235      1.0  0.18213  0.55896  0.39722  1.0000
  H   H161      1.0  0.19672  0.55023  0.44239  1.0000
  C   C236      1.0  0.13783  0.54112  0.48501  1.0000
  H   H162      1.0  0.11256  0.54262  0.49702  1.0000
  H   H163      1.0  0.14958  0.54722  0.54668  1.0000
  H   H164      1.0  0.14359  0.52161  0.47333  1.0000
  C   C237      1.0  0.88141  0.44073  0.34295  1.0000
  C   C238      1.0  0.86083  0.45532  0.39766  1.0000
  C   C239      1.0  0.82757  0.45241  0.38873  1.0000
  H   H165      1.0  0.81304  0.46202  0.43165  1.0000
  C   C240      1.0  0.87193  0.47237  0.47007  1.0000
  H   H166      1.0  0.89738  0.47211  0.48009  1.0000
  H   H167      1.0  0.86114  0.46715  0.53416  1.0000
  H   H168      1.0  0.86494  0.49138  0.45386  1.0000
  C   C241      1.0  0.50163  0.16725  0.35454  1.0000
  C   C242      1.0  0.47685  0.15885  0.41193  1.0000
  C   C243      1.0  0.46528  0.13431  0.40190  1.0000
  H   H169      1.0  0.44732  0.12860  0.44346  1.0000
  C   C244      1.0  0.46260  0.17406  0.48543  1.0000
  H   H170      1.0  0.47637  0.19057  0.50169  1.0000
  H   H171      1.0  0.46108  0.16317  0.54737  1.0000
  H   H172      1.0  0.43881  0.17979  0.46598  1.0000
  C   C245      1.0  0.50903  0.84251  0.35288  1.0000
  C   C246      1.0  0.53394  0.85059  0.41047  1.0000
  C   C247      1.0  0.54567  0.87511  0.40160  1.0000
  H   H173      1.0  0.56366  0.88060  0.44342  1.0000
  C   C248      1.0  0.54810  0.83506  0.48324  1.0000
  H   H174      1.0  0.53417  0.81861  0.49900  1.0000
  H   H175      1.0  0.54981  0.84575  0.54560  1.0000
  H   H176      1.0  0.57180  0.82924  0.46334  1.0000
  C   C249      1.0  0.03229  0.61724  0.34820  1.0000
  C   C250      1.0  0.00668  0.62534  0.40325  1.0000
  C   C251      1.0  0.99518  0.64999  0.39359  1.0000
  H   H177      1.0  0.97773  0.65596  0.43636  1.0000
  C   C252      1.0  0.99225  0.61014  0.47639  1.0000
  H   H178      1.0  0.00428  0.59260  0.48842  1.0000
  H   H179      1.0  0.96765  0.60613  0.45959  1.0000
  H   H180      1.0  0.99285  0.62044  0.53976  1.0000
  C   C253      1.0  0.97701  0.39248  0.34735  1.0000
  C   C254      1.0  0.00272  0.38471  0.40263  1.0000
  C   C255      1.0  0.01435  0.36005  0.39429  1.0000
  H   H181      1.0  0.03189  0.35433  0.43720  1.0000
  C   C256      1.0  0.01714  0.40032  0.47462  1.0000
  H   H182      1.0  0.00491  0.41783  0.48573  1.0000
  H   H183      1.0  0.04165  0.40441  0.45721  1.0000
  H   H184      1.0  0.01675  0.39031  0.53861  1.0000
  C   C257      1.0  0.47230  0.49679  0.34569  1.0000
  C   C258      1.0  0.49700  0.48566  0.39713  1.0000
  C   C259      1.0  0.52849  0.49433  0.38674  1.0000
  H   H185      1.0  0.54587  0.48632  0.42515  1.0000
  C   C260      1.0  0.49177  0.46601  0.46630  1.0000
  H   H186      1.0  0.46697  0.46304  0.48239  1.0000
  H   H187      1.0  0.50340  0.47117  0.52926  1.0000
  H   H188      1.0  0.50179  0.44848  0.44269  1.0000
  C   C261      1.0  0.97342  0.01438  0.35749  1.0000
  C   C262      1.0  0.99823  0.02554  0.40853  1.0000
  C   C263      1.0  0.02959  0.01656  0.39954  1.0000
  H   H189      1.0  0.04695  0.02440  0.43838  1.0000
  C   C264      1.0  0.99231  0.04571  0.47496  1.0000
  H   H190      1.0  0.97345  0.04020  0.52093  1.0000
  H   H191      1.0  0.98557  0.06262  0.43942  1.0000
  H   H192      1.0  0.01300  0.05014  0.51592  1.0000
  C   C265      1.0  0.38469  0.37640  0.34658  1.0000
  C   C266      1.0  0.36719  0.39357  0.40021  1.0000
  C   C267      1.0  0.37310  0.41941  0.39114  1.0000
  H   H193      1.0  0.36091  0.43151  0.43168  1.0000
  C   C268      1.0  0.34397  0.38613  0.47077  1.0000
  H   H194      1.0  0.34514  0.36651  0.48817  1.0000
  H   H195      1.0  0.32009  0.39040  0.44767  1.0000
  H   H196      1.0  0.34841  0.39636  0.53305  1.0000
  C   C269      1.0  0.62612  0.63362  0.33792  1.0000
  C   C270      1.0  0.64054  0.61656  0.39886  1.0000
  C   C271      1.0  0.63455  0.59074  0.38903  1.0000
  H   H197      1.0  0.64418  0.57870  0.43498  1.0000
  C   C272      1.0  0.66037  0.62413  0.47712  1.0000
  H   H198      1.0  0.66080  0.64410  0.48856  1.0000
  H   H199      1.0  0.68460  0.61780  0.46665  1.0000
  H   H200      1.0  0.65128  0.61565  0.53873  1.0000
  C   C273      1.0  0.11355  0.92907  0.35404  1.0000
  C   C274      1.0  0.09613  0.91199  0.40797  1.0000
  C   C275      1.0  0.10222  0.88620  0.39936  1.0000
  H   H201      1.0  0.08988  0.87422  0.43994  1.0000
  C   C276      1.0  0.07263  0.91946  0.47774  1.0000
  H   H202      1.0  0.07303  0.93925  0.49294  1.0000
  H   H203      1.0  0.07749  0.90983  0.54101  1.0000
  H   H204      1.0  0.04892  0.91446  0.45518  1.0000
  C   C277      1.0  0.89572  0.08110  0.36548  1.0000
  C   C278      1.0  0.90929  0.09808  0.42802  1.0000
  C   C279      1.0  0.90360  0.12386  0.41763  1.0000
  H   H205      1.0  0.91330  0.13583  0.46378  1.0000
  C   C280      1.0  0.92765  0.09045  0.50895  1.0000
  H   H206      1.0  0.92796  0.07043  0.51933  1.0000
  H   H207      1.0  0.91718  0.09863  0.56929  1.0000
  H   H208      1.0  0.95194  0.09704  0.50295  1.0000
  C   C281      1.0  0.30762  0.54993  0.34742  1.0000
  C   C282      1.0  0.30660  0.52708  0.39601  1.0000
  C   C283      1.0  0.33204  0.51001  0.38771  1.0000
  H   H209      1.0  0.33132  0.49397  0.42497  1.0000
  C   C284      1.0  0.28115  0.52031  0.46093  1.0000
  H   H210      1.0  0.26504  0.53551  0.47589  1.0000
  H   H211      1.0  0.29152  0.51463  0.52509  1.0000
  H   H212      1.0  0.26746  0.50481  0.43396  1.0000
  C   C285      1.0  0.70170  0.46020  0.34365  1.0000
  C   C286      1.0  0.70240  0.48313  0.39172  1.0000
  C   C287      1.0  0.67683  0.50005  0.38249  1.0000
  H   H213      1.0  0.67740  0.51619  0.41917  1.0000
  C   C288      1.0  0.72771  0.49017  0.45672  1.0000
  H   H214      1.0  0.74413  0.47517  0.47155  1.0000
  H   H215      1.0  0.71720  0.49569  0.52087  1.0000
  H   H216      1.0  0.74110  0.50586  0.42989  1.0000
  C   C289      1.0  0.15094  0.01479  0.35241  1.0000
  C   C290      1.0  0.15015  0.03745  0.40212  1.0000
  C   C291      1.0  0.17550  0.05454  0.39349  1.0000
  H   H217      1.0  0.17464  0.07061  0.43052  1.0000
  C   C292      1.0  0.12474  0.04405  0.46747  1.0000
  H   H218      1.0  0.11056  0.02812  0.48787  1.0000
  H   H219      1.0  0.10924  0.05801  0.43763  1.0000
  H   H220      1.0  0.13493  0.05167  0.52917  1.0000
  C   C293      1.0  0.86023  0.99509  0.35830  1.0000
  C   C294      1.0  0.86069  0.97232  0.40744  1.0000
  C   C295      1.0  0.83527  0.95535  0.39762  1.0000
  H   H221      1.0  0.83589  0.93920  0.43425  1.0000
  C   C296      1.0  0.88575  0.96547  0.47355  1.0000
  H   H222      1.0  0.89988  0.98128  0.49534  1.0000
  H   H223      1.0  0.90136  0.95158  0.44372  1.0000
  H   H224      1.0  0.87524  0.95765  0.53448  1.0000
  C   C297      1.0  0.21837  0.18910  0.34851  1.0000
  C   C298      1.0  0.20106  0.17117  0.39911  1.0000
  C   C299      1.0  0.20847  0.14560  0.38907  1.0000
  H   H225      1.0  0.19661  0.13292  0.42802  1.0000
  C   C300      1.0  0.17672  0.17752  0.46794  1.0000
  H   H226      1.0  0.17541  0.19728  0.48306  1.0000
  H   H227      1.0  0.18206  0.16813  0.53136  1.0000
  H   H228      1.0  0.15355  0.17136  0.44458  1.0000
  C   C301      1.0  0.79188  0.82110  0.34789  1.0000
  C   C302      1.0  0.80936  0.83892  0.39858  1.0000
  C   C303      1.0  0.80210  0.86453  0.38886  1.0000
  H   H229      1.0  0.81407  0.87712  0.42791  1.0000
  C   C304      1.0  0.83371  0.83241  0.46720  1.0000
  H   H230      1.0  0.83483  0.81264  0.48225  1.0000
  H   H231      1.0  0.82852  0.84182  0.53069  1.0000
  H   H232      1.0  0.85692  0.83843  0.44365  1.0000
  C   C305      1.0  0.27712  0.63707  0.35483  1.0000
  C   C306      1.0  0.26020  0.65497  0.40658  1.0000
  C   C307      1.0  0.26757  0.68048  0.39641  1.0000
  H   H233      1.0  0.25538  0.69313  0.43470  1.0000
  C   C308      1.0  0.23573  0.64859  0.47506  1.0000
  H   H234      1.0  0.23521  0.62891  0.49205  1.0000
  H   H235      1.0  0.21246  0.65401  0.45013  1.0000
  H   H236      1.0  0.24035  0.65854  0.53782  1.0000
  C   C309      1.0  0.73258  0.37321  0.35461  1.0000
  C   C310      1.0  0.74969  0.35544  0.40641  1.0000
  C   C311      1.0  0.74245  0.32989  0.39668  1.0000
  H   H237      1.0  0.75476  0.31732  0.43503  1.0000
  C   C312      1.0  0.77423  0.36198  0.47446  1.0000
  H   H238      1.0  0.77471  0.38169  0.49105  1.0000
  H   H239      1.0  0.79749  0.35658  0.44934  1.0000
  H   H240      1.0  0.76975  0.35210  0.53746  1.0000
  C   C313      1.0  0.25988  0.27268  0.36420  1.0000
  C   C314      1.0  0.28552  0.26847  0.42428  1.0000
  C   C315      1.0  0.31280  0.28348  0.41665  1.0000
  H   H241      1.0  0.33139  0.28002  0.45924  1.0000
  C   C316      1.0  0.28551  0.24946  0.49736  1.0000
  H   H242      1.0  0.26228  0.24147  0.50992  1.0000
  H   H243      1.0  0.29320  0.25784  0.56067  1.0000
  H   H244      1.0  0.30181  0.23448  0.47998  1.0000
  C   C317      1.0  0.75023  0.73751  0.36198  1.0000
  C   C318      1.0  0.72452  0.74160  0.42192  1.0000
  C   C319      1.0  0.69731  0.72652  0.41391  1.0000
  H   H245      1.0  0.67866  0.72988  0.45639  1.0000
  C   C320      1.0  0.72438  0.76054  0.49523  1.0000
  H   H246      1.0  0.74756  0.76859  0.50803  1.0000
  H   H247      1.0  0.71669  0.75207  0.55840  1.0000
  H   H248      1.0  0.70801  0.77548  0.47794  1.0000
  C   C321      1.0  0.19462  0.80295  0.33395  1.0000
  C   C322      1.0  0.22080  0.80787  0.39146  1.0000
  C   C323      1.0  0.24817  0.79279  0.38400  1.0000
  H   H249      1.0  0.26638  0.79566  0.42841  1.0000
  C   C324      1.0  0.22069  0.82679  0.46470  1.0000
  H   H250      1.0  0.19834  0.83658  0.47169  1.0000
  H   H251      1.0  0.23908  0.84057  0.45171  1.0000
  H   H252      1.0  0.22558  0.81783  0.52920  1.0000
  C   C325      1.0  0.81534  0.20711  0.33692  1.0000
  C   C326      1.0  0.78913  0.20235  0.39447  1.0000
  C   C327      1.0  0.76183  0.21748  0.38657  1.0000
  H   H253      1.0  0.74358  0.21472  0.43094  1.0000
  C   C328      1.0  0.78910  0.18357  0.46819  1.0000
  H   H254      1.0  0.81142  0.17377  0.47574  1.0000
  H   H255      1.0  0.77070  0.16979  0.45534  1.0000
  H   H256      1.0  0.78414  0.19266  0.53241  1.0000
  C   C329      1.0  0.47425  0.25456  0.34533  1.0000
  C   C330      1.0  0.47575  0.27652  0.39885  1.0000
  C   C331      1.0  0.45196  0.29483  0.38853  1.0000
  H   H257      1.0  0.45234  0.31007  0.43006  1.0000
  C   C332      1.0  0.49972  0.28095  0.47063  1.0000
  H   H258      1.0  0.51481  0.26497  0.48371  1.0000
  H   H259      1.0  0.48793  0.28542  0.53403  1.0000
  H   H260      1.0  0.51472  0.29660  0.45152  1.0000
  C   C333      1.0  0.53602  0.75518  0.34063  1.0000
  C   C334      1.0  0.53448  0.73309  0.39340  1.0000
  C   C335      1.0  0.55827  0.71479  0.38265  1.0000
  H   H261      1.0  0.55786  0.69946  0.42369  1.0000
  C   C336      1.0  0.51047  0.72849  0.46495  1.0000
  H   H262      1.0  0.49542  0.74445  0.47862  1.0000
  H   H263      1.0  0.52223  0.72382  0.52822  1.0000
  H   H264      1.0  0.49544  0.71292  0.44522  1.0000
  C   C337      1.0  0.08358  0.79198  0.35930  1.0000
  C   C338      1.0  0.08450  0.77036  0.41469  1.0000
  C   C339      1.0  0.06095  0.75197  0.40375  1.0000
  H   H265      1.0  0.06163  0.73656  0.44444  1.0000
  C   C340      1.0  0.10826  0.76606  0.48724  1.0000
  H   H266      1.0  0.12230  0.78248  0.50273  1.0000
  H   H267      1.0  0.12417  0.75107  0.46728  1.0000
  H   H268      1.0  0.09638  0.76073  0.54964  1.0000
  C   C341      1.0  0.92634  0.21782  0.36468  1.0000
  C   C342      1.0  0.92534  0.23958  0.41929  1.0000
  C   C343      1.0  0.94895  0.25792  0.40809  1.0000
  H   H269      1.0  0.94820  0.27344  0.44821  1.0000
  C   C344      1.0  0.90142  0.24411  0.49119  1.0000
  H   H270      1.0  0.88721  0.22778  0.50673  1.0000
  H   H271      1.0  0.88566  0.25913  0.47053  1.0000
  H   H272      1.0  0.91316  0.24951  0.55372  1.0000
  C   C345      1.0  0.08346  0.27870  0.36146  1.0000
  C   C346      1.0  0.09379  0.25883  0.41777  1.0000
  C   C347      1.0  0.12494  0.24969  0.40804  1.0000
  H   H273      1.0  0.13221  0.23556  0.44952  1.0000
  C   C348      1.0  0.07421  0.24743  0.49035  1.0000
  H   H274      1.0  0.05302  0.25810  0.50592  1.0000
  H   H275      1.0  0.08779  0.24626  0.55278  1.0000
  H   H276      1.0  0.06721  0.22870  0.47037  1.0000
  C   C349      1.0  0.92654  0.73132  0.35863  1.0000
  C   C350      1.0  0.91636  0.75120  0.41502  1.0000
  C   C351      1.0  0.88522  0.76040  0.40563  1.0000
  H   H277      1.0  0.87805  0.77454  0.44722  1.0000
  C   C352      1.0  0.93608  0.76258  0.48736  1.0000
  H   H278      1.0  0.95732  0.75193  0.50247  1.0000
  H   H279      1.0  0.92263  0.76370  0.55003  1.0000
  H   H280      1.0  0.94300  0.78133  0.46742  1.0000
  C   C353      1.0  0.36339  0.75999  0.34077  1.0000
  C   C354      1.0  0.37340  0.78028  0.39544  1.0000
  C   C355      1.0  0.40471  0.78932  0.38625  1.0000
  H   H281      1.0  0.41217  0.80319  0.42860  1.0000
  C   C356      1.0  0.35366  0.79186  0.46722  1.0000
  H   H282      1.0  0.33160  0.78204  0.47972  1.0000
  H   H283      1.0  0.34807  0.81098  0.44852  1.0000
  H   H284      1.0  0.36661  0.79204  0.53084  1.0000
  C   C357      1.0  0.64679  0.25017  0.34305  1.0000
  C   C358      1.0  0.63690  0.22986  0.39783  1.0000
  C   C359      1.0  0.60563  0.22075  0.38885  1.0000
  H   H285      1.0  0.59826  0.20686  0.43124  1.0000
  C   C360      1.0  0.65674  0.21835  0.46952  1.0000
  H   H286      1.0  0.67873  0.22826  0.48203  1.0000
  H   H287      1.0  0.66246  0.19926  0.45071  1.0000
  H   H288      1.0  0.64381  0.21808  0.53317  1.0000
