data_image0
_chemical_formula_structural       C3HNCHNC2H3C3NHCNC3OCH2C3HNCHNC2H3C3NHCNC3OCH3C2H10CNH2C3NH2C3O2C2H3CO2H2CNOCH3C2H10CNH2C3NH2C3O2C2H3CO2H2CNOCH2C3HCHC6H2NCH2CH3NCHC3NC2H2C3NH2C2NC3H2OCHC2NC2O2CHC3HCHC6H2NCH2CH3NCHC3NC2H2C3NH2C2NC3H2OCHC2NC2O2CHC3H2NCHNCH2C3NH2C2NC2OHC2NC2O2C2H4C3H2NCHNCH2C3NH2C2NC2OHC2NC2O2C2H4C3HC3H3C3HC3H3C3HC3H3NCH3NCH2NCHCH3NCHCH3NCH3NCH2C3NC3NH4C3NC3NH4C3NC3NH4C2NC2O2C2H3C2NC2O2C2H4C2NC2O2CH2C2NC2O2CH2C2NC2O2C2H3C2NC2O2C2H4C3HC3H3C3HC3H3C3HC3H3NCH3NCH2NCHCH3NCHCH3NCH3NCH2C3NC3NH4C3NC3NH4C3NC3NH4C2NC2O2C2H3C2NC2O2C2H4C2NC2O2CH2C2NC2O2CH2C2NC2O2C2H3C2NC2O2C2H4
_chemical_formula_sum              "C312 H240 N72 O48"
_cell_length_a       46.2882
_cell_length_b       46.2882
_cell_length_c       14.7798
_cell_angle_alpha    90
_cell_angle_beta     90
_cell_angle_gamma    120

_space_group_name_H-M_alt    "P 1"
_space_group_IT_number       1

loop_
  _space_group_symop_operation_xyz
  'x, y, z'

loop_
  _atom_site_type_symbol
  _atom_site_label
  _atom_site_symmetry_multiplicity
  _atom_site_fract_x
  _atom_site_fract_y
  _atom_site_fract_z
  _atom_site_occupancy
  C   C1        1.0  0.03062  0.26648  0.36527  1.0000
  C   C2        1.0  0.08524  0.32029  0.37664  1.0000
  C   C3        1.0  0.05010  0.30211  0.36760  1.0000
  H   H1        1.0  0.03890  0.31623  0.36211  1.0000
  N   N1        1.0  0.14065  0.23910  0.29577  1.0000
  C   C4        1.0  0.11032  0.23714  0.30294  1.0000
  H   H2        1.0  0.09693  0.23389  0.24487  1.0000
  N   N2        1.0  0.11142  0.36984  0.29456  1.0000
  C   C5        1.0  0.13882  0.39989  0.27632  1.0000
  C   C6        1.0  0.04543  0.31733  0.00637  1.0000
  H   H3        1.0  0.09699  0.35183  0.03694  1.0000
  H   H4        1.0  0.03628  0.32283  0.06840  1.0000
  H   H5        1.0  0.04759  0.29515  0.01735  1.0000
  C   C7        1.0  0.04988  0.25002  0.36812  1.0000
  C   C8        1.0  0.08518  0.26691  0.37742  1.0000
  C   C9        1.0  0.10317  0.30261  0.37835  1.0000
  N   N3        1.0  0.13731  0.31989  0.37203  1.0000
  H   H6        1.0  0.03823  0.22460  0.36565  1.0000
  C   C10       1.0  0.10275  0.24897  0.38264  1.0000
  N   N4        1.0  0.12586  0.25806  0.44988  1.0000
  C   C11       1.0  0.10237  0.35580  0.37841  1.0000
  C   C12       1.0  0.12454  0.37419  0.45049  1.0000
  C   C13       1.0  0.12083  0.36290  0.53887  1.0000
  O   O1        1.0  0.09076  0.33883  0.56590  1.0000
  C   C14       1.0  0.07963  0.34711  0.64761  1.0000
  H   H7        1.0  0.07702  0.36917  0.63765  1.0000
  H   H8        1.0  0.02749  0.31231  0.61876  1.0000
  C   C15       1.0  0.03063  0.76648  0.36527  1.0000
  C   C16       1.0  0.08524  0.82029  0.37663  1.0000
  C   C17       1.0  0.05010  0.80211  0.36760  1.0000
  H   H9        1.0  0.03890  0.81623  0.36209  1.0000
  N   N5        1.0  0.14065  0.73910  0.29575  1.0000
  C   C18       1.0  0.11032  0.73715  0.30293  1.0000
  H   H10       1.0  0.09693  0.73389  0.24485  1.0000
  N   N6        1.0  0.11142  0.86984  0.29455  1.0000
  C   C19       1.0  0.13882  0.89989  0.27631  1.0000
  C   C20       1.0  0.04543  0.81734  0.00636  1.0000
  H   H11       1.0  0.09699  0.85183  0.03693  1.0000
  H   H12       1.0  0.03628  0.82283  0.06840  1.0000
  H   H13       1.0  0.04759  0.79515  0.01733  1.0000
  C   C21       1.0  0.04988  0.75002  0.36810  1.0000
  C   C22       1.0  0.08518  0.76691  0.37741  1.0000
  C   C23       1.0  0.10317  0.80260  0.37833  1.0000
  N   N7        1.0  0.13731  0.81988  0.37202  1.0000
  H   H14       1.0  0.03823  0.72460  0.36564  1.0000
  C   C24       1.0  0.10275  0.74897  0.38262  1.0000
  N   N8        1.0  0.12586  0.75806  0.44986  1.0000
  C   C25       1.0  0.10237  0.85580  0.37839  1.0000
  C   C26       1.0  0.12454  0.87419  0.45047  1.0000
  C   C27       1.0  0.12083  0.86289  0.53886  1.0000
  O   O2        1.0  0.09076  0.83883  0.56589  1.0000
  C   C28       1.0  0.07963  0.84711  0.64761  1.0000
  H   H15       1.0  0.07703  0.86917  0.63765  1.0000
  H   H16       1.0  0.02749  0.81232  0.61876  1.0000
  H   H17       1.0  0.15005  0.34372  0.36597  1.0000
  C   C29       1.0  0.19782  0.26270  0.33757  1.0000
  C   C30       1.0  0.21703  0.24758  0.35986  1.0000
  H   H18       1.0  0.20385  0.22354  0.38245  1.0000
  H   H19       1.0  0.17671  0.29703  0.24369  1.0000
  H   H20       1.0  0.22872  0.03214  0.37151  1.0000
  H   H21       1.0  0.21344  0.37966  0.23343  1.0000
  H   H22       1.0  0.19480  0.26689  0.01551  1.0000
  H   H23       1.0  0.21403  0.22709  0.05387  1.0000
  H   H24       1.0  0.14477  0.40669  0.20996  1.0000
  H   H25       1.0  0.24091  0.14957  0.23756  1.0000
  H   H26       1.0  0.23172  0.02607  0.05756  1.0000
  H   H27       1.0  0.15007  0.30914  0.36013  1.0000
  C   C31       1.0  0.21521  0.29674  0.31036  1.0000
  N   N9        1.0  0.19912  0.31058  0.26650  1.0000
  H   H28       1.0  0.21216  0.33134  0.23416  1.0000
  H   H29       1.0  0.22990  0.19714  0.35766  1.0000
  C   C32       1.0  0.21610  0.46872  0.35230  1.0000
  C   C33       1.0  0.19748  0.43468  0.32746  1.0000
  C   C34       1.0  0.21528  0.41803  0.30402  1.0000
  N   N10       1.0  0.20002  0.38768  0.26224  1.0000
  H   H30       1.0  0.17757  0.37762  0.23913  1.0000
  H   H31       1.0  0.20229  0.47964  0.36774  1.0000
  C   C35       1.0  0.16363  0.24791  0.36358  1.0000
  C   C36       1.0  0.15458  0.25673  0.44704  1.0000
  C   C37       1.0  0.17547  0.27135  0.51997  1.0000
  O   O3        1.0  0.18789  0.30160  0.52659  1.0000
  O   O4        1.0  0.19620  0.26031  0.54189  1.0000
  C   C38       1.0  0.19123  0.24768  0.63285  1.0000
  C   C39       1.0  0.21711  0.23683  0.65175  1.0000
  H   H32       1.0  0.16616  0.22605  0.64121  1.0000
  H   H33       1.0  0.21394  0.21741  0.60411  1.0000
  H   H34       1.0  0.24229  0.25814  0.64461  1.0000
  C   C40       1.0  0.23236  0.39082  0.48825  1.0000
  O   O5        1.0  0.20248  0.37081  0.48923  1.0000
  O   O6        1.0  0.24020  0.42090  0.51970  1.0000
  H   H35       1.0  0.24126  0.40945  0.65679  1.0000
  H   H36       1.0  0.24057  0.46263  0.64463  1.0000
  C   C41       1.0  0.16268  0.41611  0.34540  1.0000
  N   N11       1.0  0.15396  0.40208  0.42906  1.0000
  O   O7        1.0  0.14398  0.36082  0.57175  1.0000
  C   C42       1.0  0.24017  0.03173  0.65412  1.0000
  H   H37       1.0  0.23056  0.07271  0.64447  1.0000
  H   H38       1.0  0.21971  0.01523  0.60942  1.0000
  H   H39       1.0  0.15005  0.84371  0.36597  1.0000
  C   C43       1.0  0.19782  0.76270  0.33756  1.0000
  C   C44       1.0  0.21703  0.74758  0.35986  1.0000
  H   H40       1.0  0.20385  0.72354  0.38245  1.0000
  H   H41       1.0  0.17671  0.79703  0.24368  1.0000
  H   H42       1.0  0.22872  0.53214  0.37153  1.0000
  H   H43       1.0  0.21344  0.87966  0.23343  1.0000
  H   H44       1.0  0.19480  0.76691  0.01552  1.0000
  H   H45       1.0  0.21400  0.72708  0.05395  1.0000
  H   H46       1.0  0.14477  0.90669  0.20995  1.0000
  H   H47       1.0  0.24091  0.64957  0.23759  1.0000
  H   H48       1.0  0.23169  0.52606  0.05758  1.0000
  H   H49       1.0  0.15007  0.80913  0.36012  1.0000
  C   C45       1.0  0.21521  0.79674  0.31035  1.0000
  N   N12       1.0  0.19913  0.81057  0.26648  1.0000
  H   H50       1.0  0.21216  0.83134  0.23414  1.0000
  H   H51       1.0  0.22990  0.69714  0.35768  1.0000
  C   C46       1.0  0.21610  0.96872  0.35228  1.0000
  C   C47       1.0  0.19748  0.93468  0.32745  1.0000
  C   C48       1.0  0.21528  0.91802  0.30401  1.0000
  N   N13       1.0  0.20002  0.88767  0.26223  1.0000
  H   H52       1.0  0.17757  0.87762  0.23912  1.0000
  H   H53       1.0  0.20229  0.97964  0.36772  1.0000
  C   C49       1.0  0.16363  0.74791  0.36358  1.0000
  C   C50       1.0  0.15458  0.75673  0.44702  1.0000
  C   C51       1.0  0.17547  0.77135  0.51996  1.0000
  O   O8        1.0  0.18790  0.80160  0.52656  1.0000
  O   O9        1.0  0.19618  0.76029  0.54190  1.0000
  C   C52       1.0  0.19122  0.74768  0.63288  1.0000
  C   C53       1.0  0.21708  0.73682  0.65182  1.0000
  H   H54       1.0  0.16614  0.72607  0.64127  1.0000
  H   H55       1.0  0.21390  0.71738  0.60420  1.0000
  H   H56       1.0  0.24226  0.75812  0.64465  1.0000
  C   C54       1.0  0.23236  0.89082  0.48825  1.0000
  O   O10       1.0  0.20248  0.87080  0.48923  1.0000
  O   O11       1.0  0.24020  0.92090  0.51968  1.0000
  H   H57       1.0  0.24127  0.90946  0.65678  1.0000
  H   H58       1.0  0.24057  0.96263  0.64460  1.0000
  C   C55       1.0  0.16268  0.91610  0.34538  1.0000
  N   N14       1.0  0.15396  0.90208  0.42905  1.0000
  O   O12       1.0  0.14398  0.86082  0.57173  1.0000
  C   C56       1.0  0.24014  0.53172  0.65414  1.0000
  H   H59       1.0  0.23054  0.57271  0.64449  1.0000
  H   H60       1.0  0.21968  0.51522  0.60944  1.0000
  C   C57       1.0  0.27135  0.24685  0.36307  1.0000
  C   C58       1.0  0.30703  0.26341  0.36739  1.0000
  C   C59       1.0  0.32545  0.24654  0.37580  1.0000
  H   H61       1.0  0.32077  0.28884  0.36712  1.0000
  C   C60       1.0  0.25273  0.26430  0.35440  1.0000
  H   H62       1.0  0.34885  0.20506  0.36078  1.0000
  C   C61       1.0  0.26996  0.02404  0.35042  1.0000
  C   C62       1.0  0.25336  0.04309  0.35490  1.0000
  C   C63       1.0  0.26899  0.07748  0.33423  1.0000
  C   C64       1.0  0.25179  0.48788  0.34957  1.0000
  C   C65       1.0  0.25007  0.43355  0.32335  1.0000
  C   C66       1.0  0.26767  0.46819  0.34327  1.0000
  H   H63       1.0  0.29273  0.47875  0.35430  1.0000
  H   H64       1.0  0.30428  0.13320  0.24273  1.0000
  N   N15       1.0  0.27698  0.40360  0.27378  1.0000
  C   C67       1.0  0.27944  0.37535  0.27103  1.0000
  H   H65       1.0  0.28702  0.36950  0.21213  1.0000
  H   H66       1.0  0.27690  0.46871  0.03547  1.0000
  C   C68       1.0  0.31667  0.27275  0.01132  1.0000
  H   H67       1.0  0.35204  0.25650  0.03895  1.0000
  H   H68       1.0  0.32136  0.28624  0.07519  1.0000
  H   H69       1.0  0.29483  0.24795  0.01931  1.0000
  N   N16       1.0  0.24560  0.11078  0.28865  1.0000
  C   C69       1.0  0.24360  0.13907  0.29573  1.0000
  H   H70       1.0  0.27193  0.08423  0.01237  1.0000
  C   C70       1.0  0.30786  0.21089  0.37572  1.0000
  C   C71       1.0  0.27221  0.19309  0.37377  1.0000
  C   C72       1.0  0.25520  0.21121  0.36418  1.0000
  N   N17       1.0  0.32509  0.19400  0.36908  1.0000
  C   C73       1.0  0.26826  0.29978  0.34471  1.0000
  C   C74       1.0  0.25028  0.31636  0.32461  1.0000
  H   H71       1.0  0.31434  0.17036  0.36025  1.0000
  H   H72       1.0  0.29340  0.31468  0.35286  1.0000
  C   C75       1.0  0.30337  0.09432  0.31070  1.0000
  C   C76       1.0  0.32269  0.07869  0.32719  1.0000
  C   C77       1.0  0.30559  0.04381  0.34397  1.0000
  N   N18       1.0  0.31762  0.12439  0.26759  1.0000
  H   H73       1.0  0.33908  0.13290  0.23858  1.0000
  H   H74       1.0  0.32008  0.03306  0.35173  1.0000
  C   C78       1.0  0.26385  0.41274  0.34362  1.0000
  C   C79       1.0  0.26416  0.35117  0.34006  1.0000
  N   N19       1.0  0.24956  0.35951  0.40700  1.0000
  C   C80       1.0  0.24973  0.38883  0.41490  1.0000
  C   C81       1.0  0.25689  0.42789  0.60574  1.0000
  C   C82       1.0  0.26399  0.46252  0.63706  1.0000
  H   H75       1.0  0.28064  0.42814  0.60019  1.0000
  H   H76       1.0  0.27963  0.48144  0.58749  1.0000
  O   O13       1.0  0.34007  0.25196  0.56738  1.0000
  C   C83       1.0  0.34725  0.26980  0.65159  1.0000
  H   H77       1.0  0.31152  0.28623  0.62561  1.0000
  C   C84       1.0  0.25351  0.09639  0.35770  1.0000
  C   C85       1.0  0.25405  0.15765  0.37689  1.0000
  N   N20       1.0  0.26215  0.14339  0.44551  1.0000
  C   C86       1.0  0.26094  0.11345  0.44229  1.0000
  C   C87       1.0  0.27426  0.10646  0.51685  1.0000
  O   O14       1.0  0.30458  0.12369  0.52332  1.0000
  O   O15       1.0  0.26206  0.07465  0.53990  1.0000
  C   C88       1.0  0.25149  0.06840  0.63287  1.0000
  H   H78       1.0  0.26098  0.02723  0.64442  1.0000
  C   C89       1.0  0.27135  0.74685  0.36308  1.0000
  C   C90       1.0  0.30703  0.76341  0.36741  1.0000
  C   C91       1.0  0.32545  0.74654  0.37582  1.0000
  H   H79       1.0  0.32077  0.78884  0.36712  1.0000
  C   C92       1.0  0.25274  0.76430  0.35441  1.0000
  H   H80       1.0  0.34885  0.70506  0.36082  1.0000
  C   C93       1.0  0.26996  0.52404  0.35044  1.0000
  C   C94       1.0  0.25336  0.54309  0.35492  1.0000
  C   C95       1.0  0.26899  0.57748  0.33426  1.0000
  C   C96       1.0  0.25179  0.98788  0.34956  1.0000
  C   C97       1.0  0.25007  0.93355  0.32334  1.0000
  C   C98       1.0  0.26767  0.96818  0.34325  1.0000
  H   H81       1.0  0.29273  0.97875  0.35429  1.0000
  H   H82       1.0  0.30428  0.63321  0.24277  1.0000
  N   N21       1.0  0.27698  0.90360  0.27377  1.0000
  C   C99       1.0  0.27944  0.87535  0.27102  1.0000
  H   H83       1.0  0.28702  0.86950  0.21213  1.0000
  H   H84       1.0  0.27690  0.96871  0.03544  1.0000
  C   C100      1.0  0.31666  0.77274  0.01133  1.0000
  H   H85       1.0  0.35203  0.75649  0.03897  1.0000
  H   H86       1.0  0.32133  0.78623  0.07521  1.0000
  H   H87       1.0  0.29482  0.74793  0.01930  1.0000
  N   N22       1.0  0.24560  0.61078  0.28868  1.0000
  C   C101      1.0  0.24359  0.63908  0.29576  1.0000
  H   H88       1.0  0.27191  0.58422  0.01241  1.0000
  C   C102      1.0  0.30786  0.71089  0.37576  1.0000
  C   C103      1.0  0.27222  0.69309  0.37381  1.0000
  C   C104      1.0  0.25520  0.71121  0.36421  1.0000
  N   N23       1.0  0.32509  0.69400  0.36912  1.0000
  C   C105      1.0  0.26826  0.79978  0.34472  1.0000
  C   C106      1.0  0.25028  0.81636  0.32460  1.0000
  H   H89       1.0  0.31434  0.67036  0.36032  1.0000
  H   H90       1.0  0.29340  0.81468  0.35287  1.0000
  C   C107      1.0  0.30337  0.59432  0.31073  1.0000
  C   C108      1.0  0.32269  0.57869  0.32720  1.0000
  C   C109      1.0  0.30559  0.54381  0.34398  1.0000
  N   N24       1.0  0.31762  0.62440  0.26762  1.0000
  H   H91       1.0  0.33907  0.63290  0.23861  1.0000
  H   H92       1.0  0.32008  0.53306  0.35173  1.0000
  C   C110      1.0  0.26385  0.91274  0.34362  1.0000
  C   C111      1.0  0.26416  0.85117  0.34006  1.0000
  N   N25       1.0  0.24956  0.85951  0.40699  1.0000
  C   C112      1.0  0.24973  0.88883  0.41490  1.0000
  C   C113      1.0  0.25689  0.92790  0.60572  1.0000
  C   C114      1.0  0.26399  0.96253  0.63704  1.0000
  H   H93       1.0  0.28064  0.92814  0.60017  1.0000
  H   H94       1.0  0.27963  0.98145  0.58746  1.0000
  O   O16       1.0  0.34007  0.75197  0.56739  1.0000
  C   C115      1.0  0.34724  0.76980  0.65161  1.0000
  H   H95       1.0  0.31151  0.78622  0.62562  1.0000
  C   C116      1.0  0.25351  0.59639  0.35772  1.0000
  C   C117      1.0  0.25405  0.65765  0.37693  1.0000
  N   N26       1.0  0.26215  0.64338  0.44555  1.0000
  C   C118      1.0  0.26093  0.61344  0.44233  1.0000
  C   C119      1.0  0.27426  0.60646  0.51688  1.0000
  O   O17       1.0  0.30458  0.62367  0.52335  1.0000
  O   O18       1.0  0.26204  0.57464  0.53993  1.0000
  C   C120      1.0  0.25148  0.56839  0.63290  1.0000
  H   H96       1.0  0.26094  0.52721  0.64445  1.0000
  C   C121      1.0  0.49454  0.24897  0.35605  1.0000
  C   C122      1.0  0.47443  0.21339  0.34979  1.0000
  C   C123      1.0  0.43993  0.19658  0.32823  1.0000
  H   H97       1.0  0.48451  0.19859  0.36260  1.0000
  H   H98       1.0  0.38601  0.21487  0.23933  1.0000
  N   N27       1.0  0.37681  0.27230  0.30047  1.0000
  C   C124      1.0  0.40731  0.27563  0.28405  1.0000
  H   H99       1.0  0.41534  0.27843  0.21834  1.0000
  N   N28       1.0  0.40978  0.13991  0.27620  1.0000
  C   C125      1.0  0.38167  0.10911  0.27312  1.0000
  H   H100      1.0  0.37598  0.09582  0.21399  1.0000
  H   H101      1.0  0.47267  0.20425  0.00354  1.0000
  C   C126      1.0  0.42482  0.21618  0.30836  1.0000
  C   C127      1.0  0.44153  0.25061  0.33215  1.0000
  C   C128      1.0  0.47556  0.26574  0.35757  1.0000
  N   N29       1.0  0.39485  0.20165  0.26451  1.0000
  H   H102      1.0  0.38710  0.18042  0.23476  1.0000
  H   H103      1.0  0.48636  0.29010  0.37722  1.0000
  C   C129      1.0  0.36096  0.26467  0.38224  1.0000
  C   C130      1.0  0.42259  0.26636  0.35206  1.0000
  N   N30       1.0  0.40659  0.25814  0.43325  1.0000
  C   C131      1.0  0.37814  0.25875  0.45386  1.0000
  C   C132      1.0  0.36493  0.24738  0.53921  1.0000
  O   O19       1.0  0.36187  0.22065  0.56279  1.0000
  H   H104      1.0  0.36893  0.29492  0.64485  1.0000
  C   C133      1.0  0.41875  0.16186  0.34672  1.0000
  C   C134      1.0  0.35756  0.09939  0.34265  1.0000
  N   N31       1.0  0.36586  0.12231  0.40989  1.0000
  C   C135      1.0  0.39505  0.15178  0.41858  1.0000
  C   C136      1.0  0.39926  0.17178  0.49314  1.0000
  O   O20       1.0  0.37482  0.16427  0.54064  1.0000
  O   O21       1.0  0.42802  0.18189  0.53721  1.0000
  C   C137      1.0  0.44121  0.21388  0.58079  1.0000
  C   C138      1.0  0.47529  0.22337  0.62224  1.0000
  H   H105      1.0  0.42456  0.21283  0.63500  1.0000
  H   H106      1.0  0.44459  0.23326  0.53250  1.0000
  H   H107      1.0  0.48524  0.24708  0.65795  1.0000
  H   H108      1.0  0.49280  0.22581  0.56917  1.0000
  C   C139      1.0  0.49454  0.74897  0.35604  1.0000
  C   C140      1.0  0.47443  0.71339  0.34979  1.0000
  C   C141      1.0  0.43993  0.69658  0.32823  1.0000
  H   H109      1.0  0.48451  0.69858  0.36259  1.0000
  H   H110      1.0  0.38600  0.71487  0.23935  1.0000
  N   N32       1.0  0.37681  0.77230  0.30048  1.0000
  C   C142      1.0  0.40731  0.77562  0.28405  1.0000
  H   H111      1.0  0.41534  0.77842  0.21834  1.0000
  N   N33       1.0  0.40977  0.63991  0.27621  1.0000
  C   C143      1.0  0.38167  0.60911  0.27313  1.0000
  H   H112      1.0  0.37598  0.59581  0.21401  1.0000
  H   H113      1.0  0.47266  0.70424  0.00356  1.0000
  C   C144      1.0  0.42481  0.71618  0.30837  1.0000
  C   C145      1.0  0.44153  0.75061  0.33215  1.0000
  C   C146      1.0  0.47556  0.76574  0.35756  1.0000
  N   N34       1.0  0.39485  0.70165  0.26452  1.0000
  H   H114      1.0  0.38710  0.68042  0.23477  1.0000
  H   H115      1.0  0.48636  0.79010  0.37721  1.0000
  C   C147      1.0  0.36096  0.76467  0.38226  1.0000
  C   C148      1.0  0.42259  0.76636  0.35207  1.0000
  N   N35       1.0  0.40659  0.75815  0.43325  1.0000
  C   C149      1.0  0.37815  0.75875  0.45386  1.0000
  C   C150      1.0  0.36494  0.74739  0.53924  1.0000
  O   O22       1.0  0.36189  0.72066  0.56284  1.0000
  H   H116      1.0  0.36891  0.79492  0.64490  1.0000
  C   C151      1.0  0.41875  0.66186  0.34673  1.0000
  C   C152      1.0  0.35755  0.59939  0.34266  1.0000
  N   N36       1.0  0.36586  0.62231  0.40990  1.0000
  C   C153      1.0  0.39505  0.65178  0.41858  1.0000
  C   C154      1.0  0.39926  0.67178  0.49314  1.0000
  O   O23       1.0  0.37482  0.66428  0.54062  1.0000
  O   O24       1.0  0.42802  0.68189  0.53722  1.0000
  C   C155      1.0  0.44121  0.71388  0.58079  1.0000
  C   C156      1.0  0.47529  0.72336  0.62225  1.0000
  H   H117      1.0  0.42457  0.71284  0.63500  1.0000
  H   H118      1.0  0.44459  0.73326  0.53250  1.0000
  H   H119      1.0  0.48524  0.74708  0.65795  1.0000
  H   H120      1.0  0.49280  0.72580  0.56918  1.0000
  C   C157      1.0  0.99454  0.24897  0.35605  1.0000
  C   C158      1.0  0.97443  0.21339  0.34979  1.0000
  C   C159      1.0  0.93993  0.19658  0.32823  1.0000
  H   H121      1.0  0.98451  0.19859  0.36260  1.0000
  C   C160      1.0  0.53062  0.26648  0.36527  1.0000
  C   C161      1.0  0.58524  0.32029  0.37664  1.0000
  C   C162      1.0  0.55010  0.30211  0.36760  1.0000
  H   H122      1.0  0.53890  0.31623  0.36211  1.0000
  H   H123      1.0  0.65005  0.34372  0.36597  1.0000
  H   H124      1.0  0.88601  0.21487  0.23933  1.0000
  C   C163      1.0  0.77135  0.24685  0.36307  1.0000
  C   C164      1.0  0.80703  0.26341  0.36739  1.0000
  C   C165      1.0  0.82545  0.24654  0.37580  1.0000
  H   H125      1.0  0.82077  0.28884  0.36712  1.0000
  C   C166      1.0  0.75274  0.26430  0.35440  1.0000
  C   C167      1.0  0.69782  0.26270  0.33757  1.0000
  C   C168      1.0  0.71703  0.24758  0.35986  1.0000
  H   H126      1.0  0.70385  0.22354  0.38245  1.0000
  H   H127      1.0  0.67671  0.29703  0.24369  1.0000
  H   H128      1.0  0.84884  0.20506  0.36078  1.0000
  C   C169      1.0  0.76996  0.02404  0.35042  1.0000
  C   C170      1.0  0.75336  0.04309  0.35490  1.0000
  C   C171      1.0  0.76899  0.07748  0.33423  1.0000
  H   H129      1.0  0.72872  0.03214  0.37151  1.0000
  C   C172      1.0  0.75179  0.48788  0.34957  1.0000
  C   C173      1.0  0.75007  0.43355  0.32335  1.0000
  C   C174      1.0  0.76767  0.46819  0.34327  1.0000
  H   H130      1.0  0.79273  0.47875  0.35430  1.0000
  H   H131      1.0  0.71344  0.37966  0.23343  1.0000
  H   H132      1.0  0.80428  0.13320  0.24273  1.0000
  N   N37       1.0  0.64065  0.23910  0.29577  1.0000
  C   C175      1.0  0.61032  0.23714  0.30294  1.0000
  H   H133      1.0  0.59693  0.23389  0.24487  1.0000
  H   H134      1.0  0.69480  0.26689  0.01551  1.0000
  H   H135      1.0  0.71403  0.22709  0.05387  1.0000
  N   N38       1.0  0.77699  0.40360  0.27378  1.0000
  C   C176      1.0  0.77944  0.37535  0.27103  1.0000
  H   H136      1.0  0.78703  0.36950  0.21213  1.0000
  H   H137      1.0  0.77690  0.46871  0.03547  1.0000
  N   N39       1.0  0.61142  0.36984  0.29456  1.0000
  C   C177      1.0  0.63882  0.39989  0.27632  1.0000
  H   H138      1.0  0.64477  0.40669  0.20996  1.0000
  C   C178      1.0  0.54543  0.31733  0.00637  1.0000
  H   H139      1.0  0.59699  0.35183  0.03694  1.0000
  H   H140      1.0  0.53628  0.32283  0.06840  1.0000
  H   H141      1.0  0.54759  0.29515  0.01735  1.0000
  N   N40       1.0  0.87681  0.27230  0.30047  1.0000
  C   C179      1.0  0.90731  0.27563  0.28405  1.0000
  H   H142      1.0  0.91534  0.27843  0.21834  1.0000
  C   C180      1.0  0.81667  0.27275  0.01132  1.0000
  H   H143      1.0  0.85204  0.25650  0.03895  1.0000
  H   H144      1.0  0.82135  0.28624  0.07519  1.0000
  H   H145      1.0  0.79483  0.24795  0.01931  1.0000
  N   N41       1.0  0.74560  0.11078  0.28865  1.0000
  C   C181      1.0  0.74360  0.13907  0.29573  1.0000
  H   H146      1.0  0.74091  0.14957  0.23756  1.0000
  H   H147      1.0  0.77193  0.08423  0.01237  1.0000
  H   H148      1.0  0.73172  0.02607  0.05756  1.0000
  N   N42       1.0  0.90977  0.13991  0.27620  1.0000
  C   C182      1.0  0.88167  0.10911  0.27312  1.0000
  H   H149      1.0  0.87598  0.09582  0.21399  1.0000
  H   H150      1.0  0.97267  0.20425  0.00354  1.0000
  C   C183      1.0  0.92482  0.21618  0.30836  1.0000
  C   C184      1.0  0.94154  0.25061  0.33215  1.0000
  C   C185      1.0  0.97556  0.26574  0.35757  1.0000
  N   N43       1.0  0.89485  0.20165  0.26451  1.0000
  C   C186      1.0  0.54988  0.25002  0.36812  1.0000
  C   C187      1.0  0.58518  0.26691  0.37742  1.0000
  C   C188      1.0  0.60317  0.30261  0.37835  1.0000
  N   N44       1.0  0.63731  0.31989  0.37203  1.0000
  H   H151      1.0  0.65007  0.30914  0.36013  1.0000
  H   H152      1.0  0.88710  0.18042  0.23476  1.0000
  H   H153      1.0  0.98636  0.29010  0.37722  1.0000
  H   H154      1.0  0.53823  0.22460  0.36565  1.0000
  C   C189      1.0  0.80786  0.21089  0.37572  1.0000
  C   C190      1.0  0.77221  0.19309  0.37377  1.0000
  C   C191      1.0  0.75520  0.21121  0.36418  1.0000
  N   N45       1.0  0.82509  0.19400  0.36908  1.0000
  C   C192      1.0  0.76826  0.29978  0.34471  1.0000
  C   C193      1.0  0.75028  0.31636  0.32461  1.0000
  C   C194      1.0  0.71521  0.29674  0.31036  1.0000
  N   N46       1.0  0.69913  0.31058  0.26650  1.0000
  H   H155      1.0  0.71216  0.33134  0.23416  1.0000
  H   H156      1.0  0.81434  0.17036  0.36025  1.0000
  H   H157      1.0  0.72990  0.19714  0.35766  1.0000
  H   H158      1.0  0.79340  0.31468  0.35286  1.0000
  C   C195      1.0  0.80337  0.09432  0.31070  1.0000
  C   C196      1.0  0.82269  0.07869  0.32719  1.0000
  C   C197      1.0  0.80559  0.04381  0.34397  1.0000
  N   N47       1.0  0.81762  0.12439  0.26759  1.0000
  C   C198      1.0  0.71610  0.46872  0.35230  1.0000
  C   C199      1.0  0.69748  0.43468  0.32746  1.0000
  C   C200      1.0  0.71528  0.41803  0.30402  1.0000
  N   N48       1.0  0.70002  0.38768  0.26224  1.0000
  H   H159      1.0  0.67757  0.37762  0.23913  1.0000
  H   H160      1.0  0.83908  0.13290  0.23858  1.0000
  H   H161      1.0  0.82008  0.03306  0.35173  1.0000
  H   H162      1.0  0.70229  0.47964  0.36774  1.0000
  C   C201      1.0  0.66363  0.24791  0.36358  1.0000
  C   C202      1.0  0.60275  0.24897  0.38264  1.0000
  N   N49       1.0  0.62586  0.25806  0.44988  1.0000
  C   C203      1.0  0.65458  0.25673  0.44704  1.0000
  C   C204      1.0  0.67547  0.27135  0.51997  1.0000
  O   O25       1.0  0.68790  0.30160  0.52659  1.0000
  O   O26       1.0  0.69620  0.26031  0.54189  1.0000
  C   C205      1.0  0.69124  0.24768  0.63285  1.0000
  C   C206      1.0  0.71711  0.23683  0.65175  1.0000
  H   H163      1.0  0.66616  0.22605  0.64121  1.0000
  H   H164      1.0  0.71395  0.21741  0.60411  1.0000
  H   H165      1.0  0.74229  0.25814  0.64461  1.0000
  C   C207      1.0  0.76385  0.41274  0.34362  1.0000
  C   C208      1.0  0.76416  0.35117  0.34006  1.0000
  N   N50       1.0  0.74955  0.35951  0.40700  1.0000
  C   C209      1.0  0.74973  0.38883  0.41490  1.0000
  C   C210      1.0  0.73236  0.39082  0.48825  1.0000
  O   O27       1.0  0.70248  0.37081  0.48923  1.0000
  O   O28       1.0  0.74020  0.42090  0.51970  1.0000
  C   C211      1.0  0.75689  0.42789  0.60574  1.0000
  C   C212      1.0  0.76399  0.46252  0.63706  1.0000
  H   H166      1.0  0.78064  0.42814  0.60019  1.0000
  H   H167      1.0  0.74126  0.40945  0.65679  1.0000
  H   H168      1.0  0.77963  0.48144  0.58749  1.0000
  H   H169      1.0  0.74057  0.46263  0.64463  1.0000
  C   C213      1.0  0.60237  0.35580  0.37841  1.0000
  C   C214      1.0  0.66268  0.41611  0.34540  1.0000
  N   N51       1.0  0.65396  0.40208  0.42906  1.0000
  C   C215      1.0  0.62454  0.37419  0.45049  1.0000
  C   C216      1.0  0.62083  0.36290  0.53887  1.0000
  O   O29       1.0  0.64397  0.36082  0.57175  1.0000
  O   O30       1.0  0.59076  0.33883  0.56590  1.0000
  C   C217      1.0  0.57963  0.34711  0.64761  1.0000
  H   H170      1.0  0.57702  0.36917  0.63765  1.0000
  H   H171      1.0  0.52749  0.31231  0.61876  1.0000
  C   C218      1.0  0.86096  0.26467  0.38224  1.0000
  C   C219      1.0  0.92259  0.26636  0.35206  1.0000
  N   N52       1.0  0.90659  0.25814  0.43325  1.0000
  C   C220      1.0  0.87814  0.25875  0.45386  1.0000
  C   C221      1.0  0.86493  0.24738  0.53921  1.0000
  O   O31       1.0  0.86187  0.22065  0.56279  1.0000
  O   O32       1.0  0.84007  0.25196  0.56738  1.0000
  C   C222      1.0  0.84725  0.26980  0.65159  1.0000
  H   H172      1.0  0.86892  0.29492  0.64485  1.0000
  H   H173      1.0  0.81152  0.28623  0.62561  1.0000
  C   C223      1.0  0.75351  0.09639  0.35770  1.0000
  C   C224      1.0  0.75405  0.15765  0.37689  1.0000
  N   N53       1.0  0.76214  0.14339  0.44551  1.0000
  C   C225      1.0  0.76094  0.11345  0.44229  1.0000
  C   C226      1.0  0.77426  0.10646  0.51685  1.0000
  O   O33       1.0  0.80458  0.12369  0.52332  1.0000
  O   O34       1.0  0.76206  0.07465  0.53990  1.0000
  C   C227      1.0  0.75150  0.06840  0.63287  1.0000
  C   C228      1.0  0.74017  0.03173  0.65412  1.0000
  H   H174      1.0  0.73056  0.07271  0.64447  1.0000
  H   H175      1.0  0.71971  0.01523  0.60942  1.0000
  H   H176      1.0  0.76097  0.02723  0.64442  1.0000
  C   C229      1.0  0.91875  0.16186  0.34672  1.0000
  C   C230      1.0  0.85756  0.09939  0.34265  1.0000
  N   N54       1.0  0.86586  0.12231  0.40989  1.0000
  C   C231      1.0  0.89505  0.15178  0.41858  1.0000
  C   C232      1.0  0.89926  0.17178  0.49314  1.0000
  O   O35       1.0  0.87482  0.16427  0.54064  1.0000
  O   O36       1.0  0.92802  0.18189  0.53721  1.0000
  C   C233      1.0  0.94121  0.21388  0.58079  1.0000
  C   C234      1.0  0.97529  0.22337  0.62224  1.0000
  H   H177      1.0  0.92456  0.21283  0.63500  1.0000
  H   H178      1.0  0.94459  0.23326  0.53250  1.0000
  H   H179      1.0  0.98524  0.24708  0.65795  1.0000
  H   H180      1.0  0.99280  0.22581  0.56917  1.0000
  C   C235      1.0  0.99454  0.74897  0.35604  1.0000
  C   C236      1.0  0.97443  0.71339  0.34979  1.0000
  C   C237      1.0  0.93993  0.69658  0.32823  1.0000
  H   H181      1.0  0.98451  0.69858  0.36259  1.0000
  C   C238      1.0  0.53063  0.76648  0.36527  1.0000
  C   C239      1.0  0.58524  0.82029  0.37663  1.0000
  C   C240      1.0  0.55010  0.80211  0.36760  1.0000
  H   H182      1.0  0.53890  0.81623  0.36209  1.0000
  H   H183      1.0  0.65005  0.84371  0.36597  1.0000
  H   H184      1.0  0.88600  0.71487  0.23935  1.0000
  C   C241      1.0  0.77135  0.74685  0.36308  1.0000
  C   C242      1.0  0.80703  0.76341  0.36741  1.0000
  C   C243      1.0  0.82545  0.74654  0.37582  1.0000
  H   H185      1.0  0.82077  0.78884  0.36712  1.0000
  C   C244      1.0  0.75274  0.76430  0.35441  1.0000
  C   C245      1.0  0.69782  0.76270  0.33756  1.0000
  C   C246      1.0  0.71703  0.74758  0.35986  1.0000
  H   H186      1.0  0.70385  0.72354  0.38245  1.0000
  H   H187      1.0  0.67671  0.79703  0.24368  1.0000
  H   H188      1.0  0.84885  0.70506  0.36082  1.0000
  C   C247      1.0  0.76996  0.52404  0.35044  1.0000
  C   C248      1.0  0.75336  0.54309  0.35492  1.0000
  C   C249      1.0  0.76899  0.57748  0.33426  1.0000
  H   H189      1.0  0.72872  0.53214  0.37153  1.0000
  C   C250      1.0  0.75179  0.98788  0.34956  1.0000
  C   C251      1.0  0.75007  0.93355  0.32334  1.0000
  C   C252      1.0  0.76767  0.96818  0.34325  1.0000
  H   H190      1.0  0.79273  0.97875  0.35429  1.0000
  H   H191      1.0  0.71344  0.87966  0.23343  1.0000
  H   H192      1.0  0.80428  0.63321  0.24277  1.0000
  N   N55       1.0  0.64065  0.73910  0.29575  1.0000
  C   C253      1.0  0.61032  0.73715  0.30293  1.0000
  H   H193      1.0  0.59693  0.73389  0.24485  1.0000
  H   H194      1.0  0.69480  0.76691  0.01552  1.0000
  H   H195      1.0  0.71400  0.72708  0.05395  1.0000
  N   N56       1.0  0.77699  0.90360  0.27377  1.0000
  C   C254      1.0  0.77944  0.87535  0.27102  1.0000
  H   H196      1.0  0.78703  0.86950  0.21213  1.0000
  H   H197      1.0  0.77690  0.96871  0.03544  1.0000
  N   N57       1.0  0.61142  0.86984  0.29455  1.0000
  C   C255      1.0  0.63882  0.89989  0.27631  1.0000
  H   H198      1.0  0.64477  0.90669  0.20995  1.0000
  C   C256      1.0  0.54543  0.81734  0.00636  1.0000
  H   H199      1.0  0.59699  0.85183  0.03693  1.0000
  H   H200      1.0  0.53628  0.82283  0.06840  1.0000
  H   H201      1.0  0.54759  0.79515  0.01733  1.0000
  N   N58       1.0  0.87681  0.77230  0.30048  1.0000
  C   C257      1.0  0.90731  0.77562  0.28405  1.0000
  H   H202      1.0  0.91534  0.77842  0.21834  1.0000
  C   C258      1.0  0.81666  0.77274  0.01133  1.0000
  H   H203      1.0  0.85203  0.75649  0.03897  1.0000
  H   H204      1.0  0.82134  0.78623  0.07521  1.0000
  H   H205      1.0  0.79482  0.74793  0.01930  1.0000
  N   N59       1.0  0.74560  0.61078  0.28868  1.0000
  C   C259      1.0  0.74359  0.63908  0.29576  1.0000
  H   H206      1.0  0.74091  0.64957  0.23759  1.0000
  H   H207      1.0  0.77191  0.58422  0.01241  1.0000
  H   H208      1.0  0.73169  0.52606  0.05758  1.0000
  N   N60       1.0  0.90977  0.63991  0.27621  1.0000
  C   C260      1.0  0.88167  0.60911  0.27313  1.0000
  H   H209      1.0  0.87598  0.59581  0.21401  1.0000
  H   H210      1.0  0.97266  0.70424  0.00356  1.0000
  C   C261      1.0  0.92481  0.71618  0.30837  1.0000
  C   C262      1.0  0.94153  0.75061  0.33215  1.0000
  C   C263      1.0  0.97556  0.76574  0.35756  1.0000
  N   N61       1.0  0.89485  0.70165  0.26452  1.0000
  C   C264      1.0  0.54988  0.75002  0.36810  1.0000
  C   C265      1.0  0.58518  0.76691  0.37741  1.0000
  C   C266      1.0  0.60317  0.80260  0.37833  1.0000
  N   N62       1.0  0.63731  0.81988  0.37202  1.0000
  H   H211      1.0  0.65007  0.80913  0.36012  1.0000
  H   H212      1.0  0.88709  0.68042  0.23477  1.0000
  H   H213      1.0  0.98636  0.79010  0.37721  1.0000
  H   H214      1.0  0.53823  0.72460  0.36564  1.0000
  C   C267      1.0  0.80786  0.71089  0.37576  1.0000
  C   C268      1.0  0.77222  0.69309  0.37381  1.0000
  C   C269      1.0  0.75520  0.71121  0.36421  1.0000
  N   N63       1.0  0.82509  0.69400  0.36912  1.0000
  C   C270      1.0  0.76826  0.79978  0.34472  1.0000
  C   C271      1.0  0.75028  0.81636  0.32460  1.0000
  C   C272      1.0  0.71521  0.79674  0.31035  1.0000
  N   N64       1.0  0.69913  0.81057  0.26648  1.0000
  H   H215      1.0  0.71216  0.83134  0.23414  1.0000
  H   H216      1.0  0.81434  0.67036  0.36032  1.0000
  H   H217      1.0  0.72990  0.69714  0.35768  1.0000
  H   H218      1.0  0.79340  0.81468  0.35287  1.0000
  C   C273      1.0  0.80337  0.59432  0.31073  1.0000
  C   C274      1.0  0.82269  0.57869  0.32720  1.0000
  C   C275      1.0  0.80559  0.54381  0.34398  1.0000
  N   N65       1.0  0.81762  0.62440  0.26762  1.0000
  C   C276      1.0  0.71610  0.96872  0.35228  1.0000
  C   C277      1.0  0.69748  0.93468  0.32745  1.0000
  C   C278      1.0  0.71528  0.91802  0.30401  1.0000
  N   N66       1.0  0.70002  0.88767  0.26223  1.0000
  H   H219      1.0  0.67757  0.87762  0.23912  1.0000
  H   H220      1.0  0.83907  0.63290  0.23861  1.0000
  H   H221      1.0  0.82008  0.53306  0.35173  1.0000
  H   H222      1.0  0.70229  0.97964  0.36772  1.0000
  C   C279      1.0  0.66363  0.74791  0.36358  1.0000
  C   C280      1.0  0.60275  0.74897  0.38262  1.0000
  N   N67       1.0  0.62586  0.75806  0.44986  1.0000
  C   C281      1.0  0.65458  0.75673  0.44702  1.0000
  C   C282      1.0  0.67547  0.77135  0.51996  1.0000
  O   O37       1.0  0.68790  0.80160  0.52656  1.0000
  O   O38       1.0  0.69619  0.76029  0.54190  1.0000
  C   C283      1.0  0.69122  0.74768  0.63288  1.0000
  C   C284      1.0  0.71708  0.73682  0.65182  1.0000
  H   H223      1.0  0.66614  0.72607  0.64127  1.0000
  H   H224      1.0  0.71390  0.71738  0.60420  1.0000
  H   H225      1.0  0.74226  0.75812  0.64465  1.0000
  C   C285      1.0  0.76385  0.91274  0.34362  1.0000
  C   C286      1.0  0.76416  0.85117  0.34006  1.0000
  N   N68       1.0  0.74956  0.85951  0.40699  1.0000
  C   C287      1.0  0.74973  0.88883  0.41490  1.0000
  C   C288      1.0  0.73236  0.89082  0.48825  1.0000
  O   O39       1.0  0.70248  0.87080  0.48923  1.0000
  O   O40       1.0  0.74020  0.92090  0.51968  1.0000
  C   C289      1.0  0.75689  0.92790  0.60572  1.0000
  C   C290      1.0  0.76399  0.96253  0.63704  1.0000
  H   H226      1.0  0.78064  0.92814  0.60017  1.0000
  H   H227      1.0  0.74127  0.90946  0.65678  1.0000
  H   H228      1.0  0.77963  0.98145  0.58746  1.0000
  H   H229      1.0  0.74057  0.96263  0.64460  1.0000
  C   C291      1.0  0.60238  0.85580  0.37839  1.0000
  C   C292      1.0  0.66268  0.91610  0.34538  1.0000
  N   N69       1.0  0.65396  0.90208  0.42905  1.0000
  C   C293      1.0  0.62454  0.87419  0.45047  1.0000
  C   C294      1.0  0.62083  0.86289  0.53886  1.0000
  O   O41       1.0  0.64397  0.86082  0.57173  1.0000
  O   O42       1.0  0.59076  0.83883  0.56589  1.0000
  C   C295      1.0  0.57963  0.84711  0.64761  1.0000
  H   H230      1.0  0.57703  0.86917  0.63765  1.0000
  H   H231      1.0  0.52749  0.81232  0.61876  1.0000
  C   C296      1.0  0.86096  0.76467  0.38226  1.0000
  C   C297      1.0  0.92259  0.76636  0.35207  1.0000
  N   N70       1.0  0.90659  0.75815  0.43325  1.0000
  C   C298      1.0  0.87815  0.75875  0.45386  1.0000
  C   C299      1.0  0.86494  0.74739  0.53924  1.0000
  O   O43       1.0  0.86189  0.72066  0.56284  1.0000
  O   O44       1.0  0.84007  0.75197  0.56739  1.0000
  C   C300      1.0  0.84723  0.76980  0.65161  1.0000
  H   H232      1.0  0.86891  0.79492  0.64490  1.0000
  H   H233      1.0  0.81151  0.78622  0.62562  1.0000
  C   C301      1.0  0.75351  0.59639  0.35772  1.0000
  C   C302      1.0  0.75405  0.65765  0.37693  1.0000
  N   N71       1.0  0.76214  0.64338  0.44555  1.0000
  C   C303      1.0  0.76094  0.61344  0.44233  1.0000
  C   C304      1.0  0.77426  0.60646  0.51688  1.0000
  O   O45       1.0  0.80458  0.62367  0.52335  1.0000
  O   O46       1.0  0.76205  0.57464  0.53993  1.0000
  C   C305      1.0  0.75148  0.56839  0.63290  1.0000
  C   C306      1.0  0.74015  0.53172  0.65414  1.0000
  H   H234      1.0  0.73054  0.57271  0.64449  1.0000
  H   H235      1.0  0.71968  0.51522  0.60944  1.0000
  H   H236      1.0  0.76094  0.52721  0.64445  1.0000
  C   C307      1.0  0.91875  0.66186  0.34673  1.0000
  C   C308      1.0  0.85755  0.59939  0.34266  1.0000
  N   N72       1.0  0.86586  0.62231  0.40990  1.0000
  C   C309      1.0  0.89505  0.65178  0.41858  1.0000
  C   C310      1.0  0.89926  0.67178  0.49314  1.0000
  O   O47       1.0  0.87482  0.66428  0.54062  1.0000
  O   O48       1.0  0.92802  0.68189  0.53722  1.0000
  C   C311      1.0  0.94121  0.71388  0.58079  1.0000
  C   C312      1.0  0.97529  0.72336  0.62225  1.0000
  H   H237      1.0  0.92457  0.71284  0.63500  1.0000
  H   H238      1.0  0.94459  0.73326  0.53250  1.0000
  H   H239      1.0  0.98524  0.74708  0.65795  1.0000
  H   H240      1.0  0.99280  0.72580  0.56918  1.0000
