data_image0
_chemical_formula_structural       C4HCNHCH3C4HCNHCH3C4HCNHCH3C4HCNHCH3CNC4H2CH3CNC4H2CH3CNC4H2CH3CNC4H2CH3CNC4H2CH3CNC4H2CH3CNC4H2CH3CNC4H2CH3C4HCNHCH3C4HCNHCH3C4HCNHCH3C4HCNHCH3CNC4H2CH3CNC4H2CH3CNC4H2CH3CNC4H2CH3C4HCNHCH3C4HCNHCH3C4HCNHCH3C4HCNHCH3CNC4H2CH3CNC4H2CH3C4HCNHCH3C4HCNHCH3C4HCNHCH3C4HCNHCH3CNC4H2CH3CNC4H2CH3CNC4H2CH3CNC4H2CH3CNC4H2CH3CNC4H2CH3CNC4H2CH3CNC4H2CH3C4HCNHCH3C4HCNHCH3C4HCNHCH3C4HCNHCH3CNCNCNCNCNCNCNCNCNCNCNCNCNCNCNCNCNCNCNCNCNCNCNCNCNCNCNCNCNCNCNCNCNCNCNCNCNCNCNCNCNCNCNCNCNCNCNCNCNCNCNCNCNCNCNCNCNCNCNCNCNCNCNCNCNCNCNCNCNCNCNCNCNCNCNCNCNCNCNCNCNCNCNCNCNC4H2CH3CNC4H2CH3CNC4H2CH3CNC4H2CH3C4HCNHCH3C4HCNHCH3C4HCNHCH3C4HCNHCH3C4HCNHCH3C4HCNHCH3C4HCNHCH3C4HCNHCH3CNC4H2CH3CNC4H2CH3CNC4H2CH3CNC4H2CH3C4HCNHCH3C4HCNHCH3C4HCNHCH3C4HCNHCH3CNC4H2CH3CNC4H2CH3CNC4H2CH3CNC4H2CH3C4HCNHCH3C4HCNHCH3CNC4H2CH3CNC4H2CH3CNC4H2CH3CNC4H2CH3C4HCNHCH3C4HCNHCH3C4HCNHCH3C4HCNHCH3C4HCNHCH3C4HCNHCH3C4HCNHCH3C4HCNHCH3CNC4H2CH3CNC4H2CH3CNC4H2CH3CNC4H2CH3
_chemical_formula_sum              "C588 H420 N168"
_cell_length_a       77.5884
_cell_length_b       77.5884
_cell_length_c       14.8119
_cell_angle_alpha    90
_cell_angle_beta     90
_cell_angle_gamma    90

_space_group_name_H-M_alt    "P 1"
_space_group_IT_number       1

loop_
  _space_group_symop_operation_xyz
  'x, y, z'

loop_
  _atom_site_type_symbol
  _atom_site_label
  _atom_site_symmetry_multiplicity
  _atom_site_fract_x
  _atom_site_fract_y
  _atom_site_fract_z
  _atom_site_occupancy
  C   C1        1.0  0.11459  0.10794  0.34075  1.0000
  C   C2        1.0  0.13939  0.13473  0.34188  1.0000
  C   C3        1.0  0.14498  0.11741  0.35415  1.0000
  C   C4        1.0  0.13231  0.10430  0.35320  1.0000
  H   H1        1.0  0.13613  0.09184  0.36367  1.0000
  C   C5        1.0  0.17734  0.16049  0.28841  1.0000
  N   N1        1.0  0.16509  0.14814  0.29264  1.0000
  H   H2        1.0  0.18792  0.15837  0.24878  1.0000
  C   C6        1.0  0.16327  0.11269  0.37202  1.0000
  H   H3        1.0  0.17105  0.11509  0.31206  1.0000
  H   H4        1.0  0.16483  0.09910  0.38969  1.0000
  H   H5        1.0  0.16828  0.12031  0.42810  1.0000
  C   C7        1.0  0.89810  0.90481  0.34074  1.0000
  C   C8        1.0  0.87332  0.87800  0.34192  1.0000
  C   C9        1.0  0.86771  0.89532  0.35429  1.0000
  C   C10       1.0  0.88038  0.90843  0.35332  1.0000
  H   H6        1.0  0.87656  0.92090  0.36385  1.0000
  C   C11       1.0  0.83536  0.85225  0.28855  1.0000
  N   N2        1.0  0.84760  0.86460  0.29279  1.0000
  H   H7        1.0  0.82476  0.85437  0.24904  1.0000
  C   C12       1.0  0.84943  0.90004  0.37228  1.0000
  H   H8        1.0  0.84164  0.89764  0.31235  1.0000
  H   H9        1.0  0.84787  0.91361  0.39004  1.0000
  H   H10       1.0  0.84443  0.89240  0.42835  1.0000
  C   C13       1.0  0.90477  0.11465  0.34147  1.0000
  C   C14       1.0  0.87799  0.13946  0.34265  1.0000
  C   C15       1.0  0.89532  0.14504  0.35497  1.0000
  C   C16       1.0  0.90841  0.13237  0.35400  1.0000
  H   H11       1.0  0.92088  0.13618  0.36445  1.0000
  C   C17       1.0  0.85230  0.17744  0.28875  1.0000
  N   N3        1.0  0.86464  0.16519  0.29327  1.0000
  H   H12       1.0  0.85445  0.18802  0.24915  1.0000
  C   C18       1.0  0.90006  0.16333  0.37288  1.0000
  H   H13       1.0  0.89768  0.17111  0.31288  1.0000
  H   H14       1.0  0.91363  0.16487  0.39067  1.0000
  H   H15       1.0  0.89242  0.16835  0.42889  1.0000
  C   C19       1.0  0.10790  0.89816  0.34025  1.0000
  C   C20       1.0  0.13473  0.87340  0.34151  1.0000
  C   C21       1.0  0.11741  0.86778  0.35381  1.0000
  C   C22       1.0  0.10429  0.88043  0.35279  1.0000
  H   H16       1.0  0.09183  0.87661  0.36331  1.0000
  C   C23       1.0  0.16054  0.83545  0.28886  1.0000
  N   N4        1.0  0.14818  0.84769  0.29271  1.0000
  H   H17       1.0  0.15845  0.82484  0.24941  1.0000
  C   C24       1.0  0.11271  0.84949  0.37182  1.0000
  H   H18       1.0  0.11514  0.84170  0.31192  1.0000
  H   H19       1.0  0.09913  0.84792  0.38946  1.0000
  H   H20       1.0  0.12034  0.84451  0.42796  1.0000
  C   C25       1.0  0.10542  0.96501  0.33662  1.0000
  N   N5        1.0  0.10794  0.98230  0.33699  1.0000
  C   C26       1.0  0.09961  0.01152  0.35564  1.0000
  C   C27       1.0  0.09996  0.02002  0.27055  1.0000
  C   C28       1.0  0.09985  0.03825  0.27047  1.0000
  C   C29       1.0  0.09950  0.04763  0.35202  1.0000
  H   H21       1.0  0.09891  0.04478  0.21051  1.0000
  H   H22       1.0  0.11508  0.95732  0.31272  1.0000
  C   C30       1.0  0.09900  0.01043  0.18375  1.0000
  H   H23       1.0  0.08726  0.00269  0.18169  1.0000
  H   H24       1.0  0.11014  0.00192  0.17751  1.0000
  H   H25       1.0  0.09892  0.01898  0.12520  1.0000
  C   C31       1.0  0.90724  0.04776  0.33699  1.0000
  N   N6        1.0  0.90472  0.03047  0.33729  1.0000
  C   C32       1.0  0.91307  0.00124  0.35576  1.0000
  C   C33       1.0  0.91267  0.99275  0.27068  1.0000
  C   C34       1.0  0.91277  0.97451  0.27057  1.0000
  C   C35       1.0  0.91317  0.96513  0.35209  1.0000
  H   H26       1.0  0.91367  0.96799  0.21060  1.0000
  H   H27       1.0  0.89757  0.05546  0.31326  1.0000
  C   C36       1.0  0.91357  0.00234  0.18387  1.0000
  H   H28       1.0  0.92531  0.01007  0.18161  1.0000
  H   H29       1.0  0.90243  0.01086  0.17783  1.0000
  H   H30       1.0  0.91361  0.99380  0.12531  1.0000
  C   C37       1.0  0.04772  0.10547  0.33672  1.0000
  N   N7        1.0  0.03043  0.10800  0.33696  1.0000
  C   C38       1.0  0.00121  0.09966  0.35557  1.0000
  C   C39       1.0  0.99273  0.09989  0.27044  1.0000
  C   C40       1.0  0.97449  0.09978  0.27030  1.0000
  C   C41       1.0  0.96509  0.09957  0.35179  1.0000
  H   H31       1.0  0.96798  0.09876  0.21035  1.0000
  H   H32       1.0  0.05542  0.11512  0.31268  1.0000
  C   C42       1.0  0.00233  0.09882  0.18372  1.0000
  H   H33       1.0  0.01006  0.08707  0.18211  1.0000
  H   H34       1.0  0.01085  0.10994  0.17712  1.0000
  H   H35       1.0  0.99379  0.09866  0.12514  1.0000
  C   C43       1.0  0.96496  0.90727  0.33684  1.0000
  N   N8        1.0  0.98225  0.90474  0.33710  1.0000
  C   C44       1.0  0.01148  0.91308  0.35560  1.0000
  C   C45       1.0  0.01995  0.91274  0.27046  1.0000
  C   C46       1.0  0.03819  0.91285  0.27027  1.0000
  C   C47       1.0  0.04758  0.91320  0.35177  1.0000
  H   H36       1.0  0.04470  0.91380  0.21029  1.0000
  H   H37       1.0  0.95726  0.89761  0.31296  1.0000
  C   C48       1.0  0.01034  0.91370  0.18372  1.0000
  H   H38       1.0  0.00261  0.92544  0.18172  1.0000
  H   H39       1.0  0.00183  0.90256  0.17751  1.0000
  H   H40       1.0  0.01888  0.91378  0.12512  1.0000
  C   C49       1.0  0.15146  0.30883  0.31547  1.0000
  N   N9        1.0  0.15735  0.29232  0.31257  1.0000
  C   C50       1.0  0.17723  0.26962  0.34456  1.0000
  C   C51       1.0  0.19005  0.26499  0.28036  1.0000
  C   C52       1.0  0.19658  0.24794  0.28299  1.0000
  C   C53       1.0  0.19037  0.23574  0.34583  1.0000
  H   H41       1.0  0.20567  0.24421  0.23678  1.0000
  H   H42       1.0  0.14116  0.31213  0.27611  1.0000
  C   C54       1.0  0.19634  0.27738  0.21126  1.0000
  H   H43       1.0  0.20231  0.28849  0.24396  1.0000
  H   H44       1.0  0.18553  0.28184  0.17030  1.0000
  H   H45       1.0  0.20586  0.27165  0.16603  1.0000
  C   C55       1.0  0.86116  0.70385  0.31287  1.0000
  N   N10       1.0  0.85529  0.72037  0.31024  1.0000
  C   C56       1.0  0.83546  0.74308  0.34285  1.0000
  C   C57       1.0  0.82259  0.74776  0.27904  1.0000
  C   C58       1.0  0.81607  0.76481  0.28209  1.0000
  C   C59       1.0  0.82235  0.77698  0.34496  1.0000
  H   H46       1.0  0.80694  0.76858  0.23617  1.0000
  H   H47       1.0  0.87144  0.70056  0.27332  1.0000
  C   C60       1.0  0.81622  0.73541  0.20991  1.0000
  H   H48       1.0  0.81026  0.72429  0.24260  1.0000
  H   H49       1.0  0.82698  0.73096  0.16863  1.0000
  H   H50       1.0  0.80667  0.74117  0.16500  1.0000
  C   C61       1.0  0.70379  0.15159  0.31121  1.0000
  N   N11       1.0  0.72029  0.15748  0.30833  1.0000
  C   C62       1.0  0.74302  0.17729  0.34103  1.0000
  C   C63       1.0  0.74765  0.19027  0.27774  1.0000
  C   C64       1.0  0.76471  0.19677  0.28061  1.0000
  C   C65       1.0  0.77694  0.19035  0.34277  1.0000
  H   H51       1.0  0.76843  0.20598  0.23508  1.0000
  H   H52       1.0  0.70047  0.14136  0.27141  1.0000
  C   C66       1.0  0.73523  0.19678  0.20929  1.0000
  H   H53       1.0  0.72415  0.20269  0.24258  1.0000
  H   H54       1.0  0.73073  0.18609  0.16760  1.0000
  H   H55       1.0  0.74095  0.20640  0.16469  1.0000
  C   C67       1.0  0.30878  0.86133  0.31746  1.0000
  N   N12       1.0  0.29226  0.85549  0.31482  1.0000
  C   C68       1.0  0.26956  0.83558  0.34632  1.0000
  C   C69       1.0  0.26483  0.82299  0.28107  1.0000
  C   C70       1.0  0.24779  0.81642  0.28386  1.0000
  C   C71       1.0  0.23570  0.82239  0.34793  1.0000
  H   H56       1.0  0.24399  0.80750  0.23693  1.0000
  H   H57       1.0  0.31206  0.87171  0.27863  1.0000
  C   C72       1.0  0.27712  0.81696  0.21081  1.0000
  H   H58       1.0  0.28828  0.81088  0.24244  1.0000
  H   H59       1.0  0.28149  0.82792  0.17072  1.0000
  H   H60       1.0  0.27132  0.80760  0.16492  1.0000
  C   C73       1.0  0.84872  0.32141  0.31456  1.0000
  C   C74       1.0  0.83930  0.28617  0.31636  1.0000
  C   C75       1.0  0.82848  0.29811  0.27092  1.0000
  C   C76       1.0  0.83350  0.31561  0.27114  1.0000
  H   H61       1.0  0.82560  0.32442  0.24046  1.0000
  C   C77       1.0  0.83088  0.24156  0.25335  1.0000
  N   N13       1.0  0.83669  0.25804  0.25591  1.0000
  H   H62       1.0  0.83327  0.23430  0.19714  1.0000
  C   C78       1.0  0.81197  0.29286  0.22769  1.0000
  H   H63       1.0  0.80345  0.28709  0.27796  1.0000
  H   H64       1.0  0.81451  0.28341  0.17469  1.0000
  H   H65       1.0  0.80517  0.30369  0.19709  1.0000
  C   C79       1.0  0.16378  0.69140  0.31969  1.0000
  C   C80       1.0  0.17340  0.72656  0.32264  1.0000
  C   C81       1.0  0.18389  0.71471  0.27463  1.0000
  C   C82       1.0  0.17880  0.69722  0.27444  1.0000
  H   H66       1.0  0.18648  0.68845  0.24204  1.0000
  C   C83       1.0  0.17988  0.77170  0.26448  1.0000
  N   N14       1.0  0.17425  0.75516  0.26735  1.0000
  H   H67       1.0  0.17605  0.77935  0.21201  1.0000
  C   C84       1.0  0.20006  0.72004  0.22827  1.0000
  H   H68       1.0  0.20907  0.72549  0.27714  1.0000
  H   H69       1.0  0.19714  0.72976  0.17721  1.0000
  H   H70       1.0  0.20649  0.70931  0.19466  1.0000
  C   C85       1.0  0.32135  0.16386  0.31550  1.0000
  C   C86       1.0  0.28615  0.17337  0.31836  1.0000
  C   C87       1.0  0.29803  0.18404  0.27161  1.0000
  C   C88       1.0  0.31552  0.17899  0.27139  1.0000
  H   H71       1.0  0.32430  0.18680  0.23985  1.0000
  C   C89       1.0  0.24121  0.18065  0.25852  1.0000
  N   N15       1.0  0.25772  0.17494  0.26109  1.0000
  H   H72       1.0  0.23368  0.17741  0.20444  1.0000
  C   C90       1.0  0.29271  0.20039  0.22698  1.0000
  H   H73       1.0  0.28714  0.20916  0.27672  1.0000
  H   H74       1.0  0.28308  0.19768  0.17514  1.0000
  H   H75       1.0  0.30347  0.20701  0.19466  1.0000
  C   C91       1.0  0.69134  0.84882  0.31881  1.0000
  C   C92       1.0  0.72655  0.83935  0.32067  1.0000
  C   C93       1.0  0.71464  0.82867  0.27417  1.0000
  C   C94       1.0  0.69715  0.83370  0.27442  1.0000
  H   H76       1.0  0.68835  0.82590  0.24302  1.0000
  C   C95       1.0  0.77142  0.83202  0.25940  1.0000
  N   N16       1.0  0.75491  0.83774  0.26243  1.0000
  H   H77       1.0  0.77888  0.83521  0.20499  1.0000
  C   C96       1.0  0.71993  0.81233  0.22935  1.0000
  H   H78       1.0  0.72557  0.80357  0.27891  1.0000
  H   H79       1.0  0.72951  0.81506  0.17723  1.0000
  H   H80       1.0  0.70915  0.80570  0.19734  1.0000
  C   C97       1.0  0.36204  0.11116  0.34724  1.0000
  N   N17       1.0  0.36946  0.09531  0.34718  1.0000
  C   C98       1.0  0.39214  0.07413  0.34251  1.0000
  C   C99       1.0  0.38323  0.05988  0.30239  1.0000
  C   C100      1.0  0.39066  0.04310  0.30786  1.0000
  C   C101      1.0  0.40669  0.03999  0.35032  1.0000
  H   H81       1.0  0.38458  0.03296  0.27716  1.0000
  H   H82       1.0  0.34891  0.11178  0.35073  1.0000
  C   C102      1.0  0.36694  0.06206  0.25062  1.0000
  H   H83       1.0  0.36857  0.07199  0.19922  1.0000
  H   H84       1.0  0.35653  0.06576  0.29619  1.0000
  H   H85       1.0  0.36292  0.05026  0.21625  1.0000
  C   C103      1.0  0.65068  0.90150  0.35365  1.0000
  N   N18       1.0  0.64329  0.91736  0.35368  1.0000
  C   C104      1.0  0.62067  0.93861  0.34732  1.0000
  C   C105      1.0  0.62980  0.95293  0.30943  1.0000
  C   C106      1.0  0.62232  0.96970  0.31451  1.0000
  C   C107      1.0  0.60606  0.97274  0.35467  1.0000
  H   H86       1.0  0.62857  0.97989  0.28523  1.0000
  H   H87       1.0  0.66380  0.90085  0.35879  1.0000
  C   C108      1.0  0.64641  0.95087  0.26035  1.0000
  H   H88       1.0  0.64510  0.94106  0.20808  1.0000
  H   H89       1.0  0.65651  0.94707  0.30745  1.0000
  H   H90       1.0  0.65063  0.96275  0.22743  1.0000
  C   C109      1.0  0.90147  0.36206  0.34669  1.0000
  N   N19       1.0  0.91732  0.36946  0.34670  1.0000
  C   C110      1.0  0.93852  0.39215  0.34227  1.0000
  C   C111      1.0  0.95277  0.38323  0.30218  1.0000
  C   C112      1.0  0.96956  0.39066  0.30767  1.0000
  C   C113      1.0  0.97266  0.40670  0.35008  1.0000
  H   H91       1.0  0.97970  0.38458  0.27698  1.0000
  H   H92       1.0  0.90085  0.34892  0.35003  1.0000
  C   C114      1.0  0.95060  0.36694  0.25045  1.0000
  H   H93       1.0  0.94067  0.36856  0.19900  1.0000
  H   H94       1.0  0.94690  0.35654  0.29602  1.0000
  H   H95       1.0  0.96241  0.36292  0.21613  1.0000
  C   C115      1.0  0.11115  0.65070  0.35432  1.0000
  N   N20       1.0  0.09529  0.64330  0.35425  1.0000
  C   C116      1.0  0.07406  0.62067  0.34760  1.0000
  C   C117      1.0  0.05973  0.62981  0.30976  1.0000
  C   C118      1.0  0.04296  0.62233  0.31479  1.0000
  C   C119      1.0  0.03993  0.60605  0.35479  1.0000
  H   H96       1.0  0.03277  0.62858  0.28557  1.0000
  H   H97       1.0  0.11179  0.66381  0.35962  1.0000
  C   C120      1.0  0.06179  0.64643  0.26082  1.0000
  H   H98       1.0  0.07161  0.64514  0.20854  1.0000
  H   H99       1.0  0.06559  0.65653  0.30799  1.0000
  H   H100      1.0  0.04991  0.65066  0.22790  1.0000
  C   C121      1.0  0.64049  0.12288  0.33648  1.0000
  C   C122      1.0  0.62600  0.08863  0.34048  1.0000
  C   C123      1.0  0.61498  0.10342  0.34536  1.0000
  C   C124      1.0  0.62249  0.12016  0.34310  1.0000
  H   H101      1.0  0.61462  0.13070  0.34773  1.0000
  C   C125      1.0  0.59767  0.05109  0.30015  1.0000
  N   N21       1.0  0.60513  0.06689  0.30304  1.0000
  H   H102      1.0  0.58592  0.05000  0.26951  1.0000
  C   C126      1.0  0.59595  0.10206  0.35652  1.0000
  H   H103      1.0  0.59292  0.09366  0.41342  1.0000
  H   H104      1.0  0.59020  0.09684  0.29521  1.0000
  H   H105      1.0  0.58983  0.11450  0.36950  1.0000
  C   C127      1.0  0.37211  0.88985  0.34031  1.0000
  C   C128      1.0  0.38661  0.92409  0.34380  1.0000
  C   C129      1.0  0.39765  0.90931  0.34720  1.0000
  C   C130      1.0  0.39013  0.89257  0.34526  1.0000
  H   H106      1.0  0.39802  0.88202  0.34876  1.0000
  C   C131      1.0  0.41472  0.96164  0.30020  1.0000
  N   N22       1.0  0.40728  0.94584  0.30387  1.0000
  H   H107      1.0  0.42631  0.96275  0.26787  1.0000
  C   C132      1.0  0.41671  0.91066  0.35644  1.0000
  H   H108      1.0  0.41995  0.91904  0.41314  1.0000
  H   H109      1.0  0.42224  0.91592  0.29463  1.0000
  H   H110      1.0  0.42288  0.89821  0.36862  1.0000
  C   C133      1.0  0.12281  0.37213  0.33990  1.0000
  C   C134      1.0  0.08856  0.38663  0.34354  1.0000
  C   C135      1.0  0.10334  0.39766  0.34706  1.0000
  C   C136      1.0  0.12008  0.39014  0.34504  1.0000
  H   H111      1.0  0.13063  0.39804  0.34862  1.0000
  C   C137      1.0  0.05102  0.41475  0.30016  1.0000
  N   N23       1.0  0.06681  0.40731  0.30376  1.0000
  H   H112      1.0  0.04990  0.42634  0.26790  1.0000
  C   C138      1.0  0.10199  0.41673  0.35651  1.0000
  H   H113      1.0  0.09362  0.41994  0.41323  1.0000
  H   H114      1.0  0.09674  0.42227  0.29475  1.0000
  H   H115      1.0  0.11444  0.42289  0.36875  1.0000
  C   C139      1.0  0.88979  0.64053  0.33689  1.0000
  C   C140      1.0  0.92404  0.62603  0.34080  1.0000
  C   C141      1.0  0.90926  0.61500  0.34560  1.0000
  C   C142      1.0  0.89252  0.62252  0.34338  1.0000
  H   H116      1.0  0.88197  0.61465  0.34795  1.0000
  C   C143      1.0  0.96157  0.59770  0.30035  1.0000
  N   N24       1.0  0.94578  0.60515  0.30328  1.0000
  H   H117      1.0  0.96266  0.58595  0.26969  1.0000
  C   C144      1.0  0.91060  0.59598  0.35661  1.0000
  H   H118      1.0  0.91900  0.59293  0.41349  1.0000
  H   H119      1.0  0.91583  0.59024  0.29526  1.0000
  H   H120      1.0  0.89816  0.58985  0.36953  1.0000
  C   C145      1.0  0.54270  0.01979  0.36038  1.0000
  N   N25       1.0  0.52525  0.01932  0.35822  1.0000
  C   C146      1.0  0.49700  0.00716  0.34333  1.0000
  C   C147      1.0  0.48804  0.02165  0.30642  1.0000
  C   C148      1.0  0.46974  0.02179  0.30993  1.0000
  C   C149      1.0  0.46013  0.00800  0.34683  1.0000
  H   H121      1.0  0.46320  0.03200  0.28259  1.0000
  H   H122      1.0  0.54856  0.03145  0.37000  1.0000
  C   C150      1.0  0.49696  0.03621  0.26056  1.0000
  H   H123      1.0  0.50576  0.03125  0.20927  1.0000
  H   H124      1.0  0.50420  0.04373  0.30983  1.0000
  H   H125      1.0  0.48803  0.04501  0.22689  1.0000
  C   C151      1.0  0.99286  0.54271  0.36047  1.0000
  N   N26       1.0  0.99333  0.52525  0.35827  1.0000
  C   C152      1.0  0.00549  0.49701  0.34323  1.0000
  C   C153      1.0  0.99102  0.48805  0.30617  1.0000
  C   C154      1.0  0.99087  0.46975  0.30968  1.0000
  C   C155      1.0  0.00465  0.46014  0.34674  1.0000
  H   H126      1.0  0.98067  0.46322  0.28222  1.0000
  H   H127      1.0  0.98121  0.54856  0.37019  1.0000
  C   C156      1.0  0.97648  0.49698  0.26014  1.0000
  H   H128      1.0  0.98146  0.50577  0.20890  1.0000
  H   H129      1.0  0.96894  0.50423  0.30931  1.0000
  H   H130      1.0  0.96770  0.48806  0.22637  1.0000
  C   C157      1.0  0.18693  0.37556  0.32488  1.0000
  C   C158      1.0  0.22062  0.39070  0.32646  1.0000
  C   C159      1.0  0.21856  0.37329  0.29754  1.0000
  C   C160      1.0  0.20175  0.36624  0.29712  1.0000
  H   H131      1.0  0.20034  0.35369  0.27701  1.0000
  C   C161      1.0  0.26553  0.40150  0.26945  1.0000
  N   N27       1.0  0.24899  0.39591  0.26926  1.0000
  H   H132      1.0  0.27339  0.39826  0.21669  1.0000
  C   C162      1.0  0.23326  0.36179  0.27325  1.0000
  H   H133      1.0  0.24294  0.36200  0.32672  1.0000
  H   H134      1.0  0.23907  0.36610  0.21014  1.0000
  H   H135      1.0  0.22939  0.34838  0.26379  1.0000
  C   C163      1.0  0.82566  0.63713  0.32268  1.0000
  C   C164      1.0  0.79197  0.62200  0.32452  1.0000
  C   C165      1.0  0.79401  0.63943  0.29582  1.0000
  C   C166      1.0  0.81083  0.64648  0.29524  1.0000
  H   H136      1.0  0.81223  0.65903  0.27527  1.0000
  C   C167      1.0  0.74701  0.61125  0.26813  1.0000
  N   N28       1.0  0.76355  0.61684  0.26774  1.0000
  H   H137      1.0  0.73912  0.61452  0.21558  1.0000
  C   C168      1.0  0.77930  0.65094  0.27192  1.0000
  H   H138      1.0  0.76965  0.65070  0.32553  1.0000
  H   H139      1.0  0.77345  0.64667  0.20884  1.0000
  H   H140      1.0  0.78317  0.66436  0.26259  1.0000
  C   C169      1.0  0.63709  0.18702  0.32236  1.0000
  C   C170      1.0  0.62195  0.22071  0.32436  1.0000
  C   C171      1.0  0.63937  0.21867  0.29555  1.0000
  C   C172      1.0  0.64642  0.20185  0.29491  1.0000
  H   H141      1.0  0.65897  0.20046  0.27486  1.0000
  C   C173      1.0  0.61117  0.26565  0.26793  1.0000
  N   N29       1.0  0.61676  0.24911  0.26754  1.0000
  H   H142      1.0  0.61442  0.27354  0.21532  1.0000
  C   C174      1.0  0.65087  0.23338  0.27159  1.0000
  H   H143      1.0  0.65065  0.24303  0.32520  1.0000
  H   H144      1.0  0.64659  0.23923  0.20854  1.0000
  H   H145      1.0  0.66429  0.22952  0.26219  1.0000
  C   C175      1.0  0.37555  0.82573  0.32511  1.0000
  C   C176      1.0  0.39068  0.79204  0.32657  1.0000
  C   C177      1.0  0.37326  0.79410  0.29768  1.0000
  C   C178      1.0  0.36622  0.81092  0.29731  1.0000
  H   H146      1.0  0.35367  0.81234  0.27723  1.0000
  C   C179      1.0  0.40144  0.74711  0.26963  1.0000
  N   N30       1.0  0.39585  0.76365  0.26943  1.0000
  H   H147      1.0  0.39819  0.73925  0.21692  1.0000
  C   C180      1.0  0.36176  0.77941  0.27339  1.0000
  H   H148      1.0  0.36196  0.76973  0.32685  1.0000
  H   H149      1.0  0.36606  0.77360  0.21028  1.0000
  H   H150      1.0  0.34835  0.78329  0.26395  1.0000
  C   C181      1.0  0.81937  0.39314  0.33155  1.0000
  N   N31       1.0  0.80310  0.39979  0.33032  1.0000
  C   C182      1.0  0.77187  0.39950  0.34089  1.0000
  C   C183      1.0  0.76711  0.41169  0.27298  1.0000
  C   C184      1.0  0.74994  0.41816  0.27236  1.0000
  C   C185      1.0  0.73737  0.41246  0.33468  1.0000
  H   H151      1.0  0.74629  0.42673  0.22339  1.0000
  H   H152      1.0  0.82946  0.40092  0.31414  1.0000
  C   C186      1.0  0.77916  0.41712  0.20019  1.0000
  H   H153      1.0  0.78426  0.40580  0.16563  1.0000
  H   H154      1.0  0.78979  0.42448  0.22904  1.0000
  H   H155      1.0  0.77295  0.42524  0.14944  1.0000
  C   C187      1.0  0.19322  0.61965  0.33500  1.0000
  N   N32       1.0  0.20948  0.61298  0.33349  1.0000
  C   C188      1.0  0.24072  0.61327  0.34306  1.0000
  C   C189      1.0  0.24541  0.60098  0.27549  1.0000
  C   C190      1.0  0.26257  0.59450  0.27468  1.0000
  C   C191      1.0  0.27521  0.60028  0.33646  1.0000
  H   H156      1.0  0.26617  0.58587  0.22592  1.0000
  H   H157      1.0  0.18309  0.61184  0.31842  1.0000
  C   C192      1.0  0.23329  0.59547  0.20323  1.0000
  H   H158      1.0  0.22816  0.60674  0.16837  1.0000
  H   H159      1.0  0.22268  0.58816  0.23263  1.0000
  H   H160      1.0  0.23944  0.58727  0.15264  1.0000
  C   C193      1.0  0.39307  0.19328  0.33178  1.0000
  N   N33       1.0  0.39972  0.20955  0.33056  1.0000
  C   C194      1.0  0.39942  0.24078  0.34099  1.0000
  C   C195      1.0  0.41163  0.24553  0.27319  1.0000
  C   C196      1.0  0.41810  0.26270  0.27261  1.0000
  C   C197      1.0  0.41237  0.27528  0.33484  1.0000
  H   H161      1.0  0.42669  0.26635  0.22371  1.0000
  H   H162      1.0  0.40086  0.18319  0.31457  1.0000
  C   C198      1.0  0.41708  0.23348  0.20048  1.0000
  H   H163      1.0  0.40578  0.22838  0.16583  1.0000
  H   H164      1.0  0.42444  0.22285  0.22942  1.0000
  H   H165      1.0  0.42523  0.23968  0.14979  1.0000
  C   C199      1.0  0.61959  0.81944  0.33457  1.0000
  N   N34       1.0  0.61293  0.80318  0.33307  1.0000
  C   C200      1.0  0.61320  0.77194  0.34291  1.0000
  C   C201      1.0  0.60097  0.76724  0.27510  1.0000
  C   C202      1.0  0.59449  0.75007  0.27426  1.0000
  C   C203      1.0  0.60022  0.73745  0.33625  1.0000
  H   H166      1.0  0.58589  0.74646  0.22534  1.0000
  H   H167      1.0  0.61180  0.82956  0.31765  1.0000
  C   C204      1.0  0.59551  0.77934  0.20264  1.0000
  H   H168      1.0  0.60681  0.78446  0.16799  1.0000
  H   H169      1.0  0.58818  0.78995  0.23181  1.0000
  H   H170      1.0  0.58735  0.77318  0.15190  1.0000
  C   C205      1.0  0.30363  0.54199  0.27763  1.0000
  N   N35       1.0  0.30430  0.52460  0.28398  1.0000
  C   C206      1.0  0.31243  0.49718  0.34302  1.0000
  C   C207      1.0  0.29587  0.48927  0.34869  1.0000
  C   C208      1.0  0.29499  0.47104  0.35061  1.0000
  C   C209      1.0  0.30976  0.46025  0.34707  1.0000
  H   H171      1.0  0.28305  0.46550  0.35435  1.0000
  H   H172      1.0  0.29474  0.54733  0.23511  1.0000
  C   C210      1.0  0.27950  0.49926  0.35576  1.0000
  H   H173      1.0  0.28057  0.50891  0.40913  1.0000
  H   H174      1.0  0.26840  0.49116  0.37173  1.0000
  H   H175      1.0  0.27678  0.50566  0.29183  1.0000
  C   C211      1.0  0.70892  0.47075  0.27654  1.0000
  N   N36       1.0  0.70825  0.48814  0.28297  1.0000
  C   C212      1.0  0.70014  0.51554  0.34221  1.0000
  C   C213      1.0  0.71670  0.52345  0.34795  1.0000
  C   C214      1.0  0.71758  0.54168  0.34988  1.0000
  C   C215      1.0  0.70282  0.55247  0.34630  1.0000
  H   H176      1.0  0.72952  0.54721  0.35365  1.0000
  H   H177      1.0  0.71781  0.46541  0.23392  1.0000
  C   C216      1.0  0.73306  0.51345  0.35505  1.0000
  H   H178      1.0  0.73198  0.50380  0.40840  1.0000
  H   H179      1.0  0.74417  0.52154  0.37107  1.0000
  H   H180      1.0  0.73579  0.50705  0.29112  1.0000
  C   C217      1.0  0.47067  0.30372  0.27671  1.0000
  N   N37       1.0  0.48806  0.30439  0.28309  1.0000
  C   C218      1.0  0.51547  0.31252  0.34220  1.0000
  C   C219      1.0  0.52338  0.29596  0.34797  1.0000
  C   C220      1.0  0.54161  0.29508  0.34985  1.0000
  C   C221      1.0  0.55240  0.30984  0.34618  1.0000
  H   H181      1.0  0.54715  0.28314  0.35365  1.0000
  H   H182      1.0  0.46533  0.29482  0.23416  1.0000
  C   C222      1.0  0.51339  0.27959  0.35517  1.0000
  H   H183      1.0  0.50374  0.28068  0.40854  1.0000
  H   H184      1.0  0.52148  0.26849  0.37120  1.0000
  H   H185      1.0  0.50698  0.27686  0.29126  1.0000
  C   C223      1.0  0.54193  0.70902  0.27756  1.0000
  N   N38       1.0  0.52454  0.70835  0.28394  1.0000
  C   C224      1.0  0.49713  0.70021  0.34306  1.0000
  C   C225      1.0  0.48922  0.71677  0.34878  1.0000
  C   C226      1.0  0.47098  0.71765  0.35073  1.0000
  C   C227      1.0  0.46020  0.70288  0.34718  1.0000
  H   H186      1.0  0.46545  0.72959  0.35450  1.0000
  H   H187      1.0  0.54727  0.71792  0.23503  1.0000
  C   C228      1.0  0.49921  0.73314  0.35586  1.0000
  H   H188      1.0  0.50886  0.73206  0.40921  1.0000
  H   H189      1.0  0.49111  0.74424  0.37188  1.0000
  H   H190      1.0  0.50560  0.73587  0.29192  1.0000
  C   C229      1.0  0.33292  0.40018  0.34186  1.0000
  C   C230      1.0  0.36020  0.37485  0.34611  1.0000
  C   C231      1.0  0.34259  0.36951  0.35217  1.0000
  C   C232      1.0  0.32949  0.38228  0.34965  1.0000
  H   H191      1.0  0.31695  0.37831  0.35449  1.0000
  C   C233      1.0  0.38454  0.33481  0.30198  1.0000
  N   N39       1.0  0.37279  0.34772  0.30496  1.0000
  H   H192      1.0  0.38130  0.32375  0.26849  1.0000
  C   C234      1.0  0.33727  0.35120  0.36484  1.0000
  H   H193      1.0  0.34444  0.34547  0.42068  1.0000
  H   H194      1.0  0.33974  0.34392  0.30325  1.0000
  H   H195      1.0  0.32358  0.34981  0.38038  1.0000
  C   C235      1.0  0.67967  0.61254  0.34130  1.0000
  C   C236      1.0  0.65240  0.63788  0.34593  1.0000
  C   C237      1.0  0.67001  0.64321  0.35171  1.0000
  C   C238      1.0  0.68311  0.63044  0.34901  1.0000
  H   H196      1.0  0.69565  0.63441  0.35366  1.0000
  C   C239      1.0  0.62803  0.67793  0.30227  1.0000
  N   N40       1.0  0.63979  0.66502  0.30506  1.0000
  H   H197      1.0  0.63126  0.68899  0.26881  1.0000
  C   C240      1.0  0.67534  0.66152  0.36428  1.0000
  H   H198      1.0  0.66820  0.66725  0.42025  1.0000
  H   H199      1.0  0.67284  0.66880  0.30273  1.0000
  H   H200      1.0  0.68904  0.66291  0.37961  1.0000
  C   C241      1.0  0.61247  0.33300  0.34102  1.0000
  C   C242      1.0  0.63781  0.36027  0.34549  1.0000
  C   C243      1.0  0.64314  0.34266  0.35136  1.0000
  C   C244      1.0  0.63037  0.32956  0.34874  1.0000
  H   H201      1.0  0.63434  0.31702  0.35344  1.0000
  C   C245      1.0  0.67784  0.38464  0.30148  1.0000
  N   N41       1.0  0.66493  0.37288  0.30439  1.0000
  H   H202      1.0  0.68889  0.38141  0.26791  1.0000
  C   C246      1.0  0.66145  0.33734  0.36394  1.0000
  H   H203      1.0  0.66718  0.34449  0.41985  1.0000
  H   H204      1.0  0.66873  0.33982  0.30236  1.0000
  H   H205      1.0  0.66284  0.32364  0.37934  1.0000
  C   C247      1.0  0.40012  0.67972  0.34213  1.0000
  C   C248      1.0  0.37478  0.65245  0.34654  1.0000
  C   C249      1.0  0.36945  0.67006  0.35246  1.0000
  C   C250      1.0  0.38222  0.68316  0.34987  1.0000
  H   H206      1.0  0.37825  0.69570  0.35461  1.0000
  C   C251      1.0  0.33473  0.62810  0.30279  1.0000
  N   N42       1.0  0.34764  0.63985  0.30564  1.0000
  H   H207      1.0  0.32367  0.63134  0.26939  1.0000
  C   C252      1.0  0.35115  0.67539  0.36506  1.0000
  H   H208      1.0  0.34541  0.66824  0.42096  1.0000
  H   H209      1.0  0.34386  0.67291  0.30349  1.0000
  H   H210      1.0  0.34976  0.68909  0.38047  1.0000
  C   C253      1.0  0.07260  0.08583  0.35760  1.0000
  N   N43       1.0  0.08479  0.09838  0.35027  1.0000
  C   C254      1.0  0.10194  0.09469  0.34415  1.0000
  N   N44       1.0  0.10676  0.07781  0.34491  1.0000
  C   C255      1.0  0.09495  0.06506  0.35169  1.0000
  N   N45       1.0  0.07809  0.06922  0.35808  1.0000
  C   C256      1.0  0.94008  0.92693  0.35753  1.0000
  N   N46       1.0  0.92790  0.91438  0.35021  1.0000
  C   C257      1.0  0.91074  0.91807  0.34414  1.0000
  N   N47       1.0  0.90592  0.93494  0.34494  1.0000
  C   C258      1.0  0.91772  0.94769  0.35172  1.0000
  N   N48       1.0  0.93459  0.94353  0.35806  1.0000
  C   C259      1.0  0.92689  0.07265  0.35750  1.0000
  N   N49       1.0  0.91434  0.08483  0.35054  1.0000
  C   C260      1.0  0.91802  0.10199  0.34462  1.0000
  N   N50       1.0  0.93490  0.10681  0.34520  1.0000
  C   C261      1.0  0.94766  0.09501  0.35154  1.0000
  N   N51       1.0  0.94350  0.07814  0.35777  1.0000
  C   C262      1.0  0.08577  0.94013  0.35719  1.0000
  N   N52       1.0  0.09832  0.92795  0.34981  1.0000
  C   C263      1.0  0.09464  0.91080  0.34369  1.0000
  N   N53       1.0  0.07777  0.90597  0.34452  1.0000
  C   C264      1.0  0.06501  0.91776  0.35134  1.0000
  N   N54       1.0  0.06916  0.93463  0.35773  1.0000
  C   C265      1.0  0.21751  0.19690  0.32837  1.0000
  N   N55       1.0  0.21283  0.21377  0.33610  1.0000
  C   C266      1.0  0.19592  0.21836  0.34352  1.0000
  N   N56       1.0  0.18382  0.20574  0.34414  1.0000
  C   C267      1.0  0.18809  0.18885  0.33592  1.0000
  N   N57       1.0  0.20501  0.18468  0.32793  1.0000
  C   C268      1.0  0.79520  0.81583  0.32881  1.0000
  N   N58       1.0  0.79988  0.79895  0.33610  1.0000
  C   C269      1.0  0.81680  0.79435  0.34305  1.0000
  N   N59       1.0  0.82891  0.80698  0.34369  1.0000
  C   C270      1.0  0.82463  0.82387  0.33590  1.0000
  N   N60       1.0  0.80770  0.82805  0.32835  1.0000
  C   C271      1.0  0.81576  0.21755  0.32675  1.0000
  N   N61       1.0  0.79888  0.21285  0.33354  1.0000
  C   C272      1.0  0.79431  0.19593  0.34096  1.0000
  N   N62       1.0  0.80698  0.18386  0.34250  1.0000
  C   C273      1.0  0.82387  0.18817  0.33519  1.0000
  N   N63       1.0  0.82802  0.20510  0.32719  1.0000
  C   C274      1.0  0.19685  0.79526  0.33111  1.0000
  N   N64       1.0  0.21373  0.79993  0.33885  1.0000
  C   C275      1.0  0.21834  0.81685  0.34572  1.0000
  N   N65       1.0  0.20574  0.82898  0.34564  1.0000
  C   C276      1.0  0.18885  0.82472  0.33726  1.0000
  N   N66       1.0  0.18466  0.80779  0.32988  1.0000
  C   C277      1.0  0.41505  0.99256  0.34293  1.0000
  N   N67       1.0  0.40651  0.00802  0.34573  1.0000
  C   C278      1.0  0.41504  0.02348  0.34932  1.0000
  N   N68       1.0  0.43260  0.02294  0.34946  1.0000
  C   C279      1.0  0.44174  0.00801  0.34732  1.0000
  N   N69       1.0  0.43260  0.99308  0.34415  1.0000
  C   C280      1.0  0.59756  0.02013  0.34269  1.0000
  N   N70       1.0  0.60614  0.00471  0.34720  1.0000
  C   C281      1.0  0.59767  0.98925  0.35283  1.0000
  N   N71       1.0  0.58012  0.98978  0.35359  1.0000
  C   C282      1.0  0.57085  0.00463  0.34953  1.0000
  N   N72       1.0  0.58001  0.01953  0.34406  1.0000
  C   C283      1.0  0.02009  0.41507  0.34284  1.0000
  N   N73       1.0  0.00463  0.40653  0.34558  1.0000
  C   C284      1.0  0.98917  0.41505  0.34910  1.0000
  N   N74       1.0  0.98971  0.43261  0.34928  1.0000
  C   C285      1.0  0.00464  0.44175  0.34720  1.0000
  N   N75       1.0  0.01957  0.43262  0.34408  1.0000
  C   C286      1.0  0.99254  0.59757  0.34290  1.0000
  N   N76       1.0  0.00796  0.60615  0.34739  1.0000
  C   C287      1.0  0.02342  0.59767  0.35300  1.0000
  N   N77       1.0  0.02288  0.58012  0.35368  1.0000
  C   C288      1.0  0.00803  0.57086  0.34961  1.0000
  N   N78       1.0  0.99313  0.58002  0.34419  1.0000
  C   C289      1.0  0.31916  0.41272  0.34123  1.0000
  N   N79       1.0  0.32158  0.43026  0.34404  1.0000
  C   C290      1.0  0.30812  0.44174  0.34658  1.0000
  N   N80       1.0  0.29196  0.43490  0.34671  1.0000
  C   C291      1.0  0.28874  0.41781  0.34303  1.0000
  N   N81       1.0  0.30250  0.40706  0.33974  1.0000
  C   C292      1.0  0.69342  0.60000  0.34046  1.0000
  N   N82       1.0  0.69100  0.58246  0.34334  1.0000
  C   C293      1.0  0.70446  0.57097  0.34572  1.0000
  N   N83       1.0  0.72063  0.57781  0.34562  1.0000
  C   C294      1.0  0.72384  0.59490  0.34185  1.0000
  N   N84       1.0  0.71009  0.60566  0.33874  1.0000
  C   C295      1.0  0.59993  0.31924  0.34026  1.0000
  N   N85       1.0  0.58239  0.32166  0.34315  1.0000
  C   C296      1.0  0.57090  0.30820  0.34556  1.0000
  N   N86       1.0  0.57774  0.29204  0.34549  1.0000
  C   C297      1.0  0.59484  0.28882  0.34171  1.0000
  N   N87       1.0  0.60559  0.30258  0.33855  1.0000
  C   C298      1.0  0.41266  0.69348  0.34146  1.0000
  N   N88       1.0  0.43020  0.69106  0.34423  1.0000
  C   C299      1.0  0.44169  0.70452  0.34672  1.0000
  N   N89       1.0  0.43485  0.72069  0.34682  1.0000
  C   C300      1.0  0.41776  0.72390  0.34317  1.0000
  N   N90       1.0  0.40700  0.71015  0.33994  1.0000
  C   C301      1.0  0.68975  0.41318  0.34229  1.0000
  N   N91       1.0  0.68704  0.43061  0.34036  1.0000
  C   C302      1.0  0.70035  0.44209  0.33260  1.0000
  N   N92       1.0  0.71667  0.43566  0.32879  1.0000
  C   C303      1.0  0.72008  0.41853  0.33323  1.0000
  N   N93       1.0  0.70643  0.40758  0.33974  1.0000
  C   C304      1.0  0.32283  0.59954  0.34351  1.0000
  N   N94       1.0  0.32554  0.58211  0.34144  1.0000
  C   C305      1.0  0.31223  0.57064  0.33377  1.0000
  N   N95       1.0  0.29590  0.57707  0.33020  1.0000
  C   C306      1.0  0.29250  0.59420  0.33480  1.0000
  N   N96       1.0  0.30615  0.60514  0.34119  1.0000
  C   C307      1.0  0.41311  0.32290  0.34252  1.0000
  N   N97       1.0  0.43054  0.32560  0.34057  1.0000
  C   C308      1.0  0.44201  0.31230  0.33280  1.0000
  N   N98       1.0  0.43559  0.29597  0.32897  1.0000
  C   C309      1.0  0.41845  0.29257  0.33345  1.0000
  N   N99       1.0  0.40751  0.30622  0.33997  1.0000
  C   C310      1.0  0.59949  0.68983  0.34319  1.0000
  N   N100      1.0  0.58206  0.68712  0.34121  1.0000
  C   C311      1.0  0.57059  0.70043  0.33362  1.0000
  N   N101      1.0  0.57701  0.71676  0.33003  1.0000
  C   C312      1.0  0.59414  0.72016  0.33455  1.0000
  N   N102      1.0  0.60509  0.70651  0.34088  1.0000
  C   C313      1.0  0.17063  0.36699  0.33373  1.0000
  N   N103      1.0  0.15456  0.37423  0.33314  1.0000
  C   C314      1.0  0.13976  0.36455  0.34048  1.0000
  N   N104      1.0  0.14163  0.34708  0.34993  1.0000
  C   C315      1.0  0.15737  0.33939  0.35420  1.0000
  N   N105      1.0  0.17125  0.34971  0.34535  1.0000
  C   C316      1.0  0.84197  0.64570  0.33123  1.0000
  N   N106      1.0  0.85804  0.63843  0.33047  1.0000
  C   C317      1.0  0.87284  0.64811  0.33757  1.0000
  N   N107      1.0  0.87099  0.66559  0.34701  1.0000
  C   C318      1.0  0.85526  0.67328  0.35147  1.0000
  N   N108      1.0  0.84137  0.66297  0.34283  1.0000
  C   C319      1.0  0.64566  0.17071  0.33086  1.0000
  N   N109      1.0  0.63840  0.15464  0.33014  1.0000
  C   C320      1.0  0.64808  0.13983  0.33710  1.0000
  N   N110      1.0  0.66556  0.14168  0.34632  1.0000
  C   C321      1.0  0.67325  0.15741  0.35072  1.0000
  N   N111      1.0  0.66294  0.17131  0.34225  1.0000
  C   C322      1.0  0.36698  0.84202  0.33408  1.0000
  N   N112      1.0  0.37422  0.85810  0.33346  1.0000
  C   C323      1.0  0.36453  0.87289  0.34096  1.0000
  N   N113      1.0  0.34706  0.87102  0.35058  1.0000
  C   C324      1.0  0.33938  0.85528  0.35482  1.0000
  N   N114      1.0  0.34971  0.84140  0.34584  1.0000
  C   C325      1.0  0.83844  0.36702  0.34371  1.0000
  N   N115      1.0  0.85452  0.37430  0.34597  1.0000
  C   C326      1.0  0.86937  0.36465  0.33998  1.0000
  N   N116      1.0  0.86757  0.34717  0.33024  1.0000
  C   C327      1.0  0.85188  0.33940  0.32462  1.0000
  N   N117      1.0  0.83798  0.34974  0.33216  1.0000
  C   C328      1.0  0.17415  0.64578  0.34726  1.0000
  N   N118      1.0  0.15809  0.63849  0.34994  1.0000
  C   C329      1.0  0.14321  0.64813  0.34481  1.0000
  N   N119      1.0  0.14498  0.66562  0.33549  1.0000
  C   C330      1.0  0.16064  0.67341  0.32943  1.0000
  N   N120      1.0  0.17457  0.66308  0.33612  1.0000
  C   C331      1.0  0.36696  0.17419  0.34391  1.0000
  N   N121      1.0  0.37425  0.15813  0.34620  1.0000
  C   C332      1.0  0.36462  0.14326  0.34043  1.0000
  N   N122      1.0  0.34713  0.14505  0.33093  1.0000
  C   C333      1.0  0.33934  0.16071  0.32529  1.0000
  N   N123      1.0  0.34967  0.17464  0.33259  1.0000
  C   C334      1.0  0.64572  0.83850  0.34699  1.0000
  N   N124      1.0  0.63844  0.85457  0.34962  1.0000
  C   C335      1.0  0.64809  0.86943  0.34427  1.0000
  N   N125      1.0  0.66558  0.86764  0.33477  1.0000
  C   C336      1.0  0.67335  0.85197  0.32883  1.0000
  N   N126      1.0  0.66301  0.83806  0.33573  1.0000
  C   C337      1.0  0.11005  0.12538  0.32777  1.0000
  N   N127      1.0  0.12233  0.13775  0.32871  1.0000
  C   C338      1.0  0.15049  0.14927  0.34291  1.0000
  C   C339      1.0  0.14752  0.16457  0.39378  1.0000
  C   C340      1.0  0.16007  0.17778  0.38916  1.0000
  C   C341      1.0  0.17526  0.17592  0.33737  1.0000
  H   H211      1.0  0.15838  0.18875  0.42658  1.0000
  H   H212      1.0  0.09755  0.12906  0.31806  1.0000
  C   C342      1.0  0.13238  0.16675  0.45444  1.0000
  H   H213      1.0  0.13150  0.15585  0.50075  1.0000
  H   H214      1.0  0.12059  0.16750  0.41456  1.0000
  H   H215      1.0  0.13316  0.17848  0.49511  1.0000
  C   C343      1.0  0.90265  0.88738  0.32768  1.0000
  N   N128      1.0  0.89038  0.87499  0.32865  1.0000
  C   C344      1.0  0.86221  0.86346  0.34292  1.0000
  C   C345      1.0  0.86521  0.84814  0.39361  1.0000
  C   C346      1.0  0.85266  0.83492  0.38897  1.0000
  C   C347      1.0  0.83746  0.83680  0.33733  1.0000
  H   H216      1.0  0.85437  0.82394  0.42627  1.0000
  H   H217      1.0  0.91515  0.88369  0.31790  1.0000
  C   C348      1.0  0.88037  0.84594  0.45413  1.0000
  H   H218      1.0  0.88126  0.85683  0.50053  1.0000
  H   H219      1.0  0.89214  0.84521  0.41414  1.0000
  H   H220      1.0  0.87961  0.83420  0.49469  1.0000
  C   C349      1.0  0.88733  0.11012  0.32849  1.0000
  N   N129      1.0  0.87497  0.12240  0.32943  1.0000
  C   C350      1.0  0.86346  0.15059  0.34346  1.0000
  C   C351      1.0  0.84811  0.14761  0.39392  1.0000
  C   C352      1.0  0.83490  0.16017  0.38895  1.0000
  C   C353      1.0  0.83682  0.17536  0.33724  1.0000
  H   H221      1.0  0.82389  0.15848  0.42601  1.0000
  H   H222      1.0  0.88364  0.09762  0.31870  1.0000
  C   C354      1.0  0.84586  0.13247  0.45445  1.0000
  H   H223      1.0  0.85672  0.13157  0.50102  1.0000
  H   H224      1.0  0.84514  0.12069  0.41449  1.0000
  H   H225      1.0  0.83410  0.13325  0.49483  1.0000
  C   C355      1.0  0.12533  0.90272  0.32719  1.0000
  N   N130      1.0  0.13772  0.89046  0.32822  1.0000
  C   C356      1.0  0.14928  0.86232  0.34277  1.0000
  C   C357      1.0  0.16455  0.86533  0.39383  1.0000
  C   C358      1.0  0.17777  0.85278  0.38961  1.0000
  C   C359      1.0  0.17594  0.83756  0.33807  1.0000
  H   H226      1.0  0.18871  0.85449  0.42722  1.0000
  H   H227      1.0  0.12901  0.91523  0.31743  1.0000
  C   C360      1.0  0.16669  0.88050  0.45431  1.0000
  H   H228      1.0  0.15577  0.88139  0.50046  1.0000
  H   H229      1.0  0.16745  0.89227  0.41427  1.0000
  H   H230      1.0  0.17840  0.87976  0.49514  1.0000
  C   C361      1.0  0.08939  0.95804  0.36335  1.0000
  C   C362      1.0  0.09590  0.99382  0.36505  1.0000
  C   C363      1.0  0.07957  0.98779  0.39496  1.0000
  C   C364      1.0  0.07668  0.96982  0.39338  1.0000
  H   H231      1.0  0.06493  0.96529  0.41395  1.0000
  C   C365      1.0  0.09962  0.03847  0.43401  1.0000
  N   N131      1.0  0.09936  0.02104  0.43264  1.0000
  H   H232      1.0  0.09849  0.04466  0.49469  1.0000
  C   C366      1.0  0.06543  0.99960  0.42329  1.0000
  H   H233      1.0  0.06265  0.00878  0.36936  1.0000
  H   H234      1.0  0.06925  0.00665  0.48376  1.0000
  H   H235      1.0  0.05350  0.99276  0.43878  1.0000
  C   C367      1.0  0.92328  0.05473  0.36355  1.0000
  C   C368      1.0  0.91679  0.01895  0.36513  1.0000
  C   C369      1.0  0.93313  0.02498  0.39487  1.0000
  C   C370      1.0  0.93601  0.04294  0.39335  1.0000
  H   H236      1.0  0.94776  0.04748  0.41380  1.0000
  C   C371      1.0  0.91312  0.97429  0.43408  1.0000
  N   N132      1.0  0.91338  0.99172  0.43273  1.0000
  H   H237      1.0  0.91428  0.96810  0.49473  1.0000
  C   C372      1.0  0.94729  0.01317  0.42297  1.0000
  H   H238      1.0  0.95004  0.00399  0.36896  1.0000
  H   H239      1.0  0.94349  0.00611  0.48346  1.0000
  H   H240      1.0  0.95922  0.02001  0.43831  1.0000
  C   C373      1.0  0.05469  0.08946  0.36372  1.0000
  C   C374      1.0  0.01891  0.09596  0.36516  1.0000
  C   C375      1.0  0.02494  0.07965  0.39535  1.0000
  C   C376      1.0  0.04290  0.07676  0.39389  1.0000
  H   H241      1.0  0.04744  0.06503  0.41465  1.0000
  C   C377      1.0  0.97425  0.09978  0.43379  1.0000
  N   N133      1.0  0.99168  0.09951  0.43252  1.0000
  H   H242      1.0  0.96805  0.09874  0.49448  1.0000
  C   C378      1.0  0.01313  0.06553  0.42386  1.0000
  H   H243      1.0  0.00396  0.06271  0.36989  1.0000
  H   H244      1.0  0.00605  0.06940  0.48418  1.0000
  H   H245      1.0  0.01996  0.05361  0.43966  1.0000
  C   C379      1.0  0.95800  0.92330  0.36360  1.0000
  C   C380      1.0  0.99377  0.91679  0.36511  1.0000
  C   C381      1.0  0.98775  0.93312  0.39507  1.0000
  C   C382      1.0  0.96979  0.93601  0.39359  1.0000
  H   H246      1.0  0.96525  0.94776  0.41419  1.0000
  C   C383      1.0  0.03844  0.91308  0.43382  1.0000
  N   N134      1.0  0.02101  0.91333  0.43254  1.0000
  H   H247      1.0  0.04464  0.91420  0.49446  1.0000
  C   C384      1.0  0.99956  0.94726  0.42336  1.0000
  H   H248      1.0  0.00874  0.95003  0.36937  1.0000
  H   H249      1.0  0.00663  0.94343  0.48378  1.0000
  H   H250      1.0  0.99273  0.95919  0.43889  1.0000
  C   C385      1.0  0.16069  0.32148  0.36393  1.0000
  C   C386      1.0  0.17158  0.28676  0.35776  1.0000
  C   C387      1.0  0.18097  0.29857  0.41189  1.0000
  C   C388      1.0  0.17530  0.31587  0.41330  1.0000
  H   H251      1.0  0.18227  0.32471  0.44950  1.0000
  C   C389      1.0  0.17726  0.24113  0.40568  1.0000
  N   N135      1.0  0.17157  0.25764  0.40442  1.0000
  H   H252      1.0  0.17223  0.23287  0.45258  1.0000
  C   C390      1.0  0.19656  0.29339  0.46385  1.0000
  H   H253      1.0  0.20649  0.28863  0.41804  1.0000
  H   H254      1.0  0.19321  0.28316  0.51137  1.0000
  H   H255      1.0  0.20205  0.30403  0.50238  1.0000
  C   C391      1.0  0.85195  0.69120  0.36136  1.0000
  C   C392      1.0  0.84109  0.72592  0.35572  1.0000
  C   C393      1.0  0.83172  0.71410  0.40989  1.0000
  C   C394      1.0  0.83738  0.69680  0.41103  1.0000
  H   H256      1.0  0.83043  0.68796  0.44727  1.0000
  C   C395      1.0  0.83551  0.77155  0.40437  1.0000
  N   N136      1.0  0.84118  0.75502  0.40274  1.0000
  H   H257      1.0  0.84059  0.77977  0.45127  1.0000
  C   C396      1.0  0.81618  0.71928  0.46220  1.0000
  H   H258      1.0  0.80622  0.72406  0.41664  1.0000
  H   H259      1.0  0.81957  0.72949  0.50977  1.0000
  H   H260      1.0  0.81070  0.70863  0.50072  1.0000
  C   C397      1.0  0.69117  0.16072  0.36037  1.0000
  C   C398      1.0  0.72588  0.17163  0.35411  1.0000
  C   C399      1.0  0.71410  0.18092  0.40892  1.0000
  C   C400      1.0  0.69680  0.17525  0.41033  1.0000
  H   H261      1.0  0.68798  0.18214  0.44701  1.0000
  C   C401      1.0  0.77155  0.17710  0.40173  1.0000
  N   N137      1.0  0.75502  0.17144  0.40029  1.0000
  H   H262      1.0  0.77981  0.17193  0.44820  1.0000
  C   C402      1.0  0.71931  0.19640  0.46169  1.0000
  H   H263      1.0  0.72404  0.20643  0.41640  1.0000
  H   H264      1.0  0.72957  0.19295  0.50885  1.0000
  H   H265      1.0  0.70869  0.20181  0.50071  1.0000
  C   C403      1.0  0.32147  0.85195  0.36481  1.0000
  C   C404      1.0  0.28672  0.84118  0.35933  1.0000
  C   C405      1.0  0.29858  0.83162  0.41239  1.0000
  C   C406      1.0  0.31589  0.83725  0.41354  1.0000
  H   H266      1.0  0.32475  0.83018  0.44901  1.0000
  C   C407      1.0  0.24117  0.83528  0.40884  1.0000
  N   N138      1.0  0.25767  0.84099  0.40736  1.0000
  H   H267      1.0  0.23298  0.84012  0.45660  1.0000
  C   C408      1.0  0.29343  0.81591  0.46340  1.0000
  H   H268      1.0  0.28859  0.80611  0.41703  1.0000
  H   H269      1.0  0.28327  0.81915  0.51156  1.0000
  H   H270      1.0  0.30411  0.81029  0.50111  1.0000
  C   C409      1.0  0.85918  0.30871  0.35522  1.0000
  N   N139      1.0  0.85400  0.29195  0.35634  1.0000
  C   C410      1.0  0.83446  0.26871  0.32774  1.0000
  C   C411      1.0  0.82519  0.26266  0.40429  1.0000
  C   C412      1.0  0.81853  0.24566  0.40154  1.0000
  C   C413      1.0  0.82113  0.23492  0.32578  1.0000
  H   H271      1.0  0.81196  0.24090  0.45610  1.0000
  H   H272      1.0  0.87006  0.31205  0.38997  1.0000
  C   C414      1.0  0.82236  0.27369  0.48504  1.0000
  H   H273      1.0  0.81515  0.28522  0.46614  1.0000
  H   H274      1.0  0.83476  0.27756  0.51322  1.0000
  H   H275      1.0  0.81515  0.26705  0.53794  1.0000
  C   C415      1.0  0.15357  0.70405  0.36247  1.0000
  N   N140      1.0  0.15884  0.72078  0.36407  1.0000
  C   C416      1.0  0.17838  0.74396  0.33446  1.0000
  C   C417      1.0  0.18951  0.74948  0.40503  1.0000
  C   C418      1.0  0.19603  0.76653  0.40121  1.0000
  C   C419      1.0  0.19142  0.77787  0.33063  1.0000
  H   H276      1.0  0.20393  0.77089  0.45167  1.0000
  H   H277      1.0  0.14286  0.70067  0.39847  1.0000
  C   C420      1.0  0.19424  0.73792  0.48117  1.0000
  H   H278      1.0  0.20101  0.72658  0.45570  1.0000
  H   H279      1.0  0.18260  0.73375  0.51622  1.0000
  H   H280      1.0  0.20259  0.74425  0.53035  1.0000
  C   C421      1.0  0.30869  0.15351  0.35727  1.0000
  N   N141      1.0  0.29195  0.15872  0.35886  1.0000
  C   C422      1.0  0.26873  0.17828  0.33023  1.0000
  C   C423      1.0  0.26304  0.18866  0.40350  1.0000
  C   C424      1.0  0.24602  0.19526  0.40029  1.0000
  C   C425      1.0  0.23488  0.19149  0.32747  1.0000
  H   H281      1.0  0.24152  0.20263  0.45262  1.0000
  H   H282      1.0  0.31207  0.14270  0.39251  1.0000
  C   C426      1.0  0.27441  0.19260  0.48159  1.0000
  H   H283      1.0  0.28583  0.19957  0.45869  1.0000
  H   H284      1.0  0.27846  0.18062  0.51377  1.0000
  H   H285      1.0  0.26799  0.20049  0.53251  1.0000
  C   C427      1.0  0.70403  0.85918  0.36026  1.0000
  N   N142      1.0  0.72078  0.85398  0.36139  1.0000
  C   C428      1.0  0.74399  0.83445  0.33205  1.0000
  C   C429      1.0  0.74978  0.82413  0.40535  1.0000
  C   C430      1.0  0.76680  0.81753  0.40171  1.0000
  C   C431      1.0  0.77783  0.82125  0.32842  1.0000
  H   H286      1.0  0.77136  0.81021  0.45404  1.0000
  H   H287      1.0  0.70068  0.86999  0.39560  1.0000
  C   C432      1.0  0.73850  0.82024  0.48390  1.0000
  H   H288      1.0  0.72705  0.81325  0.46149  1.0000
  H   H289      1.0  0.73448  0.83225  0.51598  1.0000
  H   H290      1.0  0.74499  0.81239  0.53475  1.0000
  C   C433      1.0  0.37219  0.12629  0.34267  1.0000
  C   C434      1.0  0.38666  0.09200  0.34231  1.0000
  C   C435      1.0  0.39772  0.10677  0.33837  1.0000
  C   C436      1.0  0.39021  0.12353  0.33873  1.0000
  H   H291      1.0  0.39812  0.13406  0.33487  1.0000
  C   C437      1.0  0.41467  0.05453  0.38974  1.0000
  N   N143      1.0  0.40726  0.07032  0.38460  1.0000
  H   H292      1.0  0.42621  0.05349  0.42257  1.0000
  C   C438      1.0  0.41679  0.10537  0.33017  1.0000
  H   H293      1.0  0.42013  0.09685  0.27421  1.0000
  H   H294      1.0  0.42220  0.10026  0.39261  1.0000
  H   H295      1.0  0.42300  0.11778  0.31745  1.0000
  C   C439      1.0  0.64054  0.88641  0.34682  1.0000
  C   C440      1.0  0.62612  0.92072  0.34681  1.0000
  C   C441      1.0  0.61507  0.90598  0.34046  1.0000
  C   C442      1.0  0.62255  0.88921  0.34077  1.0000
  H   H296      1.0  0.61465  0.87870  0.33512  1.0000
  C   C443      1.0  0.59789  0.95812  0.39223  1.0000
  N   N144      1.0  0.60533  0.94233  0.38733  1.0000
  H   H297      1.0  0.58617  0.95907  0.42330  1.0000
  C   C444      1.0  0.59604  0.90742  0.32970  1.0000
  H   H298      1.0  0.59300  0.91607  0.27382  1.0000
  H   H299      1.0  0.59033  0.91240  0.39167  1.0000
  H   H300      1.0  0.58989  0.89505  0.31536  1.0000
  C   C445      1.0  0.88635  0.37221  0.34225  1.0000
  C   C446      1.0  0.92064  0.38667  0.34202  1.0000
  C   C447      1.0  0.90588  0.39773  0.33820  1.0000
  C   C448      1.0  0.88912  0.39023  0.33849  1.0000
  H   H301      1.0  0.87859  0.39815  0.33473  1.0000
  C   C449      1.0  0.95812  0.41468  0.38951  1.0000
  N   N145      1.0  0.94233  0.40726  0.38436  1.0000
  H   H302      1.0  0.95915  0.42622  0.42233  1.0000
  C   C450      1.0  0.90728  0.41681  0.33019  1.0000
  H   H303      1.0  0.91580  0.42016  0.27427  1.0000
  H   H304      1.0  0.91239  0.42219  0.39268  1.0000
  H   H305      1.0  0.89487  0.42303  0.31754  1.0000
  C   C451      1.0  0.12625  0.64056  0.34734  1.0000
  C   C452      1.0  0.09194  0.62613  0.34716  1.0000
  C   C453      1.0  0.10668  0.61509  0.34066  1.0000
  C   C454      1.0  0.12345  0.62257  0.34105  1.0000
  H   H306      1.0  0.13397  0.61468  0.33529  1.0000
  C   C455      1.0  0.05455  0.59788  0.39234  1.0000
  N   N146      1.0  0.07033  0.60532  0.38750  1.0000
  H   H307      1.0  0.05359  0.58615  0.42335  1.0000
  C   C456      1.0  0.10525  0.59607  0.32965  1.0000
  H   H308      1.0  0.09660  0.59305  0.27374  1.0000
  H   H309      1.0  0.10027  0.59032  0.39155  1.0000
  H   H310      1.0  0.11762  0.58992  0.31523  1.0000
  C   C457      1.0  0.65060  0.10775  0.33110  1.0000
  N   N147      1.0  0.64317  0.09192  0.33294  1.0000
  C   C458      1.0  0.62052  0.07077  0.34217  1.0000
  C   C459      1.0  0.62968  0.05660  0.38148  1.0000
  C   C460      1.0  0.62220  0.03982  0.37837  1.0000
  C   C461      1.0  0.60590  0.03664  0.33905  1.0000
  H   H311      1.0  0.62848  0.02974  0.40856  1.0000
  H   H312      1.0  0.66372  0.10836  0.32567  1.0000
  C   C462      1.0  0.64631  0.05886  0.43007  1.0000
  H   H313      1.0  0.64504  0.06890  0.48119  1.0000
  H   H314      1.0  0.65641  0.06244  0.38240  1.0000
  H   H315      1.0  0.65054  0.04712  0.46436  1.0000
  C   C463      1.0  0.36197  0.90498  0.33641  1.0000
  N   N148      1.0  0.36941  0.92082  0.33792  1.0000
  C   C464      1.0  0.39211  0.94195  0.34513  1.0000
  C   C465      1.0  0.38316  0.95609  0.38603  1.0000
  C   C466      1.0  0.39060  0.97287  0.38205  1.0000
  C   C467      1.0  0.40669  0.97607  0.34040  1.0000
  H   H316      1.0  0.38449  0.98294  0.41330  1.0000
  H   H317      1.0  0.34885  0.90438  0.33227  1.0000
  C   C468      1.0  0.36680  0.95378  0.43710  1.0000
  H   H318      1.0  0.36836  0.94370  0.48778  1.0000
  H   H319      1.0  0.35645  0.95022  0.39094  1.0000
  H   H320      1.0  0.36276  0.96549  0.47228  1.0000
  C   C469      1.0  0.10767  0.36199  0.33589  1.0000
  N   N149      1.0  0.09183  0.36943  0.33748  1.0000
  C   C470      1.0  0.07071  0.39212  0.34493  1.0000
  C   C471      1.0  0.05657  0.38316  0.38576  1.0000
  C   C472      1.0  0.03978  0.39061  0.38184  1.0000
  C   C473      1.0  0.03659  0.40671  0.34034  1.0000
  H   H321      1.0  0.02972  0.38449  0.41302  1.0000
  H   H322      1.0  0.10827  0.34887  0.33161  1.0000
  C   C474      1.0  0.05888  0.36679  0.43671  1.0000
  H   H323      1.0  0.06896  0.36834  0.48739  1.0000
  H   H324      1.0  0.06244  0.35645  0.39046  1.0000
  H   H325      1.0  0.04717  0.36275  0.47185  1.0000
  C   C475      1.0  0.90492  0.65064  0.33161  1.0000
  N   N150      1.0  0.92076  0.64320  0.33340  1.0000
  C   C476      1.0  0.94190  0.62054  0.34245  1.0000
  C   C477      1.0  0.95608  0.62969  0.38178  1.0000
  C   C478      1.0  0.97285  0.62221  0.37863  1.0000
  C   C479      1.0  0.97603  0.60592  0.33923  1.0000
  H   H326      1.0  0.98293  0.62848  0.40884  1.0000
  H   H327      1.0  0.90432  0.66375  0.32629  1.0000
  C   C480      1.0  0.95383  0.64633  0.43043  1.0000
  H   H328      1.0  0.94379  0.64505  0.48155  1.0000
  H   H329      1.0  0.95024  0.65643  0.38280  1.0000
  H   H330      1.0  0.96557  0.65055  0.46471  1.0000
  C   C481      1.0  0.55239  0.00453  0.34957  1.0000
  C   C482      1.0  0.51545  0.00499  0.34537  1.0000
  C   C483      1.0  0.52445  0.98903  0.33524  1.0000
  C   C484      1.0  0.54276  0.98920  0.33776  1.0000
  H   H331      1.0  0.54926  0.97784  0.32931  1.0000
  C   C485      1.0  0.46970  0.99408  0.38190  1.0000
  N   N151      1.0  0.48716  0.99437  0.37942  1.0000
  H   H332      1.0  0.46375  0.98369  0.41069  1.0000
  C   C486      1.0  0.51556  0.97232  0.31846  1.0000
  H   H333      1.0  0.50841  0.96845  0.37848  1.0000
  H   H334      1.0  0.52450  0.96188  0.30228  1.0000
  H   H335      1.0  0.50669  0.97360  0.26169  1.0000
  C   C487      1.0  0.00812  0.55240  0.34958  1.0000
  C   C488      1.0  0.00767  0.51545  0.34529  1.0000
  C   C489      1.0  0.02362  0.52446  0.33506  1.0000
  C   C490      1.0  0.02345  0.54277  0.33762  1.0000
  H   H336      1.0  0.03481  0.54927  0.32910  1.0000
  C   C491      1.0  0.01856  0.46971  0.38194  1.0000
  N   N152      1.0  0.01827  0.48717  0.37945  1.0000
  H   H337      1.0  0.02893  0.46376  0.41082  1.0000
  C   C492      1.0  0.04032  0.51556  0.31811  1.0000
  H   H338      1.0  0.04421  0.50841  0.37808  1.0000
  H   H339      1.0  0.05076  0.52450  0.30185  1.0000
  H   H340      1.0  0.03902  0.50669  0.26133  1.0000
  C   C493      1.0  0.18974  0.39291  0.34915  1.0000
  N   N153      1.0  0.20603  0.39948  0.34992  1.0000
  C   C494      1.0  0.23709  0.39907  0.33484  1.0000
  C   C495      1.0  0.24244  0.40948  0.40923  1.0000
  C   C496      1.0  0.25961  0.41588  0.41000  1.0000
  C   C497      1.0  0.27154  0.41171  0.34131  1.0000
  H   H341      1.0  0.26375  0.42322  0.46326  1.0000
  H   H342      1.0  0.17981  0.40045  0.37126  1.0000
  C   C498      1.0  0.23107  0.41304  0.48789  1.0000
  H   H343      1.0  0.22621  0.40096  0.51566  1.0000
  H   H344      1.0  0.22022  0.42104  0.46686  1.0000
  H   H345      1.0  0.23774  0.41985  0.54217  1.0000
  C   C499      1.0  0.82286  0.61977  0.34667  1.0000
  N   N154      1.0  0.80657  0.61321  0.34759  1.0000
  C   C500      1.0  0.77550  0.61363  0.33304  1.0000
  C   C501      1.0  0.77019  0.60317  0.40734  1.0000
  C   C502      1.0  0.75302  0.59678  0.40832  1.0000
  C   C503      1.0  0.74104  0.60100  0.33992  1.0000
  H   H346      1.0  0.74892  0.58941  0.46152  1.0000
  H   H347      1.0  0.83281  0.61221  0.36847  1.0000
  C   C504      1.0  0.78162  0.59955  0.48573  1.0000
  H   H348      1.0  0.78649  0.61161  0.51362  1.0000
  H   H349      1.0  0.79244  0.59157  0.46437  1.0000
  H   H350      1.0  0.77498  0.59271  0.54001  1.0000
  C   C505      1.0  0.61974  0.18982  0.34653  1.0000
  N   N155      1.0  0.61316  0.20610  0.34751  1.0000
  C   C506      1.0  0.61358  0.23717  0.33291  1.0000
  C   C507      1.0  0.60313  0.24249  0.40728  1.0000
  C   C508      1.0  0.59674  0.25966  0.40825  1.0000
  C   C509      1.0  0.60094  0.27162  0.33979  1.0000
  H   H351      1.0  0.58939  0.26376  0.46151  1.0000
  H   H352      1.0  0.61218  0.17987  0.36839  1.0000
  C   C510      1.0  0.59955  0.23106  0.48573  1.0000
  H   H353      1.0  0.61162  0.22620  0.51354  1.0000
  H   H354      1.0  0.59156  0.22023  0.46445  1.0000
  H   H355      1.0  0.59272  0.23771  0.54005  1.0000
  C   C511      1.0  0.39290  0.82291  0.34931  1.0000
  N   N156      1.0  0.39946  0.80663  0.35003  1.0000
  C   C512      1.0  0.39904  0.77556  0.33496  1.0000
  C   C513      1.0  0.40947  0.77021  0.40929  1.0000
  C   C514      1.0  0.41586  0.75304  0.41007  1.0000
  C   C515      1.0  0.41166  0.74110  0.34144  1.0000
  H   H356      1.0  0.42320  0.74890  0.46329  1.0000
  H   H357      1.0  0.40045  0.83284  0.37143  1.0000
  C   C516      1.0  0.41306  0.78159  0.48790  1.0000
  H   H358      1.0  0.40098  0.78646  0.51572  1.0000
  H   H359      1.0  0.42105  0.79243  0.46679  1.0000
  H   H360      1.0  0.41987  0.77492  0.54215  1.0000
  C   C517      1.0  0.82203  0.37554  0.35079  1.0000
  C   C518      1.0  0.78830  0.39088  0.34826  1.0000
  C   C519      1.0  0.79018  0.37312  0.37147  1.0000
  C   C520      1.0  0.80698  0.36600  0.37260  1.0000
  H   H361      1.0  0.80820  0.35325  0.38909  1.0000
  C   C521      1.0  0.74284  0.40059  0.40058  1.0000
  N   N157      1.0  0.75937  0.39495  0.40093  1.0000
  H   H362      1.0  0.73459  0.39615  0.44911  1.0000
  C   C522      1.0  0.77537  0.36134  0.38945  1.0000
  H   H363      1.0  0.76597  0.36225  0.33480  1.0000
  H   H364      1.0  0.76924  0.36480  0.45313  1.0000
  H   H365      1.0  0.77918  0.34782  0.39456  1.0000
  C   C523      1.0  0.19059  0.63728  0.35358  1.0000
  C   C524      1.0  0.22431  0.62192  0.35051  1.0000
  C   C525      1.0  0.22247  0.63972  0.37297  1.0000
  C   C526      1.0  0.20568  0.64684  0.37441  1.0000
  H   H366      1.0  0.20450  0.65962  0.39045  1.0000
  C   C527      1.0  0.26980  0.61224  0.40207  1.0000
  N   N158      1.0  0.25328  0.61789  0.40262  1.0000
  H   H367      1.0  0.27810  0.61674  0.45024  1.0000
  C   C528      1.0  0.23731  0.65151  0.38992  1.0000
  H   H368      1.0  0.24665  0.65049  0.33503  1.0000
  H   H369      1.0  0.24352  0.64815  0.45358  1.0000
  H   H370      1.0  0.23352  0.66504  0.39451  1.0000
  C   C529      1.0  0.37546  0.19062  0.35083  1.0000
  C   C530      1.0  0.39080  0.22435  0.34831  1.0000
  C   C531      1.0  0.37302  0.22247  0.37129  1.0000
  C   C532      1.0  0.36591  0.20567  0.37244  1.0000
  H   H371      1.0  0.35316  0.20446  0.38880  1.0000
  C   C533      1.0  0.40048  0.26981  0.40065  1.0000
  N   N159      1.0  0.39485  0.25328  0.40098  1.0000
  H   H372      1.0  0.39603  0.27807  0.44913  1.0000
  C   C534      1.0  0.36124  0.23728  0.38907  1.0000
  H   H373      1.0  0.36218  0.24667  0.33440  1.0000
  H   H374      1.0  0.36467  0.24343  0.45278  1.0000
  H   H375      1.0  0.34772  0.23347  0.39402  1.0000
  C   C535      1.0  0.63721  0.82207  0.35354  1.0000
  C   C536      1.0  0.62184  0.78836  0.35045  1.0000
  C   C537      1.0  0.63962  0.79020  0.37330  1.0000
  C   C538      1.0  0.64675  0.80699  0.37474  1.0000
  H   H376      1.0  0.65951  0.80819  0.39103  1.0000
  C   C539      1.0  0.61213  0.74287  0.40207  1.0000
  N   N160      1.0  0.61778  0.75939  0.40264  1.0000
  H   H377      1.0  0.61659  0.73458  0.45038  1.0000
  C   C540      1.0  0.65141  0.77537  0.39067  1.0000
  H   H378      1.0  0.65043  0.76602  0.33583  1.0000
  H   H379      1.0  0.64799  0.76918  0.45429  1.0000
  H   H380      1.0  0.66493  0.77916  0.39556  1.0000
  C   C541      1.0  0.31449  0.55237  0.33138  1.0000
  C   C542      1.0  0.31496  0.51555  0.33940  1.0000
  C   C543      1.0  0.32676  0.52525  0.39311  1.0000
  C   C544      1.0  0.32635  0.54358  0.38741  1.0000
  H   H381      1.0  0.33420  0.55071  0.42860  1.0000
  C   C545      1.0  0.32573  0.46895  0.34250  1.0000
  N   N161      1.0  0.32640  0.48651  0.34048  1.0000
  H   H382      1.0  0.33704  0.46223  0.33970  1.0000
  C   C546      1.0  0.33850  0.51680  0.45890  1.0000
  H   H383      1.0  0.33108  0.50877  0.50518  1.0000
  H   H384      1.0  0.34575  0.52610  0.49930  1.0000
  H   H385      1.0  0.34780  0.50878  0.42309  1.0000
  C   C547      1.0  0.69809  0.46035  0.33036  1.0000
  C   C548      1.0  0.69761  0.49717  0.33853  1.0000
  C   C549      1.0  0.68583  0.48746  0.39227  1.0000
  C   C550      1.0  0.68623  0.46913  0.38649  1.0000
  H   H386      1.0  0.67840  0.46200  0.42769  1.0000
  C   C551      1.0  0.68684  0.54377  0.34170  1.0000
  N   N162      1.0  0.68617  0.52621  0.33965  1.0000
  H   H387      1.0  0.67554  0.55050  0.33884  1.0000
  C   C552      1.0  0.67410  0.49590  0.45817  1.0000
  H   H388      1.0  0.68153  0.50392  0.50445  1.0000
  H   H389      1.0  0.66686  0.48660  0.49856  1.0000
  H   H390      1.0  0.66480  0.50393  0.42246  1.0000
  C   C553      1.0  0.46028  0.31455  0.33053  1.0000
  C   C554      1.0  0.49710  0.31504  0.33855  1.0000
  C   C555      1.0  0.48740  0.32684  0.39225  1.0000
  C   C556      1.0  0.46907  0.32643  0.38653  1.0000
  H   H391      1.0  0.46194  0.33427  0.42770  1.0000
  C   C557      1.0  0.54370  0.32582  0.34157  1.0000
  N   N163      1.0  0.52614  0.32649  0.33957  1.0000
  H   H392      1.0  0.55042  0.33712  0.33866  1.0000
  C   C558      1.0  0.49584  0.33858  0.45804  1.0000
  H   H393      1.0  0.50387  0.33117  0.50435  1.0000
  H   H394      1.0  0.48654  0.34584  0.49841  1.0000
  H   H395      1.0  0.50386  0.34788  0.42224  1.0000
  C   C559      1.0  0.55232  0.69818  0.33132  1.0000
  C   C560      1.0  0.51550  0.69769  0.33939  1.0000
  C   C561      1.0  0.52521  0.68589  0.39306  1.0000
  C   C562      1.0  0.54353  0.68630  0.38733  1.0000
  H   H396      1.0  0.55067  0.67845  0.42848  1.0000
  C   C563      1.0  0.46890  0.68691  0.34258  1.0000
  N   N164      1.0  0.48646  0.68624  0.34052  1.0000
  H   H397      1.0  0.46218  0.67560  0.33976  1.0000
  C   C564      1.0  0.51676  0.67414  0.45885  1.0000
  H   H398      1.0  0.50873  0.68155  0.50516  1.0000
  H   H399      1.0  0.52606  0.66689  0.49922  1.0000
  H   H400      1.0  0.50874  0.66484  0.42305  1.0000
  C   C565      1.0  0.35057  0.40459  0.33682  1.0000
  N   N165      1.0  0.36299  0.39216  0.33867  1.0000
  C   C566      1.0  0.37481  0.36321  0.34678  1.0000
  C   C567      1.0  0.39116  0.36610  0.38880  1.0000
  C   C568      1.0  0.40387  0.35282  0.38554  1.0000
  C   C569      1.0  0.40079  0.33670  0.34372  1.0000
  H   H401      1.0  0.41547  0.35468  0.41698  1.0000
  H   H402      1.0  0.35431  0.41717  0.33128  1.0000
  C   C570      1.0  0.39501  0.38216  0.43970  1.0000
  H   H403      1.0  0.38509  0.38438  0.49055  1.0000
  H   H404      1.0  0.39541  0.39309  0.39346  1.0000
  H   H405      1.0  0.40742  0.38164  0.47451  1.0000
  C   C571      1.0  0.66202  0.60814  0.33650  1.0000
  N   N166      1.0  0.64960  0.62056  0.33852  1.0000
  C   C572      1.0  0.63778  0.64952  0.34682  1.0000
  C   C573      1.0  0.62145  0.64662  0.38902  1.0000
  C   C574      1.0  0.60874  0.65990  0.38596  1.0000
  C   C575      1.0  0.61180  0.67603  0.34418  1.0000
  H   H406      1.0  0.59715  0.65803  0.41751  1.0000
  H   H407      1.0  0.65827  0.59556  0.33102  1.0000
  C   C576      1.0  0.61762  0.63055  0.43988  1.0000
  H   H408      1.0  0.62756  0.62832  0.49061  1.0000
  H   H409      1.0  0.61720  0.61963  0.39360  1.0000
  H   H410      1.0  0.60523  0.63107  0.47484  1.0000
  C   C577      1.0  0.60806  0.35065  0.33616  1.0000
  N   N167      1.0  0.62049  0.36307  0.33811  1.0000
  C   C578      1.0  0.64945  0.37489  0.34628  1.0000
  C   C579      1.0  0.64656  0.39122  0.38851  1.0000
  C   C580      1.0  0.65984  0.40393  0.38533  1.0000
  C   C581      1.0  0.67595  0.40087  0.34342  1.0000
  H   H411      1.0  0.65798  0.41551  0.41690  1.0000
  H   H412      1.0  0.59548  0.35440  0.33069  1.0000
  C   C582      1.0  0.63050  0.39504  0.43952  1.0000
  H   H413      1.0  0.62829  0.38510  0.49026  1.0000
  H   H414      1.0  0.61957  0.39546  0.39333  1.0000
  H   H415      1.0  0.63103  0.40744  0.47447  1.0000
  C   C583      1.0  0.40453  0.66208  0.33720  1.0000
  N   N168      1.0  0.39210  0.64966  0.33913  1.0000
  C   C584      1.0  0.36314  0.63783  0.34734  1.0000
  C   C585      1.0  0.36605  0.62149  0.38938  1.0000
  C   C586      1.0  0.35276  0.60878  0.38625  1.0000
  C   C587      1.0  0.33663  0.61186  0.34456  1.0000
  H   H416      1.0  0.35464  0.59718  0.41769  1.0000
  H   H417      1.0  0.41711  0.65833  0.33172  1.0000
  C   C588      1.0  0.38213  0.61764  0.44015  1.0000
  H   H418      1.0  0.38436  0.62757  0.49096  1.0000
  H   H419      1.0  0.39304  0.61724  0.39383  1.0000
  H   H420      1.0  0.38161  0.60523  0.47499  1.0000
