data_image0
_chemical_formula_structural       C2H2C2H2C2H2C2H2C4HCH3C4HCH3C2H2C2H2C4HCH3C4HCH3C2H2C2H2C2H2C2H2C4HCH3C4HCH3C4HCH3C4HCH3C6H3C6H3C6H3C6H3C6H3C6H3C6H3C6H3C6H3C6H3C6H3C6H3C4HCH3C4HCH3C4HCH3C4HCH3C2H2C2H2C4HCH3C4HCH3C2H2C2H2C4HCH3C4HCH3C4HCH3C4HCH3C2H2C2H2C2H2C2H2C2H2C2H2C2H2C2H2C4HCH3C4HCH3C2H2C2H2C4HCH3C4HCH3C2H2C2H2C2H2C2H2C4HCH3C4HCH3C4HCH3C4HCH3C6H3C6H3C6H3C6H3C6H3C6H3C6H3C6H3C6H3C6H3C6H3C6H3C4HCH3C4HCH3C4HCH3C4HCH3C2H2C2H2C4HCH3C4HCH3C2H2C2H2C4HCH3C4HCH3C4HCH3C4HCH3C2H2C2H2C2H2C2H2
_chemical_formula_sum              "C396 H288"
_cell_length_a       42.926
_cell_length_b       55.6519
_cell_length_c       14.8807
_cell_angle_alpha    90
_cell_angle_beta     90
_cell_angle_gamma    90

_space_group_name_H-M_alt    "P 1"
_space_group_IT_number       1

loop_
  _space_group_symop_operation_xyz
  'x, y, z'

loop_
  _atom_site_type_symbol
  _atom_site_label
  _atom_site_symmetry_multiplicity
  _atom_site_fract_x
  _atom_site_fract_y
  _atom_site_fract_z
  _atom_site_occupancy
  C   C1        1.0  0.23768  0.15316  0.32893  1.0000
  C   C2        1.0  0.27059  0.15316  0.32847  1.0000
  H   H1        1.0  0.22667  0.14190  0.28487  1.0000
  H   H2        1.0  0.28184  0.14176  0.28534  1.0000
  C   C3        1.0  0.27010  0.85478  0.32859  1.0000
  C   C4        1.0  0.23718  0.85483  0.32807  1.0000
  H   H3        1.0  0.28117  0.86598  0.28442  1.0000
  H   H4        1.0  0.22603  0.86616  0.28450  1.0000
  C   C5        1.0  0.48682  0.65269  0.33283  1.0000
  C   C6        1.0  0.01974  0.65269  0.33289  1.0000
  H   H5        1.0  0.47592  0.64177  0.28737  1.0000
  H   H6        1.0  0.03104  0.64169  0.28846  1.0000
  C   C7        1.0  0.02094  0.35528  0.33258  1.0000
  C   C8        1.0  0.48804  0.35529  0.33239  1.0000
  H   H7        1.0  0.03191  0.36616  0.28712  1.0000
  H   H8        1.0  0.47678  0.36628  0.28782  1.0000
  C   C9        1.0  0.06110  0.10790  0.30639  1.0000
  C   C10       1.0  0.06030  0.12902  0.25325  1.0000
  C   C11       1.0  0.08545  0.14537  0.24766  1.0000
  C   C12       1.0  0.11216  0.14209  0.30386  1.0000
  H   H9        1.0  0.04118  0.13209  0.21359  1.0000
  C   C13       1.0  0.08315  0.16378  0.17491  1.0000
  H   H10       1.0  0.07608  0.15532  0.11188  1.0000
  H   H11       1.0  0.10526  0.17269  0.16131  1.0000
  H   H12       1.0  0.06578  0.17728  0.19285  1.0000
  C   C14       1.0  0.44657  0.90012  0.30750  1.0000
  C   C15       1.0  0.44732  0.87908  0.25384  1.0000
  C   C16       1.0  0.42223  0.86268  0.24827  1.0000
  C   C17       1.0  0.39558  0.86588  0.30472  1.0000
  H   H13       1.0  0.46637  0.87612  0.21379  1.0000
  C   C18       1.0  0.42448  0.84437  0.17517  1.0000
  H   H14       1.0  0.43148  0.85292  0.11222  1.0000
  H   H15       1.0  0.40238  0.83545  0.16161  1.0000
  H   H16       1.0  0.44190  0.83087  0.19273  1.0000
  C   C19       1.0  0.39414  0.11987  0.32248  1.0000
  C   C20       1.0  0.41873  0.10295  0.31880  1.0000
  H   H17       1.0  0.37451  0.11619  0.28603  1.0000
  H   H18       1.0  0.41573  0.08789  0.28034  1.0000
  C   C21       1.0  0.11363  0.88812  0.32062  1.0000
  C   C22       1.0  0.08904  0.90504  0.31681  1.0000
  H   H19       1.0  0.13325  0.89177  0.28407  1.0000
  H   H20       1.0  0.09202  0.92007  0.27817  1.0000
  C   C23       1.0  0.31045  0.60788  0.30298  1.0000
  C   C24       1.0  0.30987  0.62903  0.24999  1.0000
  C   C25       1.0  0.33509  0.64535  0.24520  1.0000
  C   C26       1.0  0.36160  0.64198  0.30208  1.0000
  H   H21       1.0  0.29089  0.63213  0.20979  1.0000
  C   C27       1.0  0.33313  0.66377  0.17245  1.0000
  H   H22       1.0  0.32628  0.65533  0.10917  1.0000
  H   H23       1.0  0.35532  0.67265  0.15964  1.0000
  H   H24       1.0  0.31573  0.67729  0.18985  1.0000
  C   C28       1.0  0.19717  0.40016  0.30393  1.0000
  C   C29       1.0  0.19768  0.37912  0.25029  1.0000
  C   C30       1.0  0.17252  0.36276  0.24557  1.0000
  C   C31       1.0  0.14610  0.36601  0.30285  1.0000
  H   H25       1.0  0.21660  0.37610  0.20980  1.0000
  C   C32       1.0  0.17447  0.34436  0.17273  1.0000
  H   H26       1.0  0.18124  0.35282  0.10944  1.0000
  H   H27       1.0  0.15229  0.33544  0.16005  1.0000
  H   H28       1.0  0.19192  0.33086  0.18998  1.0000
  C   C33       1.0  0.14333  0.61987  0.32097  1.0000
  C   C34       1.0  0.16793  0.60297  0.31657  1.0000
  H   H29       1.0  0.12349  0.61608  0.28563  1.0000
  H   H30       1.0  0.16479  0.58782  0.27874  1.0000
  C   C35       1.0  0.36441  0.38815  0.31915  1.0000
  C   C36       1.0  0.33979  0.40503  0.31462  1.0000
  H   H31       1.0  0.38425  0.39190  0.28372  1.0000
  H   H32       1.0  0.34292  0.42017  0.27669  1.0000
  C   C37       1.0  0.14434  0.24398  0.26732  1.0000
  C   C38       1.0  0.13734  0.26870  0.26852  1.0000
  H   H33       1.0  0.15548  0.23705  0.21225  1.0000
  H   H34       1.0  0.14297  0.27892  0.21365  1.0000
  C   C39       1.0  0.36350  0.76400  0.26707  1.0000
  C   C40       1.0  0.37049  0.73928  0.26822  1.0000
  H   H35       1.0  0.35243  0.77095  0.21191  1.0000
  H   H36       1.0  0.36494  0.72908  0.21323  1.0000
  C   C41       1.0  0.38686  0.27903  0.34818  1.0000
  C   C42       1.0  0.37827  0.26791  0.26655  1.0000
  C   C43       1.0  0.37105  0.24305  0.26233  1.0000
  C   C44       1.0  0.37257  0.22905  0.34236  1.0000
  H   H37       1.0  0.37777  0.27804  0.20910  1.0000
  C   C45       1.0  0.36266  0.23199  0.17456  1.0000
  H   H38       1.0  0.36335  0.24486  0.11920  1.0000
  H   H39       1.0  0.33914  0.22461  0.17785  1.0000
  H   H40       1.0  0.37895  0.21752  0.15896  1.0000
  C   C46       1.0  0.12084  0.72899  0.34849  1.0000
  C   C47       1.0  0.12897  0.74014  0.26651  1.0000
  C   C48       1.0  0.13620  0.76499  0.26208  1.0000
  C   C49       1.0  0.13515  0.77896  0.34224  1.0000
  H   H41       1.0  0.12917  0.73001  0.20902  1.0000
  C   C50       1.0  0.14419  0.77606  0.17403  1.0000
  H   H42       1.0  0.14324  0.76320  0.11866  1.0000
  H   H43       1.0  0.16773  0.78344  0.17645  1.0000
  H   H44       1.0  0.12784  0.79054  0.15909  1.0000
  C   C51       1.0  0.00356  0.97814  0.32918  1.0000
  C   C52       1.0  0.00865  0.99092  0.24841  1.0000
  C   C53       1.0  0.00883  0.01645  0.24548  1.0000
  C   C54       1.0  0.00408  0.02977  0.32627  1.0000
  H   H45       1.0  0.01202  0.98135  0.19039  1.0000
  C   C55       1.0  0.01316  0.02880  0.15763  1.0000
  H   H46       1.0  0.01536  0.01624  0.10162  1.0000
  H   H47       1.0  0.03422  0.03976  0.15934  1.0000
  H   H48       1.0  0.49319  0.04039  0.14399  1.0000
  C   C56       1.0  0.25406  0.47814  0.32663  1.0000
  C   C57       1.0  0.25888  0.49094  0.24579  1.0000
  C   C58       1.0  0.25861  0.51647  0.24272  1.0000
  C   C59       1.0  0.25359  0.52978  0.32342  1.0000
  H   H49       1.0  0.26240  0.48139  0.18781  1.0000
  C   C60       1.0  0.26277  0.52883  0.15480  1.0000
  H   H50       1.0  0.26515  0.51626  0.09886  1.0000
  H   H51       1.0  0.28367  0.53996  0.15643  1.0000
  H   H52       1.0  0.24263  0.54023  0.14110  1.0000
  C   C61       1.0  0.14583  0.20432  0.33771  1.0000
  C   C62       1.0  0.17731  0.19871  0.35244  1.0000
  C   C63       1.0  0.18827  0.17472  0.35841  1.0000
  C   C64       1.0  0.16652  0.15617  0.33878  1.0000
  C   C65       1.0  0.13451  0.16076  0.32005  1.0000
  C   C66       1.0  0.12481  0.18521  0.32425  1.0000
  H   H53       1.0  0.17428  0.13881  0.33883  1.0000
  H   H54       1.0  0.10169  0.18944  0.31918  1.0000
  H   H55       1.0  0.19264  0.21272  0.35852  1.0000
  C   C67       1.0  0.36189  0.80362  0.33769  1.0000
  C   C68       1.0  0.33041  0.80923  0.35236  1.0000
  C   C69       1.0  0.31945  0.83321  0.35837  1.0000
  C   C70       1.0  0.34121  0.85178  0.33912  1.0000
  C   C71       1.0  0.37323  0.84719  0.32053  1.0000
  C   C72       1.0  0.38293  0.82274  0.32445  1.0000
  H   H56       1.0  0.33346  0.86914  0.33934  1.0000
  H   H57       1.0  0.40605  0.81852  0.31938  1.0000
  H   H58       1.0  0.31508  0.79522  0.35833  1.0000
  C   C73       1.0  0.36287  0.20460  0.34565  1.0000
  C   C74       1.0  0.33113  0.19926  0.35672  1.0000
  C   C75       1.0  0.31997  0.17531  0.36073  1.0000
  C   C76       1.0  0.34214  0.15642  0.35352  1.0000
  C   C77       1.0  0.37477  0.16108  0.35462  1.0000
  C   C78       1.0  0.38428  0.18545  0.34558  1.0000
  H   H59       1.0  0.33457  0.13915  0.36228  1.0000
  H   H60       1.0  0.40740  0.18953  0.33825  1.0000
  H   H61       1.0  0.31571  0.21333  0.35722  1.0000
  C   C79       1.0  0.14486  0.80341  0.34515  1.0000
  C   C80       1.0  0.17660  0.80873  0.35625  1.0000
  C   C81       1.0  0.18779  0.83269  0.36000  1.0000
  C   C82       1.0  0.16564  0.85158  0.35250  1.0000
  C   C83       1.0  0.13300  0.84694  0.35340  1.0000
  C   C84       1.0  0.12347  0.82257  0.34468  1.0000
  H   H62       1.0  0.17326  0.86885  0.36090  1.0000
  H   H63       1.0  0.10035  0.81850  0.33740  1.0000
  H   H64       1.0  0.19201  0.79466  0.35696  1.0000
  C   C85       1.0  0.39527  0.70412  0.34128  1.0000
  C   C86       1.0  0.42652  0.69813  0.35878  1.0000
  C   C87       1.0  0.43739  0.67411  0.36297  1.0000
  C   C88       1.0  0.41573  0.65578  0.34027  1.0000
  C   C89       1.0  0.38393  0.66059  0.31948  1.0000
  C   C90       1.0  0.37444  0.68511  0.32327  1.0000
  H   H65       1.0  0.42341  0.63841  0.33959  1.0000
  H   H66       1.0  0.35137  0.68939  0.31708  1.0000
  H   H67       1.0  0.44208  0.71197  0.36545  1.0000
  C   C91       1.0  0.11246  0.30383  0.34150  1.0000
  C   C92       1.0  0.08120  0.30982  0.35890  1.0000
  C   C93       1.0  0.07033  0.33384  0.36312  1.0000
  C   C94       1.0  0.09200  0.35218  0.34072  1.0000
  C   C95       1.0  0.12380  0.34737  0.32009  1.0000
  C   C96       1.0  0.13330  0.32286  0.32364  1.0000
  H   H68       1.0  0.08433  0.36955  0.34009  1.0000
  H   H69       1.0  0.15637  0.31859  0.31743  1.0000
  H   H70       1.0  0.06564  0.29598  0.36548  1.0000
  C   C97       1.0  0.11141  0.70451  0.35117  1.0000
  C   C98       1.0  0.07989  0.69887  0.36506  1.0000
  C   C99       1.0  0.06894  0.67483  0.36674  1.0000
  C   C100      1.0  0.09125  0.65615  0.35625  1.0000
  C   C101      1.0  0.12382  0.66100  0.35446  1.0000
  C   C102      1.0  0.13293  0.68547  0.34540  1.0000
  H   H71       1.0  0.08391  0.63877  0.36376  1.0000
  H   H72       1.0  0.15592  0.68971  0.33623  1.0000
  H   H73       1.0  0.06433  0.71283  0.36781  1.0000
  C   C103      1.0  0.39630  0.30351  0.35051  1.0000
  C   C104      1.0  0.42782  0.30916  0.36448  1.0000
  C   C105      1.0  0.43879  0.33320  0.36600  1.0000
  C   C106      1.0  0.41651  0.35188  0.35509  1.0000
  C   C107      1.0  0.38394  0.34704  0.35312  1.0000
  C   C108      1.0  0.37482  0.32256  0.34433  1.0000
  H   H74       1.0  0.42385  0.36926  0.36248  1.0000
  H   H75       1.0  0.35182  0.31833  0.33512  1.0000
  H   H76       1.0  0.44337  0.29520  0.36753  1.0000
  C   C109      1.0  0.03357  0.09384  0.31836  1.0000
  C   C110      1.0  0.50469  0.10586  0.32793  1.0000
  C   C111      1.0  0.47567  0.09412  0.33980  1.0000
  C   C112      1.0  0.47596  0.06867  0.33437  1.0000
  C   C113      1.0  0.00431  0.05556  0.32879  1.0000
  C   C114      1.0  0.03289  0.06841  0.32480  1.0000
  H   H77       1.0  0.45546  0.05943  0.34070  1.0000
  H   H78       1.0  0.05327  0.05901  0.31853  1.0000
  H   H79       1.0  0.50484  0.12423  0.32693  1.0000
  C   C115      1.0  0.47409  0.91420  0.31933  1.0000
  C   C116      1.0  0.00304  0.90220  0.32745  1.0000
  C   C117      1.0  0.03210  0.91392  0.33840  1.0000
  C   C118      1.0  0.03179  0.93937  0.33279  1.0000
  C   C119      1.0  0.50336  0.95244  0.33018  1.0000
  C   C120      1.0  0.47476  0.93961  0.32715  1.0000
  H   H80       1.0  0.05228  0.94862  0.33908  1.0000
  H   H81       1.0  0.45435  0.94903  0.32188  1.0000
  H   H82       1.0  0.00292  0.88382  0.32616  1.0000
  C   C121      1.0  0.28288  0.59384  0.31452  1.0000
  C   C122      1.0  0.25399  0.60587  0.32350  1.0000
  C   C123      1.0  0.22499  0.59415  0.33607  1.0000
  C   C124      1.0  0.22529  0.56868  0.33116  1.0000
  C   C125      1.0  0.25365  0.55557  0.32581  1.0000
  C   C126      1.0  0.28221  0.56844  0.32160  1.0000
  H   H83       1.0  0.20482  0.55943  0.33808  1.0000
  H   H84       1.0  0.30261  0.55904  0.31565  1.0000
  H   H85       1.0  0.25413  0.62424  0.32195  1.0000
  C   C127      1.0  0.22475  0.41421  0.31533  1.0000
  C   C128      1.0  0.25369  0.40219  0.32291  1.0000
  C   C129      1.0  0.28274  0.41389  0.33469  1.0000
  C   C130      1.0  0.28241  0.43936  0.33003  1.0000
  C   C131      1.0  0.25399  0.45244  0.32744  1.0000
  C   C132      1.0  0.22541  0.43959  0.32384  1.0000
  H   H86       1.0  0.30291  0.44859  0.33665  1.0000
  H   H87       1.0  0.20499  0.44901  0.31896  1.0000
  H   H88       1.0  0.25356  0.38381  0.32095  1.0000
  C   C133      1.0  0.28749  0.17141  0.37321  1.0000
  C   C134      1.0  0.27032  0.18674  0.43071  1.0000
  C   C135      1.0  0.23757  0.18590  0.43706  1.0000
  C   C136      1.0  0.22046  0.17070  0.37740  1.0000
  H   H89       1.0  0.28212  0.19832  0.47210  1.0000
  C   C137      1.0  0.22330  0.20003  0.51177  1.0000
  H   H90       1.0  0.23514  0.19598  0.57495  1.0000
  H   H91       1.0  0.19875  0.19584  0.52205  1.0000
  H   H92       1.0  0.22563  0.21923  0.49830  1.0000
  C   C138      1.0  0.22026  0.83657  0.37268  1.0000
  C   C139      1.0  0.23737  0.82127  0.43043  1.0000
  C   C140      1.0  0.27012  0.82209  0.43694  1.0000
  C   C141      1.0  0.28727  0.83725  0.37727  1.0000
  H   H93       1.0  0.22554  0.80968  0.47172  1.0000
  C   C142      1.0  0.28435  0.80790  0.51156  1.0000
  H   H94       1.0  0.27251  0.81194  0.57475  1.0000
  H   H95       1.0  0.30890  0.81207  0.52191  1.0000
  H   H96       1.0  0.28199  0.78871  0.49797  1.0000
  C   C143      1.0  0.03653  0.67066  0.37950  1.0000
  C   C144      1.0  0.01926  0.68555  0.43834  1.0000
  C   C145      1.0  0.48648  0.68469  0.44402  1.0000
  C   C146      1.0  0.46950  0.66991  0.38262  1.0000
  H   H97       1.0  0.03097  0.69691  0.48076  1.0000
  C   C147      1.0  0.47204  0.69852  0.51922  1.0000
  H   H98       1.0  0.48367  0.69416  0.58243  1.0000
  H   H99       1.0  0.44744  0.69433  0.52859  1.0000
  H   H100      1.0  0.47447  0.71777  0.50701  1.0000
  C   C148      1.0  0.47119  0.33735  0.37901  1.0000
  C   C149      1.0  0.48841  0.32246  0.43799  1.0000
  C   C150      1.0  0.02117  0.32329  0.44384  1.0000
  C   C151      1.0  0.03822  0.33807  0.38256  1.0000
  H   H101      1.0  0.47665  0.31113  0.48042  1.0000
  C   C152      1.0  0.03556  0.30945  0.51912  1.0000
  H   H102      1.0  0.02389  0.31383  0.58227  1.0000
  H   H103      1.0  0.06015  0.31362  0.52861  1.0000
  H   H104      1.0  0.03311  0.29020  0.50690  1.0000
  C   C153      1.0  0.11438  0.11956  0.34890  1.0000
  C   C154      1.0  0.08981  0.10263  0.34848  1.0000
  H   H105      1.0  0.13267  0.11610  0.39097  1.0000
  H   H106      1.0  0.09173  0.08784  0.38897  1.0000
  C   C155      1.0  0.39339  0.88832  0.35038  1.0000
  C   C156      1.0  0.41789  0.90530  0.34996  1.0000
  H   H107      1.0  0.37509  0.89173  0.39246  1.0000
  H   H108      1.0  0.41604  0.92002  0.39084  1.0000
  C   C157      1.0  0.44848  0.10844  0.35420  1.0000
  C   C158      1.0  0.45057  0.12982  0.40561  1.0000
  C   C159      1.0  0.42572  0.14627  0.41495  1.0000
  C   C160      1.0  0.39768  0.14261  0.36492  1.0000
  H   H109      1.0  0.47047  0.13299  0.44177  1.0000
  C   C161      1.0  0.42990  0.16517  0.48531  1.0000
  H   H110      1.0  0.43899  0.15720  0.54709  1.0000
  H   H111      1.0  0.40817  0.17400  0.50371  1.0000
  H   H112      1.0  0.44644  0.17868  0.46184  1.0000
  C   C162      1.0  0.05931  0.89960  0.35246  1.0000
  C   C163      1.0  0.05729  0.87829  0.40436  1.0000
  C   C164      1.0  0.08212  0.86184  0.41374  1.0000
  C   C165      1.0  0.11012  0.86544  0.36350  1.0000
  H   H113      1.0  0.03741  0.87515  0.44071  1.0000
  C   C166      1.0  0.07800  0.84303  0.48445  1.0000
  H   H114      1.0  0.06897  0.85107  0.54616  1.0000
  H   H115      1.0  0.09975  0.83422  0.50285  1.0000
  H   H116      1.0  0.06144  0.82948  0.46135  1.0000
  C   C167      1.0  0.36354  0.61946  0.34728  1.0000
  C   C168      1.0  0.33898  0.60255  0.34595  1.0000
  H   H117      1.0  0.38167  0.61592  0.38983  1.0000
  H   H118      1.0  0.34070  0.58775  0.38646  1.0000
  C   C169      1.0  0.14418  0.38845  0.34863  1.0000
  C   C170      1.0  0.16869  0.40541  0.34728  1.0000
  H   H119      1.0  0.12612  0.39188  0.39155  1.0000
  H   H120      1.0  0.16702  0.42008  0.38845  1.0000
  C   C171      1.0  0.19784  0.60851  0.35077  1.0000
  C   C172      1.0  0.20011  0.62997  0.40168  1.0000
  C   C173      1.0  0.17529  0.64641  0.41173  1.0000
  C   C174      1.0  0.14700  0.64266  0.36295  1.0000
  H   H121      1.0  0.22016  0.63320  0.43710  1.0000
  C   C175      1.0  0.17978  0.66535  0.48180  1.0000
  H   H122      1.0  0.18941  0.65747  0.54305  1.0000
  H   H123      1.0  0.15809  0.67403  0.50157  1.0000
  H   H124      1.0  0.19599  0.67897  0.45728  1.0000
  C   C176      1.0  0.30990  0.39951  0.34898  1.0000
  C   C177      1.0  0.30767  0.37809  0.40014  1.0000
  C   C178      1.0  0.33251  0.36166  0.41033  1.0000
  C   C179      1.0  0.36077  0.36539  0.36140  1.0000
  H   H125      1.0  0.28767  0.37490  0.43584  1.0000
  C   C180      1.0  0.32808  0.34282  0.48076  1.0000
  H   H126      1.0  0.31850  0.35077  0.54194  1.0000
  H   H127      1.0  0.34979  0.33416  0.50055  1.0000
  H   H128      1.0  0.31187  0.32916  0.45659  1.0000
  C   C181      1.0  0.12186  0.27914  0.34256  1.0000
  C   C182      1.0  0.11413  0.26404  0.41586  1.0000
  C   C183      1.0  0.12133  0.23917  0.41652  1.0000
  C   C184      1.0  0.13614  0.22886  0.34006  1.0000
  H   H129      1.0  0.10332  0.27145  0.47062  1.0000
  C   C185      1.0  0.11394  0.22459  0.49767  1.0000
  H   H130      1.0  0.10347  0.23525  0.55140  1.0000
  H   H131      1.0  0.13522  0.21651  0.52414  1.0000
  H   H132      1.0  0.09757  0.21035  0.48023  1.0000
  C   C186      1.0  0.38587  0.72881  0.34238  1.0000
  C   C187      1.0  0.39351  0.74388  0.41585  1.0000
  C   C188      1.0  0.38630  0.76875  0.41657  1.0000
  C   C189      1.0  0.37159  0.77908  0.34000  1.0000
  H   H133      1.0  0.40424  0.73644  0.47068  1.0000
  C   C190      1.0  0.39358  0.78329  0.49789  1.0000
  H   H134      1.0  0.40399  0.77262  0.55166  1.0000
  H   H135      1.0  0.37226  0.79135  0.52418  1.0000
  H   H136      1.0  0.40996  0.79755  0.48071  1.0000
  C   C191      1.0  0.38119  0.24024  0.42391  1.0000
  C   C192      1.0  0.38857  0.26483  0.42659  1.0000
  H   H137      1.0  0.38199  0.23058  0.48248  1.0000
  H   H138      1.0  0.39496  0.27237  0.48663  1.0000
  C   C193      1.0  0.12696  0.76775  0.42413  1.0000
  C   C194      1.0  0.11958  0.74316  0.42706  1.0000
  H   H139      1.0  0.12649  0.77740  0.48277  1.0000
  H   H140      1.0  0.11351  0.73561  0.48733  1.0000
  C   C195      1.0  0.99875  0.01689  0.40689  1.0000
  C   C196      1.0  0.99843  0.99155  0.40835  1.0000
  H   H141      1.0  0.99521  0.02595  0.46592  1.0000
  H   H142      1.0  0.99465  0.98290  0.46809  1.0000
  C   C197      1.0  0.24849  0.51688  0.40411  1.0000
  C   C198      1.0  0.24863  0.49152  0.40569  1.0000
  H   H143      1.0  0.24480  0.52592  0.46309  1.0000
  H   H144      1.0  0.24494  0.48286  0.46546  1.0000
  C   C199      1.0  0.73768  0.15316  0.32893  1.0000
  C   C200      1.0  0.77059  0.15316  0.32847  1.0000
  H   H145      1.0  0.72667  0.14190  0.28487  1.0000
  H   H146      1.0  0.78184  0.14176  0.28534  1.0000
  C   C201      1.0  0.77010  0.85478  0.32859  1.0000
  C   C202      1.0  0.73718  0.85483  0.32807  1.0000
  H   H147      1.0  0.78117  0.86598  0.28442  1.0000
  H   H148      1.0  0.72603  0.86616  0.28450  1.0000
  C   C203      1.0  0.98682  0.65269  0.33283  1.0000
  C   C204      1.0  0.51974  0.65269  0.33289  1.0000
  H   H149      1.0  0.97592  0.64177  0.28737  1.0000
  H   H150      1.0  0.53104  0.64169  0.28846  1.0000
  C   C205      1.0  0.52094  0.35528  0.33258  1.0000
  C   C206      1.0  0.98804  0.35529  0.33239  1.0000
  H   H151      1.0  0.53192  0.36616  0.28712  1.0000
  H   H152      1.0  0.97678  0.36628  0.28782  1.0000
  C   C207      1.0  0.56110  0.10790  0.30639  1.0000
  C   C208      1.0  0.56030  0.12902  0.25325  1.0000
  C   C209      1.0  0.58545  0.14537  0.24766  1.0000
  C   C210      1.0  0.61216  0.14209  0.30386  1.0000
  H   H153      1.0  0.54118  0.13209  0.21359  1.0000
  C   C211      1.0  0.58315  0.16378  0.17491  1.0000
  H   H154      1.0  0.57608  0.15532  0.11188  1.0000
  H   H155      1.0  0.60526  0.17269  0.16131  1.0000
  H   H156      1.0  0.56578  0.17728  0.19285  1.0000
  C   C212      1.0  0.94657  0.90012  0.30750  1.0000
  C   C213      1.0  0.94732  0.87908  0.25384  1.0000
  C   C214      1.0  0.92223  0.86268  0.24827  1.0000
  C   C215      1.0  0.89558  0.86588  0.30472  1.0000
  H   H157      1.0  0.96637  0.87612  0.21379  1.0000
  C   C216      1.0  0.92448  0.84437  0.17517  1.0000
  H   H158      1.0  0.93148  0.85292  0.11222  1.0000
  H   H159      1.0  0.90238  0.83545  0.16161  1.0000
  H   H160      1.0  0.94190  0.83087  0.19273  1.0000
  C   C217      1.0  0.89414  0.11987  0.32248  1.0000
  C   C218      1.0  0.91873  0.10295  0.31880  1.0000
  H   H161      1.0  0.87451  0.11619  0.28603  1.0000
  H   H162      1.0  0.91572  0.08789  0.28034  1.0000
  C   C219      1.0  0.61363  0.88812  0.32062  1.0000
  C   C220      1.0  0.58904  0.90504  0.31681  1.0000
  H   H163      1.0  0.63325  0.89177  0.28407  1.0000
  H   H164      1.0  0.59202  0.92007  0.27817  1.0000
  C   C221      1.0  0.81045  0.60788  0.30298  1.0000
  C   C222      1.0  0.80987  0.62903  0.24999  1.0000
  C   C223      1.0  0.83509  0.64535  0.24520  1.0000
  C   C224      1.0  0.86160  0.64198  0.30208  1.0000
  H   H165      1.0  0.79089  0.63213  0.20979  1.0000
  C   C225      1.0  0.83313  0.66377  0.17245  1.0000
  H   H166      1.0  0.82628  0.65533  0.10917  1.0000
  H   H167      1.0  0.85532  0.67265  0.15964  1.0000
  H   H168      1.0  0.81573  0.67729  0.18985  1.0000
  C   C226      1.0  0.69717  0.40016  0.30393  1.0000
  C   C227      1.0  0.69768  0.37912  0.25029  1.0000
  C   C228      1.0  0.67252  0.36276  0.24557  1.0000
  C   C229      1.0  0.64609  0.36601  0.30285  1.0000
  H   H169      1.0  0.71660  0.37610  0.20980  1.0000
  C   C230      1.0  0.67446  0.34436  0.17273  1.0000
  H   H170      1.0  0.68124  0.35282  0.10944  1.0000
  H   H171      1.0  0.65229  0.33544  0.16005  1.0000
  H   H172      1.0  0.69192  0.33086  0.18998  1.0000
  C   C231      1.0  0.64333  0.61987  0.32097  1.0000
  C   C232      1.0  0.66793  0.60297  0.31657  1.0000
  H   H173      1.0  0.62349  0.61608  0.28563  1.0000
  H   H174      1.0  0.66479  0.58782  0.27874  1.0000
  C   C233      1.0  0.86441  0.38815  0.31915  1.0000
  C   C234      1.0  0.83979  0.40503  0.31462  1.0000
  H   H175      1.0  0.88425  0.39190  0.28372  1.0000
  H   H176      1.0  0.84292  0.42017  0.27669  1.0000
  C   C235      1.0  0.64434  0.24398  0.26732  1.0000
  C   C236      1.0  0.63734  0.26870  0.26852  1.0000
  H   H177      1.0  0.65548  0.23705  0.21225  1.0000
  H   H178      1.0  0.64297  0.27892  0.21365  1.0000
  C   C237      1.0  0.86350  0.76400  0.26707  1.0000
  C   C238      1.0  0.87049  0.73928  0.26822  1.0000
  H   H179      1.0  0.85243  0.77095  0.21191  1.0000
  H   H180      1.0  0.86495  0.72908  0.21323  1.0000
  C   C239      1.0  0.88686  0.27903  0.34818  1.0000
  C   C240      1.0  0.87827  0.26791  0.26655  1.0000
  C   C241      1.0  0.87105  0.24305  0.26233  1.0000
  C   C242      1.0  0.87257  0.22905  0.34236  1.0000
  H   H181      1.0  0.87777  0.27804  0.20910  1.0000
  C   C243      1.0  0.86266  0.23199  0.17456  1.0000
  H   H182      1.0  0.86335  0.24486  0.11920  1.0000
  H   H183      1.0  0.83914  0.22461  0.17785  1.0000
  H   H184      1.0  0.87895  0.21752  0.15896  1.0000
  C   C244      1.0  0.62084  0.72899  0.34849  1.0000
  C   C245      1.0  0.62897  0.74014  0.26651  1.0000
  C   C246      1.0  0.63620  0.76499  0.26208  1.0000
  C   C247      1.0  0.63515  0.77896  0.34224  1.0000
  H   H185      1.0  0.62917  0.73001  0.20902  1.0000
  C   C248      1.0  0.64419  0.77606  0.17403  1.0000
  H   H186      1.0  0.64324  0.76320  0.11866  1.0000
  H   H187      1.0  0.66773  0.78344  0.17645  1.0000
  H   H188      1.0  0.62784  0.79054  0.15909  1.0000
  C   C249      1.0  0.50356  0.97814  0.32918  1.0000
  C   C250      1.0  0.50865  0.99092  0.24841  1.0000
  C   C251      1.0  0.50883  0.01645  0.24548  1.0000
  C   C252      1.0  0.50408  0.02977  0.32627  1.0000
  H   H189      1.0  0.51202  0.98135  0.19039  1.0000
  C   C253      1.0  0.51316  0.02880  0.15763  1.0000
  H   H190      1.0  0.51536  0.01624  0.10162  1.0000
  H   H191      1.0  0.53422  0.03976  0.15934  1.0000
  H   H192      1.0  0.99319  0.04039  0.14399  1.0000
  C   C254      1.0  0.75406  0.47814  0.32663  1.0000
  C   C255      1.0  0.75889  0.49094  0.24579  1.0000
  C   C256      1.0  0.75861  0.51647  0.24272  1.0000
  C   C257      1.0  0.75358  0.52978  0.32342  1.0000
  H   H193      1.0  0.76240  0.48139  0.18781  1.0000
  C   C258      1.0  0.76277  0.52883  0.15480  1.0000
  H   H194      1.0  0.76515  0.51626  0.09886  1.0000
  H   H195      1.0  0.78367  0.53996  0.15643  1.0000
  H   H196      1.0  0.74263  0.54023  0.14110  1.0000
  C   C259      1.0  0.64584  0.20432  0.33771  1.0000
  C   C260      1.0  0.67731  0.19871  0.35244  1.0000
  C   C261      1.0  0.68827  0.17472  0.35841  1.0000
  C   C262      1.0  0.66652  0.15617  0.33878  1.0000
  C   C263      1.0  0.63451  0.16076  0.32005  1.0000
  C   C264      1.0  0.62481  0.18521  0.32425  1.0000
  H   H197      1.0  0.67428  0.13881  0.33883  1.0000
  H   H198      1.0  0.60169  0.18944  0.31918  1.0000
  H   H199      1.0  0.69264  0.21272  0.35852  1.0000
  C   C265      1.0  0.86189  0.80362  0.33769  1.0000
  C   C266      1.0  0.83041  0.80923  0.35236  1.0000
  C   C267      1.0  0.81946  0.83321  0.35837  1.0000
  C   C268      1.0  0.84121  0.85178  0.33912  1.0000
  C   C269      1.0  0.87323  0.84719  0.32053  1.0000
  C   C270      1.0  0.88293  0.82274  0.32445  1.0000
  H   H200      1.0  0.83346  0.86914  0.33934  1.0000
  H   H201      1.0  0.90605  0.81852  0.31938  1.0000
  H   H202      1.0  0.81508  0.79522  0.35833  1.0000
  C   C271      1.0  0.86287  0.20460  0.34565  1.0000
  C   C272      1.0  0.83113  0.19926  0.35672  1.0000
  C   C273      1.0  0.81997  0.17531  0.36073  1.0000
  C   C274      1.0  0.84214  0.15642  0.35352  1.0000
  C   C275      1.0  0.87477  0.16108  0.35462  1.0000
  C   C276      1.0  0.88428  0.18545  0.34558  1.0000
  H   H203      1.0  0.83457  0.13915  0.36228  1.0000
  H   H204      1.0  0.90740  0.18953  0.33825  1.0000
  H   H205      1.0  0.81571  0.21333  0.35722  1.0000
  C   C277      1.0  0.64486  0.80341  0.34515  1.0000
  C   C278      1.0  0.67660  0.80873  0.35625  1.0000
  C   C279      1.0  0.68779  0.83269  0.36000  1.0000
  C   C280      1.0  0.66563  0.85158  0.35250  1.0000
  C   C281      1.0  0.63300  0.84694  0.35340  1.0000
  C   C282      1.0  0.62347  0.82257  0.34468  1.0000
  H   H206      1.0  0.67326  0.86885  0.36090  1.0000
  H   H207      1.0  0.60035  0.81850  0.33740  1.0000
  H   H208      1.0  0.69201  0.79466  0.35696  1.0000
  C   C283      1.0  0.89527  0.70412  0.34128  1.0000
  C   C284      1.0  0.92652  0.69813  0.35878  1.0000
  C   C285      1.0  0.93739  0.67411  0.36297  1.0000
  C   C286      1.0  0.91573  0.65578  0.34027  1.0000
  C   C287      1.0  0.88394  0.66059  0.31948  1.0000
  C   C288      1.0  0.87444  0.68511  0.32327  1.0000
  H   H209      1.0  0.92341  0.63841  0.33959  1.0000
  H   H210      1.0  0.85137  0.68939  0.31708  1.0000
  H   H211      1.0  0.94208  0.71197  0.36545  1.0000
  C   C289      1.0  0.61246  0.30383  0.34150  1.0000
  C   C290      1.0  0.58120  0.30982  0.35890  1.0000
  C   C291      1.0  0.57033  0.33384  0.36312  1.0000
  C   C292      1.0  0.59200  0.35218  0.34072  1.0000
  C   C293      1.0  0.62380  0.34737  0.32009  1.0000
  C   C294      1.0  0.63330  0.32286  0.32364  1.0000
  H   H212      1.0  0.58433  0.36955  0.34009  1.0000
  H   H213      1.0  0.65637  0.31859  0.31743  1.0000
  H   H214      1.0  0.56564  0.29598  0.36548  1.0000
  C   C295      1.0  0.61142  0.70451  0.35117  1.0000
  C   C296      1.0  0.57989  0.69887  0.36506  1.0000
  C   C297      1.0  0.56894  0.67483  0.36674  1.0000
  C   C298      1.0  0.59125  0.65615  0.35625  1.0000
  C   C299      1.0  0.62382  0.66100  0.35446  1.0000
  C   C300      1.0  0.63293  0.68547  0.34540  1.0000
  H   H215      1.0  0.58391  0.63877  0.36376  1.0000
  H   H216      1.0  0.65592  0.68971  0.33623  1.0000
  H   H217      1.0  0.56433  0.71283  0.36781  1.0000
  C   C301      1.0  0.89630  0.30351  0.35051  1.0000
  C   C302      1.0  0.92782  0.30916  0.36448  1.0000
  C   C303      1.0  0.93879  0.33320  0.36600  1.0000
  C   C304      1.0  0.91651  0.35188  0.35509  1.0000
  C   C305      1.0  0.88394  0.34704  0.35312  1.0000
  C   C306      1.0  0.87482  0.32256  0.34433  1.0000
  H   H218      1.0  0.92385  0.36926  0.36248  1.0000
  H   H219      1.0  0.85182  0.31833  0.33512  1.0000
  H   H220      1.0  0.94337  0.29520  0.36753  1.0000
  C   C307      1.0  0.53357  0.09384  0.31836  1.0000
  C   C308      1.0  0.00469  0.10586  0.32793  1.0000
  C   C309      1.0  0.97567  0.09412  0.33980  1.0000
  C   C310      1.0  0.97596  0.06867  0.33437  1.0000
  C   C311      1.0  0.50431  0.05556  0.32879  1.0000
  C   C312      1.0  0.53289  0.06841  0.32480  1.0000
  H   H221      1.0  0.95546  0.05943  0.34070  1.0000
  H   H222      1.0  0.55327  0.05901  0.31853  1.0000
  H   H223      1.0  0.00484  0.12423  0.32693  1.0000
  C   C313      1.0  0.97410  0.91420  0.31933  1.0000
  C   C314      1.0  0.50304  0.90220  0.32745  1.0000
  C   C315      1.0  0.53210  0.91392  0.33840  1.0000
  C   C316      1.0  0.53179  0.93937  0.33279  1.0000
  C   C317      1.0  0.00336  0.95244  0.33018  1.0000
  C   C318      1.0  0.97476  0.93961  0.32715  1.0000
  H   H224      1.0  0.55228  0.94862  0.33908  1.0000
  H   H225      1.0  0.95435  0.94903  0.32188  1.0000
  H   H226      1.0  0.50292  0.88382  0.32616  1.0000
  C   C319      1.0  0.78288  0.59384  0.31452  1.0000
  C   C320      1.0  0.75399  0.60587  0.32350  1.0000
  C   C321      1.0  0.72499  0.59415  0.33607  1.0000
  C   C322      1.0  0.72529  0.56868  0.33116  1.0000
  C   C323      1.0  0.75365  0.55557  0.32581  1.0000
  C   C324      1.0  0.78221  0.56844  0.32160  1.0000
  H   H227      1.0  0.70481  0.55943  0.33808  1.0000
  H   H228      1.0  0.80261  0.55904  0.31565  1.0000
  H   H229      1.0  0.75413  0.62424  0.32195  1.0000
  C   C325      1.0  0.72475  0.41421  0.31533  1.0000
  C   C326      1.0  0.75369  0.40219  0.32291  1.0000
  C   C327      1.0  0.78274  0.41389  0.33469  1.0000
  C   C328      1.0  0.78242  0.43936  0.33003  1.0000
  C   C329      1.0  0.75399  0.45244  0.32744  1.0000
  C   C330      1.0  0.72541  0.43959  0.32384  1.0000
  H   H230      1.0  0.80291  0.44859  0.33665  1.0000
  H   H231      1.0  0.70498  0.44901  0.31896  1.0000
  H   H232      1.0  0.75356  0.38381  0.32095  1.0000
  C   C331      1.0  0.78749  0.17141  0.37321  1.0000
  C   C332      1.0  0.77032  0.18674  0.43071  1.0000
  C   C333      1.0  0.73757  0.18590  0.43706  1.0000
  C   C334      1.0  0.72046  0.17070  0.37740  1.0000
  H   H233      1.0  0.78212  0.19832  0.47210  1.0000
  C   C335      1.0  0.72330  0.20003  0.51177  1.0000
  H   H234      1.0  0.73513  0.19598  0.57495  1.0000
  H   H235      1.0  0.69875  0.19584  0.52205  1.0000
  H   H236      1.0  0.72562  0.21923  0.49830  1.0000
  C   C336      1.0  0.72026  0.83657  0.37268  1.0000
  C   C337      1.0  0.73737  0.82127  0.43043  1.0000
  C   C338      1.0  0.77012  0.82209  0.43694  1.0000
  C   C339      1.0  0.78727  0.83725  0.37727  1.0000
  H   H237      1.0  0.72554  0.80968  0.47172  1.0000
  C   C340      1.0  0.78435  0.80790  0.51156  1.0000
  H   H238      1.0  0.77251  0.81194  0.57475  1.0000
  H   H239      1.0  0.80890  0.81207  0.52191  1.0000
  H   H240      1.0  0.78199  0.78871  0.49797  1.0000
  C   C341      1.0  0.53653  0.67066  0.37950  1.0000
  C   C342      1.0  0.51926  0.68555  0.43834  1.0000
  C   C343      1.0  0.98648  0.68469  0.44402  1.0000
  C   C344      1.0  0.96950  0.66991  0.38262  1.0000
  H   H241      1.0  0.53097  0.69691  0.48076  1.0000
  C   C345      1.0  0.97204  0.69852  0.51922  1.0000
  H   H242      1.0  0.98367  0.69416  0.58243  1.0000
  H   H243      1.0  0.94744  0.69433  0.52859  1.0000
  H   H244      1.0  0.97447  0.71777  0.50701  1.0000
  C   C346      1.0  0.97119  0.33735  0.37901  1.0000
  C   C347      1.0  0.98840  0.32246  0.43799  1.0000
  C   C348      1.0  0.52117  0.32329  0.44384  1.0000
  C   C349      1.0  0.53821  0.33807  0.38256  1.0000
  H   H245      1.0  0.97665  0.31113  0.48042  1.0000
  C   C350      1.0  0.53556  0.30945  0.51912  1.0000
  H   H246      1.0  0.52389  0.31383  0.58227  1.0000
  H   H247      1.0  0.56015  0.31362  0.52861  1.0000
  H   H248      1.0  0.53311  0.29020  0.50690  1.0000
  C   C351      1.0  0.61438  0.11956  0.34890  1.0000
  C   C352      1.0  0.58981  0.10263  0.34848  1.0000
  H   H249      1.0  0.63267  0.11610  0.39097  1.0000
  H   H250      1.0  0.59173  0.08784  0.38897  1.0000
  C   C353      1.0  0.89339  0.88832  0.35038  1.0000
  C   C354      1.0  0.91789  0.90530  0.34996  1.0000
  H   H251      1.0  0.87509  0.89173  0.39246  1.0000
  H   H252      1.0  0.91604  0.92002  0.39084  1.0000
  C   C355      1.0  0.94848  0.10844  0.35420  1.0000
  C   C356      1.0  0.95057  0.12982  0.40561  1.0000
  C   C357      1.0  0.92572  0.14627  0.41495  1.0000
  C   C358      1.0  0.89768  0.14261  0.36492  1.0000
  H   H253      1.0  0.97047  0.13299  0.44177  1.0000
  C   C359      1.0  0.92990  0.16517  0.48531  1.0000
  H   H254      1.0  0.93899  0.15720  0.54709  1.0000
  H   H255      1.0  0.90817  0.17400  0.50371  1.0000
  H   H256      1.0  0.94644  0.17868  0.46184  1.0000
  C   C360      1.0  0.55931  0.89960  0.35246  1.0000
  C   C361      1.0  0.55729  0.87829  0.40436  1.0000
  C   C362      1.0  0.58212  0.86184  0.41374  1.0000
  C   C363      1.0  0.61012  0.86544  0.36350  1.0000
  H   H257      1.0  0.53741  0.87515  0.44071  1.0000
  C   C364      1.0  0.57800  0.84303  0.48445  1.0000
  H   H258      1.0  0.56897  0.85107  0.54616  1.0000
  H   H259      1.0  0.59975  0.83422  0.50285  1.0000
  H   H260      1.0  0.56144  0.82948  0.46135  1.0000
  C   C365      1.0  0.86354  0.61946  0.34728  1.0000
  C   C366      1.0  0.83898  0.60255  0.34595  1.0000
  H   H261      1.0  0.88167  0.61592  0.38983  1.0000
  H   H262      1.0  0.84070  0.58775  0.38646  1.0000
  C   C367      1.0  0.64418  0.38845  0.34863  1.0000
  C   C368      1.0  0.66869  0.40541  0.34728  1.0000
  H   H263      1.0  0.62612  0.39188  0.39155  1.0000
  H   H264      1.0  0.66702  0.42008  0.38845  1.0000
  C   C369      1.0  0.69784  0.60851  0.35077  1.0000
  C   C370      1.0  0.70011  0.62997  0.40168  1.0000
  C   C371      1.0  0.67529  0.64641  0.41173  1.0000
  C   C372      1.0  0.64700  0.64266  0.36295  1.0000
  H   H265      1.0  0.72016  0.63320  0.43710  1.0000
  C   C373      1.0  0.67978  0.66535  0.48180  1.0000
  H   H266      1.0  0.68941  0.65747  0.54305  1.0000
  H   H267      1.0  0.65809  0.67403  0.50157  1.0000
  H   H268      1.0  0.69599  0.67897  0.45728  1.0000
  C   C374      1.0  0.80990  0.39951  0.34898  1.0000
  C   C375      1.0  0.80767  0.37809  0.40014  1.0000
  C   C376      1.0  0.83251  0.36166  0.41033  1.0000
  C   C377      1.0  0.86077  0.36539  0.36140  1.0000
  H   H269      1.0  0.78767  0.37490  0.43584  1.0000
  C   C378      1.0  0.82808  0.34282  0.48076  1.0000
  H   H270      1.0  0.81850  0.35077  0.54194  1.0000
  H   H271      1.0  0.84979  0.33416  0.50055  1.0000
  H   H272      1.0  0.81186  0.32916  0.45659  1.0000
  C   C379      1.0  0.62186  0.27914  0.34256  1.0000
  C   C380      1.0  0.61413  0.26404  0.41586  1.0000
  C   C381      1.0  0.62133  0.23917  0.41652  1.0000
  C   C382      1.0  0.63615  0.22886  0.34006  1.0000
  H   H273      1.0  0.60332  0.27145  0.47062  1.0000
  C   C383      1.0  0.61394  0.22459  0.49767  1.0000
  H   H274      1.0  0.60347  0.23525  0.55140  1.0000
  H   H275      1.0  0.63521  0.21651  0.52414  1.0000
  H   H276      1.0  0.59757  0.21035  0.48023  1.0000
  C   C384      1.0  0.88587  0.72881  0.34238  1.0000
  C   C385      1.0  0.89351  0.74388  0.41585  1.0000
  C   C386      1.0  0.88630  0.76875  0.41657  1.0000
  C   C387      1.0  0.87159  0.77908  0.34000  1.0000
  H   H277      1.0  0.90424  0.73644  0.47068  1.0000
  C   C388      1.0  0.89358  0.78329  0.49789  1.0000
  H   H278      1.0  0.90399  0.77262  0.55166  1.0000
  H   H279      1.0  0.87226  0.79135  0.52418  1.0000
  H   H280      1.0  0.90996  0.79755  0.48071  1.0000
  C   C389      1.0  0.88119  0.24024  0.42391  1.0000
  C   C390      1.0  0.88857  0.26483  0.42659  1.0000
  H   H281      1.0  0.88199  0.23058  0.48248  1.0000
  H   H282      1.0  0.89496  0.27237  0.48663  1.0000
  C   C391      1.0  0.62696  0.76775  0.42413  1.0000
  C   C392      1.0  0.61959  0.74316  0.42706  1.0000
  H   H283      1.0  0.62649  0.77740  0.48277  1.0000
  H   H284      1.0  0.61351  0.73561  0.48733  1.0000
  C   C393      1.0  0.49875  0.01689  0.40689  1.0000
  C   C394      1.0  0.49843  0.99155  0.40835  1.0000
  H   H285      1.0  0.49521  0.02595  0.46592  1.0000
  H   H286      1.0  0.49465  0.98290  0.46809  1.0000
  C   C395      1.0  0.74849  0.51688  0.40411  1.0000
  C   C396      1.0  0.74862  0.49152  0.40569  1.0000
  H   H287      1.0  0.74480  0.52592  0.46309  1.0000
  H   H288      1.0  0.74494  0.48286  0.46546  1.0000
