data_image0
_chemical_formula_structural       CNC2NC4NC18H14C2NC16H12C3NC2NC5NC4NC18H14CNC16H12C11H11CNCNC4NC16H13C2HC3HNH2NH2C2HC3HNH2NH2C2HC2HNH2NH2C2HC3HNH2NH2C2HC2HNH2NH2C2HC2HNH2NH2C2HC3HNH2NH2C2HC2HNH2NH2C2HC3HNH2NH2C2HC3HNH2NH2C2HC3HNH2NH2C2HC3HNH2NH2C7NC12H12C2NC3NC3NC18H14C12H12C3NC3NC3NC18H14C3NC3NC2NC5NC20H15C8NC14H13C7H2N2O4C7H2N2O4C8H2N2O4C7H2N2O4C8H2N2O4C8H2N2O4C7H2N2O4C8H2N2O4C7H2N2O4C7H2N2O4C7H2N2O4C7H2N2O4
_chemical_formula_sum              "C408 N72 H252 O48"
_cell_length_a       68.7649
_cell_length_b       68.7648
_cell_length_c       14.9491
_cell_angle_alpha    90.0014
_cell_angle_beta     89.9714
_cell_angle_gamma    120

_space_group_name_H-M_alt    "P 1"
_space_group_IT_number       1

loop_
  _space_group_symop_operation_xyz
  'x, y, z'

loop_
  _atom_site_type_symbol
  _atom_site_label
  _atom_site_symmetry_multiplicity
  _atom_site_fract_x
  _atom_site_fract_y
  _atom_site_fract_z
  _atom_site_occupancy
  C   C1        1.0  0.27652  0.51337  0.31769  1.0000
  N   N1        1.0  0.26932  0.47889  0.33995  1.0000
  C   C2        1.0  0.29197  0.49142  0.33204  1.0000
  C   C3        1.0  0.30845  0.48477  0.33937  1.0000
  N   N2        1.0  0.28322  0.44333  0.33824  1.0000
  C   C4        1.0  0.28480  0.42455  0.34416  1.0000
  C   C5        1.0  0.30759  0.43188  0.35639  1.0000
  C   C6        1.0  0.31914  0.45504  0.35652  1.0000
  C   C7        1.0  0.26721  0.40185  0.33684  1.0000
  N   N3        1.0  0.23384  0.40766  0.33997  1.0000
  C   C8        1.0  0.21114  0.39519  0.33342  1.0000
  C   C9        1.0  0.22656  0.37320  0.31711  1.0000
  C   C10       1.0  0.21846  0.46221  0.34841  1.0000
  C   C11       1.0  0.23608  0.48486  0.34222  1.0000
  C   C12       1.0  0.23036  0.50219  0.34430  1.0000
  C   C13       1.0  0.21964  0.50577  0.27064  1.0000
  C   C14       1.0  0.21611  0.52425  0.26915  1.0000
  C   C15       1.0  0.22386  0.54003  0.33987  1.0000
  C   C16       1.0  0.15973  0.37804  0.25854  1.0000
  C   C17       1.0  0.13631  0.36351  0.25767  1.0000
  C   C18       1.0  0.27355  0.38495  0.33280  1.0000
  C   C19       1.0  0.29011  0.35415  0.33126  1.0000
  C   C20       1.0  0.29388  0.36867  0.25804  1.0000
  C   C21       1.0  0.28548  0.38359  0.25819  1.0000
  C   C22       1.0  0.33146  0.50203  0.34090  1.0000
  C   C23       1.0  0.34273  0.51267  0.26094  1.0000
  C   C24       1.0  0.36455  0.53141  0.26368  1.0000
  C   C25       1.0  0.37560  0.53980  0.34632  1.0000
  H   H1        1.0  0.37196  0.53943  0.20511  1.0000
  H   H2        1.0  0.33475  0.50746  0.20054  1.0000
  H   H3        1.0  0.27519  0.52741  0.30886  1.0000
  H   H4        1.0  0.26155  0.46325  0.35618  1.0000
  H   H5        1.0  0.24169  0.42332  0.35604  1.0000
  H   H6        1.0  0.33615  0.46485  0.36333  1.0000
  H   H7        1.0  0.31493  0.42220  0.36367  1.0000
  H   H8        1.0  0.28889  0.39414  0.20474  1.0000
  H   H9        1.0  0.30328  0.36887  0.20451  1.0000
  H   H10       1.0  0.22792  0.35920  0.30773  1.0000
  H   H11       1.0  0.16802  0.38401  0.19910  1.0000
  H   H12       1.0  0.12823  0.35903  0.19726  1.0000
  H   H13       1.0  0.20866  0.52662  0.21418  1.0000
  H   H14       1.0  0.21487  0.49527  0.21644  1.0000
  C   C26       1.0  0.54655  0.76404  0.31608  1.0000
  C   C27       1.0  0.56846  0.80142  0.33127  1.0000
  N   N4        1.0  0.61650  0.84074  0.33856  1.0000
  C   C28       1.0  0.63528  0.86110  0.34468  1.0000
  C   C29       1.0  0.62794  0.87654  0.35731  1.0000
  C   C30       1.0  0.60477  0.86492  0.35754  1.0000
  C   C31       1.0  0.65798  0.86622  0.33716  1.0000
  C   C32       1.0  0.66466  0.81682  0.33383  1.0000
  C   C33       1.0  0.68664  0.85423  0.31742  1.0000
  C   C34       1.0  0.59764  0.75713  0.34874  1.0000
  C   C35       1.0  0.55414  0.71469  0.27117  1.0000
  C   C36       1.0  0.53565  0.69269  0.26978  1.0000
  C   C37       1.0  0.68179  0.78252  0.25896  1.0000
  C   C38       1.0  0.69633  0.77364  0.25808  1.0000
  C   C39       1.0  0.67487  0.88947  0.33313  1.0000
  C   C40       1.0  0.69112  0.92607  0.25836  1.0000
  C   C41       1.0  0.67620  0.90274  0.25856  1.0000
  C   C42       1.0  0.54721  0.83097  0.26127  1.0000
  C   C43       1.0  0.52847  0.83406  0.26405  1.0000
  H   H15       1.0  0.52052  0.83355  0.20545  1.0000
  H   H16       1.0  0.55249  0.82830  0.20082  1.0000
  H   H17       1.0  0.53251  0.74866  0.30770  1.0000
  H   H18       1.0  0.59496  0.87211  0.36452  1.0000
  H   H19       1.0  0.63761  0.89355  0.36475  1.0000
  H   H20       1.0  0.66563  0.89561  0.20522  1.0000
  H   H21       1.0  0.69089  0.93527  0.20492  1.0000
  H   H22       1.0  0.70064  0.86959  0.30815  1.0000
  H   H23       1.0  0.67582  0.78483  0.19952  1.0000
  H   H24       1.0  0.70081  0.77003  0.19768  1.0000
  H   H25       1.0  0.53333  0.68282  0.21500  1.0000
  H   H26       1.0  0.56469  0.72037  0.21710  1.0000
  C   C44       1.0  0.27582  0.76329  0.31710  1.0000
  C   C45       1.0  0.29583  0.78336  0.31663  1.0000
  C   C46       1.0  0.29122  0.80068  0.33263  1.0000
  N   N5        1.0  0.26854  0.79054  0.33921  1.0000
  C   C47       1.0  0.25843  0.76790  0.33128  1.0000
  C   C48       1.0  0.23531  0.75141  0.33900  1.0000
  N   N6        1.0  0.21910  0.77663  0.33799  1.0000
  C   C49       1.0  0.19874  0.77506  0.34395  1.0000
  C   C50       1.0  0.18328  0.75226  0.35613  1.0000
  C   C51       1.0  0.19489  0.74071  0.35633  1.0000
  C   C52       1.0  0.19363  0.79264  0.33652  1.0000
  C   C53       1.0  0.21014  0.81586  0.33129  1.0000
  N   N7        1.0  0.23280  0.82603  0.34002  1.0000
  C   C54       1.0  0.24303  0.84873  0.33343  1.0000
  C   C55       1.0  0.22571  0.85341  0.31926  1.0000
  C   C56       1.0  0.20562  0.83331  0.31737  1.0000
  C   C57       1.0  0.26620  0.86514  0.34121  1.0000
  N   N8        1.0  0.28239  0.83985  0.34092  1.0000
  C   C58       1.0  0.30273  0.84139  0.34801  1.0000
  C   C59       1.0  0.30776  0.82377  0.34192  1.0000
  C   C60       1.0  0.33081  0.82948  0.34412  1.0000
  C   C61       1.0  0.34516  0.84026  0.27062  1.0000
  C   C62       1.0  0.36716  0.84378  0.26925  1.0000
  C   C63       1.0  0.37515  0.83597  0.33995  1.0000
  C   C64       1.0  0.27250  0.88833  0.34010  1.0000
  C   C65       1.0  0.27734  0.90016  0.25833  1.0000
  C   C66       1.0  0.28620  0.92357  0.25747  1.0000
  C   C67       1.0  0.29064  0.93588  0.33815  1.0000
  C   C68       1.0  0.17038  0.78630  0.33246  1.0000
  C   C69       1.0  0.12302  0.76970  0.33085  1.0000
  C   C70       1.0  0.13380  0.76598  0.25759  1.0000
  C   C71       1.0  0.15714  0.77440  0.25780  1.0000
  C   C72       1.0  0.22956  0.72840  0.34055  1.0000
  C   C73       1.0  0.22892  0.71713  0.26058  1.0000
  C   C74       1.0  0.22588  0.69532  0.26334  1.0000
  C   C75       1.0  0.22319  0.68425  0.34597  1.0000
  H   H27       1.0  0.22644  0.68790  0.20475  1.0000
  H   H28       1.0  0.23170  0.72513  0.20019  1.0000
  H   H29       1.0  0.31120  0.78468  0.30819  1.0000
  H   H30       1.0  0.26071  0.79830  0.35634  1.0000
  H   H31       1.0  0.24064  0.81814  0.35489  1.0000
  H   H32       1.0  0.18768  0.72370  0.36307  1.0000
  H   H33       1.0  0.16626  0.74492  0.36334  1.0000
  H   H34       1.0  0.16429  0.77101  0.20435  1.0000
  H   H35       1.0  0.12463  0.75659  0.20407  1.0000
  H   H36       1.0  0.19026  0.83196  0.30809  1.0000
  H   H37       1.0  0.27505  0.89188  0.19888  1.0000
  H   H38       1.0  0.28984  0.93167  0.19708  1.0000
  H   H39       1.0  0.37703  0.85130  0.21443  1.0000
  H   H40       1.0  0.33947  0.84508  0.21644  1.0000
  C   C76       1.0  0.78724  0.54906  0.33261  1.0000
  N   N9        1.0  0.79599  0.59715  0.33883  1.0000
  C   C77       1.0  0.79442  0.61594  0.34462  1.0000
  C   C78       1.0  0.77162  0.60861  0.35668  1.0000
  C   C79       1.0  0.76007  0.58544  0.35687  1.0000
  C   C80       1.0  0.81201  0.63864  0.33730  1.0000
  C   C81       1.0  0.86809  0.64530  0.33412  1.0000
  C   C82       1.0  0.85268  0.66731  0.31827  1.0000
  C   C83       1.0  0.86075  0.57826  0.34866  1.0000
  C   C84       1.0  0.85956  0.53469  0.27108  1.0000
  C   C85       1.0  0.86306  0.51619  0.26957  1.0000
  C   C86       1.0  0.91949  0.66244  0.25880  1.0000
  C   C87       1.0  0.94291  0.67696  0.25780  1.0000
  C   C88       1.0  0.80567  0.65554  0.33322  1.0000
  C   C89       1.0  0.78539  0.67183  0.25834  1.0000
  C   C90       1.0  0.79382  0.65693  0.25848  1.0000
  C   C91       1.0  0.73651  0.52782  0.26152  1.0000
  C   C92       1.0  0.71468  0.50908  0.26426  1.0000
  H   H41       1.0  0.70729  0.50107  0.20569  1.0000
  H   H42       1.0  0.74451  0.53303  0.20114  1.0000
  H   H43       1.0  0.80400  0.51305  0.30989  1.0000
  H   H44       1.0  0.74305  0.57564  0.36359  1.0000
  H   H45       1.0  0.76427  0.61829  0.36380  1.0000
  H   H46       1.0  0.79042  0.64638  0.20508  1.0000
  H   H47       1.0  0.77602  0.67164  0.20477  1.0000
  H   H48       1.0  0.85134  0.68132  0.30904  1.0000
  H   H49       1.0  0.91120  0.65645  0.19940  1.0000
  H   H50       1.0  0.95099  0.68144  0.19736  1.0000
  H   H51       1.0  0.87054  0.51384  0.21462  1.0000
  H   H52       1.0  0.86431  0.54517  0.21683  1.0000
  C   C93       1.0  0.44393  0.17937  0.34483  1.0000
  C   C94       1.0  0.45125  0.16390  0.35705  1.0000
  C   C95       1.0  0.47442  0.17551  0.35727  1.0000
  C   C96       1.0  0.52515  0.32575  0.27156  1.0000
  C   C97       1.0  0.54363  0.34776  0.27009  1.0000
  C   C98       1.0  0.39743  0.25793  0.25906  1.0000
  C   C99       1.0  0.38290  0.26682  0.25811  1.0000
  C   C100      1.0  0.38807  0.11444  0.25835  1.0000
  C   C101      1.0  0.40300  0.13777  0.25862  1.0000
  C   C102      1.0  0.53206  0.20957  0.26180  1.0000
  C   C103      1.0  0.55080  0.20649  0.26454  1.0000
  H   H53       1.0  0.55882  0.20711  0.20597  1.0000
  H   H54       1.0  0.52685  0.21235  0.20142  1.0000
  H   H55       1.0  0.54679  0.29184  0.30987  1.0000
  H   H56       1.0  0.48422  0.16830  0.36409  1.0000
  H   H57       1.0  0.41356  0.14492  0.20522  1.0000
  H   H58       1.0  0.38829  0.10526  0.20479  1.0000
  H   H59       1.0  0.37859  0.17090  0.30817  1.0000
  H   H60       1.0  0.40342  0.25562  0.19964  1.0000
  H   H61       1.0  0.37843  0.27042  0.19768  1.0000
  H   H62       1.0  0.54601  0.35759  0.21510  1.0000
  H   H63       1.0  0.51466  0.32003  0.21734  1.0000
  C   C104      1.0  0.78341  0.25709  0.31614  1.0000
  N   N10       1.0  0.81069  0.24991  0.33916  1.0000
  C   C105      1.0  0.82079  0.27256  0.33124  1.0000
  N   N11       1.0  0.86011  0.26384  0.33845  1.0000
  C   C106      1.0  0.88047  0.26542  0.34456  1.0000
  C   C107      1.0  0.89592  0.28820  0.35717  1.0000
  C   C108      1.0  0.88429  0.29974  0.35742  1.0000
  C   C109      1.0  0.88559  0.24784  0.33703  1.0000
  N   N12       1.0  0.84642  0.21446  0.34033  1.0000
  C   C110      1.0  0.83619  0.19176  0.33370  1.0000
  C   C111      1.0  0.87360  0.20719  0.31725  1.0000
  C   C112      1.0  0.77650  0.19909  0.34878  1.0000
  C   C113      1.0  0.77147  0.21671  0.34242  1.0000
  C   C114      1.0  0.73405  0.20016  0.27140  1.0000
  C   C115      1.0  0.71205  0.19665  0.27010  1.0000
  C   C116      1.0  0.70410  0.20454  0.34064  1.0000
  C   C117      1.0  0.80190  0.14034  0.25883  1.0000
  C   C118      1.0  0.79301  0.11692  0.25795  1.0000
  C   C119      1.0  0.90884  0.25419  0.33297  1.0000
  C   C120      1.0  0.95620  0.27077  0.33133  1.0000
  C   C121      1.0  0.94545  0.27456  0.25819  1.0000
  C   C122      1.0  0.92211  0.26614  0.25840  1.0000
  C   C123      1.0  0.84963  0.31206  0.34117  1.0000
  C   C124      1.0  0.85035  0.32337  0.26123  1.0000
  C   C125      1.0  0.85344  0.34520  0.26404  1.0000
  H   H64       1.0  0.85293  0.35265  0.20544  1.0000
  H   H65       1.0  0.84768  0.31543  0.20077  1.0000
  H   H66       1.0  0.76804  0.25576  0.30781  1.0000
  H   H67       1.0  0.81850  0.24221  0.35752  1.0000
  H   H68       1.0  0.89149  0.31675  0.36440  1.0000
  H   H69       1.0  0.91292  0.29553  0.36460  1.0000
  H   H70       1.0  0.91498  0.26959  0.20506  1.0000
  H   H71       1.0  0.95464  0.28399  0.20474  1.0000
  H   H72       1.0  0.88896  0.20855  0.30797  1.0000
  H   H73       1.0  0.80420  0.14863  0.19940  1.0000
  H   H74       1.0  0.78940  0.10884  0.19754  1.0000
  H   H75       1.0  0.70217  0.18909  0.21538  1.0000
  H   H76       1.0  0.73972  0.19529  0.21730  1.0000
  C   C126      1.0  0.20065  0.62258  0.31057  1.0000
  C   C127      1.0  0.20257  0.64405  0.31451  1.0000
  H   H77       1.0  0.18954  0.64592  0.29164  1.0000
  C   C128      1.0  0.22218  0.55988  0.33553  1.0000
  C   C129      1.0  0.23249  0.57628  0.26660  1.0000
  C   C130      1.0  0.23030  0.59569  0.26911  1.0000
  H   H78       1.0  0.23790  0.60770  0.22049  1.0000
  N   N13       1.0  0.18158  0.60508  0.27635  1.0000
  H   H79       1.0  0.16930  0.60704  0.25501  1.0000
  H   H80       1.0  0.17960  0.59010  0.27149  1.0000
  N   N14       1.0  0.24523  0.57477  0.20014  1.0000
  H   H81       1.0  0.25244  0.58649  0.15513  1.0000
  H   H82       1.0  0.24883  0.56282  0.19839  1.0000
  C   C131      1.0  0.43727  0.57897  0.31093  1.0000
  C   C132      1.0  0.41581  0.55941  0.31484  1.0000
  H   H83       1.0  0.41395  0.54452  0.29196  1.0000
  C   C133      1.0  0.49994  0.66320  0.33597  1.0000
  C   C134      1.0  0.48361  0.65706  0.26678  1.0000
  C   C135      1.0  0.46420  0.63547  0.26933  1.0000
  H   H84       1.0  0.45224  0.63102  0.22050  1.0000
  N   N15       1.0  0.45480  0.57742  0.27671  1.0000
  H   H85       1.0  0.45285  0.56318  0.25535  1.0000
  H   H86       1.0  0.46977  0.59042  0.27188  1.0000
  N   N16       1.0  0.48519  0.67127  0.20004  1.0000
  H   H87       1.0  0.47351  0.66673  0.15485  1.0000
  H   H88       1.0  0.49714  0.68681  0.19822  1.0000
  C   C136      1.0  0.48092  0.85920  0.31133  1.0000
  C   C137      1.0  0.50047  0.85729  0.31535  1.0000
  H   H89       1.0  0.51538  0.87032  0.29257  1.0000
  C   C138      1.0  0.40283  0.82741  0.26677  1.0000
  C   C139      1.0  0.42442  0.82960  0.26943  1.0000
  H   H90       1.0  0.42887  0.82204  0.22078  1.0000
  N   N17       1.0  0.48250  0.87829  0.27717  1.0000
  H   H91       1.0  0.49676  0.89059  0.25594  1.0000
  H   H92       1.0  0.46952  0.88028  0.27228  1.0000
  N   N18       1.0  0.38862  0.81472  0.20013  1.0000
  H   H93       1.0  0.39318  0.80755  0.15509  1.0000
  H   H94       1.0  0.37308  0.81112  0.19827  1.0000
  C   C140      1.0  0.87858  0.41789  0.31143  1.0000
  C   C141      1.0  0.87667  0.39643  0.31542  1.0000
  H   H95       1.0  0.88971  0.39456  0.29269  1.0000
  C   C142      1.0  0.85703  0.48058  0.33608  1.0000
  C   C143      1.0  0.84671  0.46417  0.26723  1.0000
  C   C144      1.0  0.84889  0.44476  0.26980  1.0000
  H   H96       1.0  0.84129  0.43275  0.22121  1.0000
  N   N19       1.0  0.89768  0.43541  0.27732  1.0000
  H   H97       1.0  0.90998  0.43344  0.25609  1.0000
  H   H98       1.0  0.89966  0.45038  0.27238  1.0000
  N   N20       1.0  0.83395  0.46567  0.20084  1.0000
  H   H99       1.0  0.82674  0.45393  0.15589  1.0000
  H   H100      1.0  0.83035  0.47761  0.19908  1.0000
  C   C145      1.0  0.64194  0.46154  0.31149  1.0000
  C   C146      1.0  0.66340  0.48110  0.31542  1.0000
  H   H101      1.0  0.66527  0.49600  0.29253  1.0000
  C   C147      1.0  0.59566  0.38341  0.26758  1.0000
  C   C148      1.0  0.61507  0.40501  0.27009  1.0000
  H   H102      1.0  0.62709  0.40942  0.22148  1.0000
  N   N21       1.0  0.62443  0.46310  0.27726  1.0000
  H   H103      1.0  0.62639  0.47735  0.25591  1.0000
  H   H104      1.0  0.60946  0.45011  0.27241  1.0000
  N   N22       1.0  0.59416  0.36916  0.20114  1.0000
  H   H105      1.0  0.60589  0.37368  0.15614  1.0000
  H   H106      1.0  0.58221  0.35361  0.19940  1.0000
  C   C149      1.0  0.59834  0.18131  0.31164  1.0000
  C   C150      1.0  0.57878  0.18321  0.31560  1.0000
  H   H107      1.0  0.56389  0.17018  0.29270  1.0000
  C   C151      1.0  0.67641  0.21305  0.26727  1.0000
  C   C152      1.0  0.65482  0.21087  0.26992  1.0000
  H   H108      1.0  0.65036  0.21838  0.22110  1.0000
  N   N23       1.0  0.59679  0.16225  0.27736  1.0000
  H   H109      1.0  0.58255  0.14996  0.25599  1.0000
  H   H110      1.0  0.60979  0.16027  0.27251  1.0000
  N   N24       1.0  0.69061  0.22568  0.20046  1.0000
  H   H111      1.0  0.68606  0.23282  0.15528  1.0000
  H   H112      1.0  0.70615  0.22928  0.19857  1.0000
  C   C153      1.0  0.06371  0.33854  0.28859  1.0000
  C   C154      1.0  0.08748  0.35042  0.29077  1.0000
  H   H113      1.0  0.09592  0.36563  0.25890  1.0000
  C   C155      1.0  0.98013  0.28067  0.33296  1.0000
  C   C156      1.0  0.99260  0.27767  0.26333  1.0000
  C   C157      1.0  0.01639  0.29008  0.26634  1.0000
  H   H114      1.0  0.02542  0.28824  0.21579  1.0000
  N   N25       1.0  0.05299  0.34762  0.24321  1.0000
  H   H115      1.0  0.06134  0.36195  0.21227  1.0000
  H   H116      1.0  0.03672  0.34023  0.24017  1.0000
  N   N26       1.0  0.98266  0.26295  0.19464  1.0000
  H   H117      1.0  0.99154  0.26089  0.14881  1.0000
  H   H118      1.0  0.96656  0.25279  0.19258  1.0000
  C   C158      1.0  0.72130  0.72603  0.28908  1.0000
  C   C159      1.0  0.70943  0.73794  0.29129  1.0000
  H   H119      1.0  0.69422  0.73116  0.25945  1.0000
  C   C160      1.0  0.78223  0.71586  0.26380  1.0000
  C   C161      1.0  0.76981  0.72722  0.26683  1.0000
  H   H120      1.0  0.77171  0.73814  0.21639  1.0000
  N   N27       1.0  0.71222  0.70623  0.24375  1.0000
  H   H121      1.0  0.69789  0.70024  0.21288  1.0000
  H   H122      1.0  0.71961  0.69735  0.24068  1.0000
  N   N28       1.0  0.79701  0.72070  0.19525  1.0000
  H   H123      1.0  0.79912  0.73168  0.14955  1.0000
  H   H124      1.0  0.80718  0.71476  0.19318  1.0000
  C   C162      1.0  0.33381  0.99616  0.28855  1.0000
  C   C163      1.0  0.32191  0.97238  0.29069  1.0000
  H   H125      1.0  0.32870  0.96396  0.25884  1.0000
  C   C164      1.0  0.35949  0.07972  0.33309  1.0000
  C   C165      1.0  0.34403  0.06728  0.26348  1.0000
  C   C166      1.0  0.33266  0.04349  0.26641  1.0000
  H   H126      1.0  0.32178  0.03448  0.21587  1.0000
  N   N29       1.0  0.35363  0.00689  0.24321  1.0000
  H   H127      1.0  0.35962  0.99856  0.21230  1.0000
  H   H128      1.0  0.36250  0.02316  0.24020  1.0000
  N   N30       1.0  0.33925  0.07724  0.19487  1.0000
  H   H129      1.0  0.32831  0.06838  0.14905  1.0000
  H   H130      1.0  0.34519  0.09334  0.19286  1.0000
  C   C167      1.0  0.01551  0.70192  0.28836  1.0000
  C   C168      1.0  0.99173  0.69005  0.29066  1.0000
  H   H131      1.0  0.98329  0.67484  0.25880  1.0000
  C   C169      1.0  0.09908  0.75978  0.33251  1.0000
  C   C170      1.0  0.08663  0.76283  0.26301  1.0000
  C   C171      1.0  0.06284  0.75041  0.26606  1.0000
  H   H132      1.0  0.05381  0.75229  0.21561  1.0000
  N   N31       1.0  0.02622  0.69284  0.24292  1.0000
  H   H133      1.0  0.01788  0.67852  0.21203  1.0000
  H   H134      1.0  0.04249  0.70024  0.23980  1.0000
  N   N32       1.0  0.09657  0.77759  0.19441  1.0000
  H   H135      1.0  0.08770  0.77968  0.14869  1.0000
  H   H136      1.0  0.11267  0.78775  0.19235  1.0000
  C   C172      1.0  0.35791  0.31443  0.28882  1.0000
  C   C173      1.0  0.36978  0.30253  0.29108  1.0000
  H   H137      1.0  0.38501  0.30932  0.25925  1.0000
  C   C174      1.0  0.30002  0.34012  0.33297  1.0000
  C   C175      1.0  0.29700  0.32463  0.26343  1.0000
  C   C176      1.0  0.30942  0.31326  0.26648  1.0000
  H   H138      1.0  0.30757  0.30237  0.21600  1.0000
  N   N33       1.0  0.36699  0.33423  0.24342  1.0000
  H   H139      1.0  0.38133  0.34022  0.21254  1.0000
  H   H140      1.0  0.35960  0.34310  0.24033  1.0000
  N   N34       1.0  0.28227  0.31983  0.19477  1.0000
  H   H141      1.0  0.28021  0.30888  0.14901  1.0000
  H   H142      1.0  0.27211  0.32577  0.19269  1.0000
  C   C177      1.0  0.74540  0.04434  0.28893  1.0000
  C   C178      1.0  0.75730  0.06811  0.29114  1.0000
  H   H143      1.0  0.75053  0.07655  0.25929  1.0000
  C   C179      1.0  0.71968  0.96076  0.33316  1.0000
  C   C180      1.0  0.73516  0.97322  0.26354  1.0000
  C   C181      1.0  0.74654  0.99701  0.26657  1.0000
  H   H144      1.0  0.75742  0.00604  0.21603  1.0000
  N   N35       1.0  0.72559  0.03362  0.24360  1.0000
  H   H145      1.0  0.71961  0.04197  0.21274  1.0000
  H   H146      1.0  0.71672  0.01735  0.24056  1.0000
  N   N36       1.0  0.73996  0.96329  0.19486  1.0000
  H   H147      1.0  0.75090  0.97217  0.14904  1.0000
  H   H148      1.0  0.73401  0.94718  0.19277  1.0000
  C   C182      1.0  0.29658  0.51342  0.31805  1.0000
  C   C183      1.0  0.25918  0.49142  0.33326  1.0000
  C   C184      1.0  0.30351  0.46216  0.34551  1.0000
  C   C185      1.0  0.24400  0.39516  0.33140  1.0000
  C   C186      1.0  0.20646  0.37320  0.31888  1.0000
  C   C187      1.0  0.19472  0.40193  0.34147  1.0000
  C   C188      1.0  0.19972  0.42458  0.34819  1.0000
  N   N37       1.0  0.22001  0.44342  0.34137  1.0000
  C   C189      1.0  0.19572  0.45498  0.36057  1.0000
  C   C190      1.0  0.18415  0.43181  0.35963  1.0000
  C   C191      1.0  0.23392  0.53600  0.41475  1.0000
  C   C192      1.0  0.23701  0.51728  0.41720  1.0000
  C   C193      1.0  0.17153  0.38504  0.34032  1.0000
  C   C194      1.0  0.12397  0.35566  0.33833  1.0000
  C   C195      1.0  0.13596  0.36260  0.41999  1.0000
  C   C196      1.0  0.15940  0.37702  0.42108  1.0000
  C   C197      1.0  0.26975  0.37051  0.40619  1.0000
  C   C198      1.0  0.27785  0.35530  0.40524  1.0000
  C   C199      1.0  0.34277  0.50994  0.42331  1.0000
  C   C200      1.0  0.36472  0.52847  0.42585  1.0000
  H   H149      1.0  0.37241  0.53408  0.48653  1.0000
  H   H150      1.0  0.33489  0.50263  0.48220  1.0000
  H   H151      1.0  0.31194  0.52750  0.30997  1.0000
  H   H152      1.0  0.26156  0.37138  0.46192  1.0000
  H   H153      1.0  0.27506  0.34530  0.46001  1.0000
  H   H154      1.0  0.19102  0.35921  0.31116  1.0000
  H   H155      1.0  0.18845  0.46471  0.36792  1.0000
  H   H156      1.0  0.16712  0.42207  0.36628  1.0000
  H   H157      1.0  0.16744  0.38239  0.48131  1.0000
  H   H158      1.0  0.12758  0.35794  0.47975  1.0000
  H   H159      1.0  0.24507  0.51528  0.47097  1.0000
  H   H160      1.0  0.23991  0.54718  0.46679  1.0000
  C   C201      1.0  0.54650  0.78405  0.31652  1.0000
  C   C202      1.0  0.56846  0.76864  0.33257  1.0000
  N   N38       1.0  0.58101  0.79132  0.33919  1.0000
  C   C203      1.0  0.57507  0.82452  0.33959  1.0000
  C   C204      1.0  0.59766  0.84219  0.34620  1.0000
  C   C205      1.0  0.66468  0.84971  0.33174  1.0000
  N   N39       1.0  0.65218  0.82704  0.34045  1.0000
  C   C206      1.0  0.68665  0.83414  0.31934  1.0000
  C   C207      1.0  0.65792  0.79366  0.34190  1.0000
  C   C208      1.0  0.63526  0.77600  0.34856  1.0000
  N   N40       1.0  0.61643  0.77747  0.34151  1.0000
  C   C209      1.0  0.60486  0.74163  0.36137  1.0000
  C   C210      1.0  0.62802  0.75323  0.36046  1.0000
  C   C211      1.0  0.57499  0.75210  0.34234  1.0000
  C   C212      1.0  0.55764  0.72905  0.34455  1.0000
  C   C213      1.0  0.51979  0.68472  0.34027  1.0000
  C   C214      1.0  0.52373  0.69889  0.41484  1.0000
  C   C215      1.0  0.54249  0.72069  0.41729  1.0000
  C   C216      1.0  0.67480  0.78736  0.34074  1.0000
  C   C217      1.0  0.70420  0.76921  0.33874  1.0000
  C   C218      1.0  0.69728  0.77430  0.42040  1.0000
  C   C219      1.0  0.68283  0.78328  0.42149  1.0000
  C   C220      1.0  0.68932  0.90012  0.40643  1.0000
  C   C221      1.0  0.70452  0.92342  0.40544  1.0000
  C   C222      1.0  0.70566  0.93683  0.33151  1.0000
  C   C223      1.0  0.55780  0.83026  0.34122  1.0000
  C   C224      1.0  0.54982  0.83356  0.42367  1.0000
  C   C225      1.0  0.52003  0.83664  0.34673  1.0000
  C   C226      1.0  0.53129  0.83699  0.42627  1.0000
  H   H161      1.0  0.52566  0.83903  0.48698  1.0000
  H   H162      1.0  0.55710  0.83294  0.48255  1.0000
  H   H163      1.0  0.53240  0.78531  0.30880  1.0000
  H   H164      1.0  0.59651  0.79912  0.35755  1.0000
  H   H165      1.0  0.63649  0.81923  0.35604  1.0000
  H   H166      1.0  0.68847  0.89104  0.46210  1.0000
  H   H167      1.0  0.71455  0.93063  0.46014  1.0000
  H   H168      1.0  0.70065  0.83269  0.31162  1.0000
  H   H169      1.0  0.59512  0.72463  0.36911  1.0000
  H   H170      1.0  0.63777  0.74595  0.36750  1.0000
  H   H171      1.0  0.67747  0.78597  0.48173  1.0000
  H   H172      1.0  0.70192  0.77057  0.48016  1.0000
  H   H173      1.0  0.54442  0.73082  0.47076  1.0000
  H   H174      1.0  0.51251  0.69375  0.46672  1.0000
  C   C227      1.0  0.21764  0.75634  0.34539  1.0000
  C   C228      1.0  0.28386  0.86014  0.34771  1.0000
  C   C229      1.0  0.31824  0.86413  0.36030  1.0000
  C   C230      1.0  0.30664  0.87570  0.35937  1.0000
  C   C231      1.0  0.36098  0.82581  0.41463  1.0000
  C   C232      1.0  0.33918  0.82275  0.41702  1.0000
  C   C233      1.0  0.28556  0.92387  0.41980  1.0000
  C   C234      1.0  0.27654  0.90043  0.42088  1.0000
  C   C235      1.0  0.15970  0.79003  0.40588  1.0000
  C   C236      1.0  0.13640  0.78194  0.40487  1.0000
  C   C237      1.0  0.22616  0.71708  0.42296  1.0000
  C   C238      1.0  0.22276  0.69514  0.42550  1.0000
  H   H175      1.0  0.22063  0.68742  0.48618  1.0000
  H   H176      1.0  0.22672  0.72495  0.48185  1.0000
  H   H177      1.0  0.27455  0.74794  0.30917  1.0000
  H   H178      1.0  0.16875  0.79822  0.46162  1.0000
  H   H179      1.0  0.12917  0.78469  0.45967  1.0000
  H   H180      1.0  0.22717  0.86886  0.31158  1.0000
  H   H181      1.0  0.33523  0.87138  0.36800  1.0000
  H   H182      1.0  0.31392  0.89272  0.36626  1.0000
  H   H183      1.0  0.27388  0.89238  0.48109  1.0000
  H   H184      1.0  0.28927  0.93224  0.47956  1.0000
  H   H185      1.0  0.32907  0.81464  0.47065  1.0000
  H   H186      1.0  0.36614  0.81981  0.46670  1.0000
  C   C239      1.0  0.78262  0.52705  0.31884  1.0000
  C   C240      1.0  0.80268  0.52710  0.31843  1.0000
  C   C241      1.0  0.82002  0.54904  0.33395  1.0000
  N   N41       1.0  0.80989  0.56159  0.34049  1.0000
  C   C242      1.0  0.77076  0.55572  0.33997  1.0000
  C   C243      1.0  0.77570  0.57832  0.34607  1.0000
  C   C244      1.0  0.83523  0.64534  0.33213  1.0000
  N   N42       1.0  0.84539  0.63284  0.34079  1.0000
  C   C245      1.0  0.87278  0.66731  0.32010  1.0000
  C   C246      1.0  0.88450  0.63855  0.34188  1.0000
  C   C247      1.0  0.87950  0.61588  0.34843  1.0000
  N   N43       1.0  0.85920  0.59705  0.34176  1.0000
  C   C248      1.0  0.88350  0.58548  0.36062  1.0000
  C   C249      1.0  0.89507  0.60865  0.35971  1.0000
  C   C250      1.0  0.84313  0.55561  0.34274  1.0000
  C   C251      1.0  0.84884  0.53827  0.34478  1.0000
  C   C252      1.0  0.85534  0.50043  0.34039  1.0000
  C   C253      1.0  0.84527  0.50446  0.41529  1.0000
  C   C254      1.0  0.84221  0.52320  0.41778  1.0000
  C   C255      1.0  0.90769  0.65543  0.34065  1.0000
  C   C256      1.0  0.95525  0.68482  0.33840  1.0000
  C   C257      1.0  0.94327  0.67787  0.42012  1.0000
  C   C258      1.0  0.91983  0.66344  0.42134  1.0000
  C   C259      1.0  0.80940  0.66994  0.40667  1.0000
  C   C260      1.0  0.80129  0.68514  0.40567  1.0000
  C   C261      1.0  0.78909  0.68633  0.33160  1.0000
  C   C262      1.0  0.74775  0.53846  0.34149  1.0000
  C   C263      1.0  0.73641  0.53055  0.42389  1.0000
  C   C264      1.0  0.70360  0.50069  0.34689  1.0000
  C   C265      1.0  0.71447  0.51201  0.42641  1.0000
  H   H187      1.0  0.70674  0.50641  0.48708  1.0000
  H   H188      1.0  0.74427  0.53786  0.48278  1.0000
  H   H189      1.0  0.76726  0.51296  0.31098  1.0000
  H   H190      1.0  0.81767  0.57724  0.35660  1.0000
  H   H191      1.0  0.83750  0.61711  0.35560  1.0000
  H   H192      1.0  0.81753  0.66903  0.46249  1.0000
  H   H193      1.0  0.80402  0.69510  0.46050  1.0000
  H   H194      1.0  0.88823  0.68131  0.31243  1.0000
  H   H195      1.0  0.89076  0.57575  0.36810  1.0000
  H   H196      1.0  0.91209  0.61839  0.36636  1.0000
  H   H197      1.0  0.91180  0.65807  0.48160  1.0000
  H   H198      1.0  0.95165  0.68252  0.47984  1.0000
  H   H199      1.0  0.83415  0.52521  0.47158  1.0000
  H   H200      1.0  0.83933  0.49331  0.46745  1.0000
  C   C266      1.0  0.53280  0.25645  0.31902  1.0000
  C   C267      1.0  0.53275  0.27647  0.31866  1.0000
  C   C268      1.0  0.51080  0.27186  0.33419  1.0000
  N   N44       1.0  0.49826  0.24918  0.34085  1.0000
  C   C269      1.0  0.51080  0.23906  0.33295  1.0000
  C   C270      1.0  0.50415  0.21593  0.34025  1.0000
  C   C271      1.0  0.48154  0.19826  0.34631  1.0000
  N   N45       1.0  0.46271  0.19973  0.33899  1.0000
  C   C272      1.0  0.42123  0.17425  0.33743  1.0000
  C   C273      1.0  0.41454  0.19077  0.33198  1.0000
  N   N46       1.0  0.42704  0.21344  0.34062  1.0000
  C   C274      1.0  0.41456  0.22366  0.33402  1.0000
  C   C275      1.0  0.39258  0.20635  0.31940  1.0000
  C   C276      1.0  0.39258  0.18626  0.31762  1.0000
  C   C277      1.0  0.42130  0.24682  0.34211  1.0000
  C   C278      1.0  0.44395  0.26447  0.34890  1.0000
  N   N47       1.0  0.46279  0.26301  0.34215  1.0000
  C   C279      1.0  0.48157  0.28335  0.34925  1.0000
  C   C280      1.0  0.47434  0.29886  0.36139  1.0000
  C   C281      1.0  0.45118  0.28726  0.36038  1.0000
  C   C282      1.0  0.50423  0.28839  0.34313  1.0000
  C   C283      1.0  0.52156  0.31145  0.34523  1.0000
  C   C284      1.0  0.55940  0.35578  0.34082  1.0000
  C   C285      1.0  0.55536  0.34168  0.41572  1.0000
  C   C286      1.0  0.53664  0.31986  0.41815  1.0000
  C   C287      1.0  0.40441  0.25312  0.34088  1.0000
  C   C288      1.0  0.37502  0.27129  0.33873  1.0000
  C   C289      1.0  0.38194  0.26623  0.42043  1.0000
  C   C290      1.0  0.39637  0.25721  0.42160  1.0000
  C   C291      1.0  0.40433  0.15101  0.33328  1.0000
  C   C292      1.0  0.38986  0.14034  0.40659  1.0000
  C   C293      1.0  0.37466  0.11703  0.40553  1.0000
  C   C294      1.0  0.37353  0.10365  0.33151  1.0000
  C   C295      1.0  0.52140  0.21018  0.34177  1.0000
  C   C296      1.0  0.52931  0.20676  0.42417  1.0000
  C   C297      1.0  0.55918  0.20381  0.34717  1.0000
  C   C298      1.0  0.54784  0.20334  0.42670  1.0000
  H   H201      1.0  0.55344  0.20124  0.48737  1.0000
  H   H202      1.0  0.52199  0.20732  0.48307  1.0000
  H   H203      1.0  0.54689  0.25519  0.31097  1.0000
  H   H204      1.0  0.48262  0.24131  0.35704  1.0000
  H   H205      1.0  0.44269  0.22123  0.35674  1.0000
  H   H206      1.0  0.44157  0.14688  0.36428  1.0000
  H   H207      1.0  0.39072  0.14938  0.46236  1.0000
  H   H208      1.0  0.36464  0.10980  0.46026  1.0000
  H   H209      1.0  0.37859  0.20780  0.31162  1.0000
  H   H210      1.0  0.48408  0.31587  0.36877  1.0000
  H   H211      1.0  0.44143  0.29455  0.36699  1.0000
  H   H212      1.0  0.40173  0.25454  0.48185  1.0000
  H   H213      1.0  0.37727  0.26995  0.48016  1.0000
  H   H214      1.0  0.53462  0.30980  0.47193  1.0000
  H   H215      1.0  0.56653  0.34686  0.46777  1.0000
  C   C299      1.0  0.80342  0.27715  0.31654  1.0000
  C   C300      1.0  0.78801  0.23978  0.33261  1.0000
  C   C301      1.0  0.84389  0.28905  0.33952  1.0000
  C   C302      1.0  0.86156  0.28412  0.34610  1.0000
  C   C303      1.0  0.86908  0.22463  0.33160  1.0000
  C   C304      1.0  0.85351  0.18709  0.31918  1.0000
  C   C305      1.0  0.81303  0.17534  0.34179  1.0000
  C   C306      1.0  0.79537  0.18035  0.34852  1.0000
  N   N48       1.0  0.79684  0.20064  0.34148  1.0000
  C   C307      1.0  0.76100  0.17637  0.36143  1.0000
  C   C308      1.0  0.77260  0.16480  0.36046  1.0000
  C   C309      1.0  0.74842  0.21101  0.34472  1.0000
  C   C310      1.0  0.71828  0.21476  0.41515  1.0000
  C   C311      1.0  0.74008  0.21781  0.41750  1.0000
  C   C312      1.0  0.80673  0.15215  0.34062  1.0000
  C   C313      1.0  0.78857  0.10460  0.33860  1.0000
  C   C314      1.0  0.79366  0.11660  0.42026  1.0000
  C   C315      1.0  0.80265  0.14004  0.42136  1.0000
  C   C316      1.0  0.91948  0.25038  0.40627  1.0000
  C   C317      1.0  0.94279  0.25848  0.40526  1.0000
  C   C318      1.0  0.85293  0.32332  0.42364  1.0000
  C   C319      1.0  0.85601  0.35621  0.34672  1.0000
  C   C320      1.0  0.85635  0.34528  0.42625  1.0000
  H   H216      1.0  0.85839  0.35295  0.48697  1.0000
  H   H217      1.0  0.85230  0.31541  0.48250  1.0000
  H   H218      1.0  0.80468  0.29251  0.30882  1.0000
  H   H219      1.0  0.83860  0.22233  0.35594  1.0000
  H   H220      1.0  0.91041  0.24215  0.46194  1.0000
  H   H221      1.0  0.94999  0.25566  0.45995  1.0000
  H   H222      1.0  0.85206  0.17164  0.31144  1.0000
  H   H223      1.0  0.74401  0.16912  0.36921  1.0000
  H   H224      1.0  0.76532  0.14778  0.36750  1.0000
  H   H225      1.0  0.80534  0.14808  0.48160  1.0000
  H   H226      1.0  0.78993  0.10822  0.48002  1.0000
  H   H227      1.0  0.75021  0.22600  0.47094  1.0000
  H   H228      1.0  0.71314  0.22084  0.46706  1.0000
  C   C321      1.0  0.22195  0.66301  0.34856  1.0000
  C   C322      1.0  0.24022  0.66055  0.37882  1.0000
  C   C323      1.0  0.23839  0.63923  0.37490  1.0000
  C   C324      1.0  0.21895  0.62027  0.34149  1.0000
  C   C325      1.0  0.21883  0.59954  0.33899  1.0000
  C   C326      1.0  0.20888  0.58346  0.40813  1.0000
  C   C327      1.0  0.21052  0.56377  0.40493  1.0000
  H   H229      1.0  0.20321  0.55222  0.45527  1.0000
  H   H230      1.0  0.25166  0.63756  0.39639  1.0000
  N   N49       1.0  0.19795  0.58764  0.47966  1.0000
  N   N50       1.0  0.26104  0.67813  0.41041  1.0000
  O   O1        1.0  0.20732  0.58870  0.55313  1.0000
  O   O2        1.0  0.25921  0.68596  0.48370  1.0000
  O   O3        1.0  0.17765  0.57266  0.48485  1.0000
  O   O4        1.0  0.27070  0.69375  0.35456  1.0000
  C   C328      1.0  0.39683  0.55981  0.34892  1.0000
  C   C329      1.0  0.39928  0.58054  0.37919  1.0000
  C   C330      1.0  0.42060  0.60005  0.37529  1.0000
  C   C331      1.0  0.43957  0.59957  0.34187  1.0000
  C   C332      1.0  0.46029  0.62019  0.33942  1.0000
  C   C333      1.0  0.47630  0.62636  0.40879  1.0000
  C   C334      1.0  0.49598  0.64769  0.40562  1.0000
  H   H231      1.0  0.50749  0.65196  0.45610  1.0000
  H   H232      1.0  0.42224  0.61497  0.39679  1.0000
  N   N51       1.0  0.47207  0.61130  0.48050  1.0000
  N   N52       1.0  0.38168  0.58377  0.41079  1.0000
  O   O5        1.0  0.47093  0.61962  0.55381  1.0000
  O   O6        1.0  0.37384  0.57410  0.48406  1.0000
  O   O7        1.0  0.48705  0.60599  0.48608  1.0000
  O   O8        1.0  0.36607  0.57780  0.35494  1.0000
  C   C335      1.0  0.50003  0.83789  0.34933  1.0000
  C   C336      1.0  0.47928  0.81960  0.37943  1.0000
  C   C337      1.0  0.45979  0.82143  0.37544  1.0000
  C   C338      1.0  0.46029  0.84090  0.34211  1.0000
  C   C339      1.0  0.43968  0.84101  0.33949  1.0000
  C   C340      1.0  0.43350  0.85090  0.40865  1.0000
  C   C341      1.0  0.41218  0.84926  0.40532  1.0000
  C   C342      1.0  0.39668  0.83766  0.33574  1.0000
  H   H233      1.0  0.40789  0.85653  0.45568  1.0000
  H   H234      1.0  0.44484  0.80815  0.39681  1.0000
  N   N53       1.0  0.44854  0.86177  0.48035  1.0000
  N   N54       1.0  0.47601  0.79875  0.41089  1.0000
  O   O9        1.0  0.44019  0.85235  0.55371  1.0000
  O   O10       1.0  0.48561  0.80053  0.48424  1.0000
  O   O11       1.0  0.45386  0.88207  0.48570  1.0000
  O   O12       1.0  0.48201  0.78913  0.35503  1.0000
  C   C343      1.0  0.85726  0.37745  0.34935  1.0000
  C   C344      1.0  0.83896  0.37990  0.37938  1.0000
  C   C345      1.0  0.84079  0.40123  0.37541  1.0000
  C   C346      1.0  0.86026  0.42020  0.34214  1.0000
  C   C347      1.0  0.86038  0.44093  0.33961  1.0000
  C   C348      1.0  0.87033  0.45701  0.40867  1.0000
  C   C349      1.0  0.86869  0.47670  0.40545  1.0000
  H   H235      1.0  0.87601  0.48826  0.45571  1.0000
  H   H236      1.0  0.82750  0.40288  0.39675  1.0000
  N   N55       1.0  0.88126  0.45285  0.48016  1.0000
  N   N56       1.0  0.81810  0.36231  0.41078  1.0000
  O   O13       1.0  0.87191  0.45179  0.55367  1.0000
  O   O14       1.0  0.81987  0.35447  0.48413  1.0000
  O   O15       1.0  0.90157  0.46783  0.48524  1.0000
  O   O16       1.0  0.80850  0.34671  0.35488  1.0000
  C   C350      1.0  0.68237  0.48068  0.34948  1.0000
  C   C351      1.0  0.67991  0.45995  0.37977  1.0000
  C   C352      1.0  0.65859  0.44045  0.37586  1.0000
  C   C353      1.0  0.63963  0.44093  0.34244  1.0000
  C   C354      1.0  0.61891  0.42032  0.33995  1.0000
  C   C355      1.0  0.60282  0.41418  0.40908  1.0000
  C   C356      1.0  0.58314  0.39286  0.40588  1.0000
  C   C357      1.0  0.57925  0.37731  0.33649  1.0000
  H   H237      1.0  0.57158  0.38861  0.45620  1.0000
  H   H238      1.0  0.65693  0.42552  0.39737  1.0000
  N   N57       1.0  0.60699  0.42928  0.48059  1.0000
  N   N58       1.0  0.69749  0.45671  0.41138  1.0000
  O   O17       1.0  0.60804  0.42098  0.55407  1.0000
  O   O18       1.0  0.70532  0.46637  0.48465  1.0000
  O   O19       1.0  0.59201  0.43460  0.48576  1.0000
  O   O20       1.0  0.71312  0.46269  0.35553  1.0000
  C   C358      1.0  0.57918  0.20258  0.34975  1.0000
  C   C359      1.0  0.59991  0.22085  0.38006  1.0000
  C   C360      1.0  0.61941  0.21904  0.37612  1.0000
  C   C361      1.0  0.61894  0.19960  0.34261  1.0000
  C   C362      1.0  0.63956  0.19950  0.34008  1.0000
  C   C363      1.0  0.64575  0.18967  0.40943  1.0000
  C   C364      1.0  0.66708  0.19132  0.40617  1.0000
  C   C365      1.0  0.68257  0.20286  0.33644  1.0000
  H   H239      1.0  0.67136  0.18408  0.45663  1.0000
  H   H240      1.0  0.63433  0.23230  0.39763  1.0000
  N   N59       1.0  0.63070  0.17883  0.48121  1.0000
  N   N60       1.0  0.60314  0.24167  0.41173  1.0000
  O   O21       1.0  0.63904  0.18830  0.55448  1.0000
  O   O22       1.0  0.59347  0.23982  0.48501  1.0000
  O   O23       1.0  0.62539  0.15854  0.48683  1.0000
  O   O24       1.0  0.59717  0.25132  0.35592  1.0000
  C   C366      1.0  0.09997  0.34237  0.33737  1.0000
  C   C367      1.0  0.08808  0.32152  0.38307  1.0000
  C   C368      1.0  0.06430  0.30950  0.38110  1.0000
  C   C369      1.0  0.05199  0.31770  0.33465  1.0000
  C   C370      1.0  0.02810  0.30491  0.33726  1.0000
  C   C371      1.0  0.01580  0.30740  0.40786  1.0000
  C   C372      1.0  0.99206  0.29535  0.40449  1.0000
  H   H241      1.0  0.98343  0.29798  0.45446  1.0000
  H   H242      1.0  0.05590  0.29446  0.41421  1.0000
  N   N61       1.0  0.02751  0.32218  0.47935  1.0000
  N   N62       1.0  0.10011  0.31268  0.42788  1.0000
  O   O25       1.0  0.02290  0.31190  0.55274  1.0000
  O   O26       1.0  0.09542  0.30989  0.50984  1.0000
  O   O27       1.0  0.02301  0.33774  0.48487  1.0000
  O   O28       1.0  0.09613  0.29425  0.39473  1.0000
  C   C373      1.0  0.71749  0.75849  0.33779  1.0000
  C   C374      1.0  0.73833  0.76745  0.38340  1.0000
  C   C375      1.0  0.75035  0.75569  0.38143  1.0000
  C   C376      1.0  0.74215  0.73517  0.33506  1.0000
  C   C377      1.0  0.75493  0.72407  0.33765  1.0000
  C   C378      1.0  0.75238  0.70923  0.40811  1.0000
  C   C379      1.0  0.76442  0.69753  0.40466  1.0000
  C   C380      1.0  0.77916  0.70033  0.33325  1.0000
  H   H243      1.0  0.76177  0.68625  0.45458  1.0000
  H   H244      1.0  0.76539  0.76234  0.41447  1.0000
  N   N63       1.0  0.73756  0.70612  0.47953  1.0000
  N   N64       1.0  0.74719  0.78834  0.42814  1.0000
  O   O29       1.0  0.74779  0.71174  0.55299  1.0000
  O   O30       1.0  0.74998  0.78646  0.51011  1.0000
  O   O31       1.0  0.72199  0.68606  0.48485  1.0000
  O   O32       1.0  0.76561  0.80277  0.39491  1.0000
  C   C381      1.0  0.30135  0.95988  0.33723  1.0000
  C   C382      1.0  0.29238  0.97176  0.38289  1.0000
  C   C383      1.0  0.30413  0.99554  0.38095  1.0000
  C   C384      1.0  0.32466  0.00786  0.33458  1.0000
  C   C385      1.0  0.33576  0.03175  0.33725  1.0000
  C   C386      1.0  0.35055  0.04402  0.40784  1.0000
  C   C387      1.0  0.36224  0.06776  0.40453  1.0000
  H   H245      1.0  0.37350  0.07638  0.45449  1.0000
  H   H246      1.0  0.29748  0.00392  0.41405  1.0000
  N   N65       1.0  0.35362  0.03229  0.47926  1.0000
  N   N66       1.0  0.27149  0.95972  0.42763  1.0000
  O   O33       1.0  0.34794  0.03687  0.55270  1.0000
  O   O34       1.0  0.27335  0.96438  0.50960  1.0000
  O   O35       1.0  0.37368  0.03678  0.48471  1.0000
  O   O36       1.0  0.25706  0.96371  0.39444  1.0000
  C   C388      1.0  0.97925  0.69811  0.33731  1.0000
  C   C389      1.0  0.99114  0.71895  0.38295  1.0000
  C   C390      1.0  0.01492  0.73097  0.38087  1.0000
  C   C391      1.0  0.02722  0.72277  0.33438  1.0000
  C   C392      1.0  0.05112  0.73555  0.33692  1.0000
  C   C393      1.0  0.06340  0.73302  0.40740  1.0000
  C   C394      1.0  0.08714  0.74506  0.40394  1.0000
  H   H247      1.0  0.09577  0.74242  0.45388  1.0000
  H   H248      1.0  0.02332  0.74601  0.41395  1.0000
  N   N67       1.0  0.05169  0.71821  0.47887  1.0000
  N   N68       1.0  0.97911  0.72780  0.42782  1.0000
  O   O37       1.0  0.05629  0.72846  0.55230  1.0000
  O   O38       1.0  0.98380  0.73059  0.50976  1.0000
  O   O39       1.0  0.05618  0.70264  0.48423  1.0000
  O   O40       1.0  0.98310  0.74622  0.39467  1.0000
  C   C395      1.0  0.36173  0.28199  0.33769  1.0000
  C   C396      1.0  0.34087  0.27303  0.38332  1.0000
  C   C397      1.0  0.32884  0.28478  0.38128  1.0000
  C   C398      1.0  0.33705  0.30529  0.33482  1.0000
  C   C399      1.0  0.32426  0.31639  0.33738  1.0000
  C   C400      1.0  0.32676  0.33119  0.40789  1.0000
  C   C401      1.0  0.31471  0.34289  0.40446  1.0000
  H   H249      1.0  0.31734  0.35416  0.45436  1.0000
  H   H250      1.0  0.31380  0.27813  0.41435  1.0000
  N   N69       1.0  0.34155  0.33429  0.47937  1.0000
  N   N70       1.0  0.33202  0.25215  0.42815  1.0000
  O   O41       1.0  0.33128  0.32863  0.55278  1.0000
  O   O42       1.0  0.32921  0.25404  0.51011  1.0000
  O   O43       1.0  0.35711  0.35435  0.48477  1.0000
  O   O44       1.0  0.31360  0.23771  0.39497  1.0000
  C   C402      1.0  0.77785  0.08060  0.33764  1.0000
  C   C403      1.0  0.78681  0.06870  0.38325  1.0000
  C   C404      1.0  0.77504  0.04492  0.38129  1.0000
  C   C405      1.0  0.75453  0.03262  0.33491  1.0000
  C   C406      1.0  0.74342  0.00873  0.33751  1.0000
  C   C407      1.0  0.72863  0.99643  0.40809  1.0000
  C   C408      1.0  0.71692  0.97269  0.40466  1.0000
  H   H251      1.0  0.70567  0.96406  0.45467  1.0000
  H   H252      1.0  0.78169  0.03653  0.41433  1.0000
  N   N71       1.0  0.72555  0.00814  0.47961  1.0000
  N   N72       1.0  0.80769  0.08073  0.42799  1.0000
  O   O45       1.0  0.73121  0.00353  0.55298  1.0000
  O   O46       1.0  0.80581  0.07605  0.50995  1.0000
  O   O47       1.0  0.70549  0.00365  0.48512  1.0000
  O   O48       1.0  0.82212  0.07674  0.39475  1.0000
