data_image0
_chemical_formula_structural       C2NC2OH3C2NC2OH3NCHNCHNCHNCHNCHNCHC2NC2OH3C2NC2OH3NCHNCHC2NC2OH3C2NC2OH3NCHNCHNCHNCHC2NC2OH3C2NC2OH3NCHNCHC2NC2OH3C2NC2OH3NCHNCHNCHNCHC2NC2OH3C2NC2OH3C6H3C6H3C6H3C6H3C6H3C6H3C6H3C6H3C6H3C6H3C6H3C6H3C6H3C6H3C6H3C6H3C6H3C6H3C6H3C6H3NCHNCHC2NC2OH3C2NC2OH3C2NC2OH3C2NC2OH3C2NC2OH3C2NC2OH3NCHNCHC2NC2OH3C2NC2OH3NCHNCHC2NC2OH3C2NC2OH3C2NC2OH3C2NC2OH3NCHNCHC2NC2OH3C2NC2OH3NCHNCHC2NC2OH3C2NC2OH3C2NC2OH3C2NC2OH3NCHNCHC2NC2OH3C2NC2OH3NCHNCHNCHNCHNCHNCHC2NC2OH3C2NC2OH3NCHNCHC2NC2OH3C2NC2OH3NCHNCHNCHNCHC2NC2OH3C2NC2OH3NCHNCHC2NC2OH3C2NC2OH3NCHNCHNCHNCHC2NC2OH3C2NC2OH3C6H3C6H3C6H3C6H3C6H3C6H3C6H3C6H3C6H3C6H3C6H3C6H3C6H3C6H3C6H3C6H3C6H3C6H3C6H3C6H3NCHNCHC2NC2OH3C2NC2OH3C2NC2OH3C2NC2OH3C2NC2OH3C2NC2OH3NCHNCHC2NC2OH3C2NC2OH3NCHNCHC2NC2OH3C2NC2OH3C2NC2OH3C2NC2OH3NCHNCHC2NC2OH3C2NC2OH3NCHNCHC2NC2OH3C2NC2OH3C2NC2OH3C2NC2OH3NCHNCH
_chemical_formula_sum              "C540 N120 O60 H360"
_cell_length_a       84.772
_cell_length_b       44.6534
_cell_length_c       14.8816
_cell_angle_alpha    90
_cell_angle_beta     90
_cell_angle_gamma    90

_space_group_name_H-M_alt    "P 1"
_space_group_IT_number       1

loop_
  _space_group_symop_operation_xyz
  'x, y, z'

loop_
  _atom_site_type_symbol
  _atom_site_label
  _atom_site_symmetry_multiplicity
  _atom_site_fract_x
  _atom_site_fract_y
  _atom_site_fract_z
  _atom_site_occupancy
  C   C1        1.0  0.23785  0.13481  0.32643  1.0000
  C   C2        1.0  0.26996  0.12338  0.34568  1.0000
  N   N1        1.0  0.26394  0.13355  0.26695  1.0000
  C   C3        1.0  0.24845  0.14023  0.25413  1.0000
  C   C4        1.0  0.24358  0.15165  0.16457  1.0000
  O   O1        1.0  0.23155  0.13354  0.12440  1.0000
  H   H1        1.0  0.25367  0.15299  0.11889  1.0000
  H   H2        1.0  0.23895  0.17430  0.17180  1.0000
  H   H3        1.0  0.23609  0.11373  0.11098  1.0000
  C   C5        1.0  0.76985  0.37245  0.32680  1.0000
  C   C6        1.0  0.73774  0.38383  0.34596  1.0000
  N   N2        1.0  0.74378  0.37380  0.26709  1.0000
  C   C7        1.0  0.75927  0.36714  0.25431  1.0000
  C   C8        1.0  0.76417  0.35588  0.16461  1.0000
  O   O2        1.0  0.77619  0.37410  0.12478  1.0000
  H   H4        1.0  0.75408  0.35459  0.11885  1.0000
  H   H5        1.0  0.76881  0.33324  0.17154  1.0000
  H   H6        1.0  0.77163  0.39392  0.11163  1.0000
  N   N3        1.0  0.76424  0.12346  0.27847  1.0000
  C   C9        1.0  0.74887  0.11610  0.26710  1.0000
  H   H7        1.0  0.74536  0.10624  0.20841  1.0000
  N   N4        1.0  0.24378  0.38372  0.27777  1.0000
  C   C10       1.0  0.25917  0.39105  0.26671  1.0000
  H   H8        1.0  0.26272  0.40086  0.20804  1.0000
  N   N5        1.0  0.29558  0.48784  0.27341  1.0000
  C   C11       1.0  0.29500  0.01798  0.26723  1.0000
  H   H9        1.0  0.28905  0.02778  0.21521  1.0000
  N   N6        1.0  0.71231  0.01941  0.27257  1.0000
  C   C12       1.0  0.71283  0.48927  0.26642  1.0000
  H   H10       1.0  0.71877  0.47943  0.21444  1.0000
  N   N7        1.0  0.79587  0.23700  0.27531  1.0000
  C   C13       1.0  0.79530  0.26706  0.26690  1.0000
  H   H11       1.0  0.78918  0.27637  0.21473  1.0000
  N   N8        1.0  0.21198  0.27029  0.27520  1.0000
  C   C14       1.0  0.21249  0.24023  0.26681  1.0000
  H   H12       1.0  0.21857  0.23086  0.21458  1.0000
  C   C15       1.0  0.36035  0.14750  0.32808  1.0000
  C   C16       1.0  0.32847  0.13158  0.32943  1.0000
  N   N9        1.0  0.33799  0.12549  0.25831  1.0000
  C   C17       1.0  0.35342  0.13330  0.25225  1.0000
  C   C18       1.0  0.36180  0.12594  0.16738  1.0000
  O   O3        1.0  0.36930  0.15158  0.12845  1.0000
  H   H13       1.0  0.35372  0.11617  0.11807  1.0000
  H   H14       1.0  0.37083  0.10915  0.18073  1.0000
  H   H15       1.0  0.36104  0.16574  0.10947  1.0000
  C   C19       1.0  0.64733  0.35990  0.32821  1.0000
  C   C20       1.0  0.67923  0.37575  0.32964  1.0000
  N   N10       1.0  0.66970  0.38197  0.25865  1.0000
  C   C21       1.0  0.65425  0.37420  0.25256  1.0000
  C   C22       1.0  0.64588  0.38169  0.16776  1.0000
  O   O4        1.0  0.63837  0.35611  0.12852  1.0000
  H   H16       1.0  0.65397  0.39150  0.11857  1.0000
  H   H17       1.0  0.63686  0.39848  0.18129  1.0000
  H   H18       1.0  0.64662  0.34196  0.10938  1.0000
  N   N11       1.0  0.65740  0.15549  0.28989  1.0000
  C   C23       1.0  0.67306  0.14896  0.28770  1.0000
  H   H19       1.0  0.67954  0.15454  0.23226  1.0000
  N   N12       1.0  0.35061  0.35190  0.29037  1.0000
  C   C24       1.0  0.33495  0.35845  0.28806  1.0000
  H   H20       1.0  0.32845  0.35278  0.23276  1.0000
  C   C25       1.0  0.86032  0.39754  0.32883  1.0000
  C   C26       1.0  0.82842  0.38182  0.32864  1.0000
  N   N13       1.0  0.83794  0.37624  0.25718  1.0000
  C   C27       1.0  0.85339  0.38399  0.25192  1.0000
  C   C28       1.0  0.86182  0.37716  0.16681  1.0000
  O   O5        1.0  0.86935  0.40303  0.12948  1.0000
  H   H21       1.0  0.85376  0.36771  0.11681  1.0000
  H   H22       1.0  0.87084  0.36029  0.17944  1.0000
  H   H23       1.0  0.86110  0.41731  0.11113  1.0000
  C   C29       1.0  0.14735  0.10989  0.32884  1.0000
  C   C30       1.0  0.17928  0.12555  0.32880  1.0000
  N   N14       1.0  0.16974  0.13123  0.25747  1.0000
  C   C31       1.0  0.15428  0.12351  0.25209  1.0000
  C   C32       1.0  0.14587  0.13045  0.16700  1.0000
  O   O6        1.0  0.13834  0.10463  0.12939  1.0000
  H   H24       1.0  0.15394  0.13994  0.11713  1.0000
  H   H25       1.0  0.13686  0.14733  0.17972  1.0000
  H   H26       1.0  0.14658  0.09035  0.11095  1.0000
  N   N15       1.0  0.15734  0.40539  0.28982  1.0000
  C   C33       1.0  0.17300  0.39890  0.28853  1.0000
  H   H27       1.0  0.17954  0.40410  0.23298  1.0000
  N   N16       1.0  0.85067  0.10207  0.29033  1.0000
  C   C34       1.0  0.83500  0.10857  0.28888  1.0000
  H   H28       1.0  0.82846  0.10330  0.23340  1.0000
  N   N17       1.0  0.08662  0.19928  0.30964  1.0000
  C   C35       1.0  0.09713  0.17652  0.30366  1.0000
  H   H29       1.0  0.10796  0.18177  0.27867  1.0000
  N   N18       1.0  0.92106  0.30781  0.31195  1.0000
  C   C36       1.0  0.91048  0.33045  0.30615  1.0000
  H   H30       1.0  0.89959  0.32499  0.28254  1.0000
  C   C37       1.0  0.93696  0.19671  0.33192  1.0000
  C   C38       1.0  0.91536  0.14626  0.34375  1.0000
  N   N19       1.0  0.93083  0.14365  0.32023  1.0000
  C   C39       1.0  0.94173  0.16636  0.31319  1.0000
  C   C40       1.0  0.95721  0.15628  0.27722  1.0000
  O   O7        1.0  0.96180  0.17233  0.19803  1.0000
  H   H31       1.0  0.95706  0.13236  0.26078  1.0000
  H   H32       1.0  0.96618  0.15888  0.32901  1.0000
  H   H33       1.0  0.95421  0.16771  0.14990  1.0000
  C   C41       1.0  0.07110  0.31051  0.33251  1.0000
  C   C42       1.0  0.09268  0.36096  0.34304  1.0000
  N   N20       1.0  0.07720  0.36353  0.31985  1.0000
  C   C43       1.0  0.06629  0.34081  0.31344  1.0000
  C   C44       1.0  0.05082  0.35074  0.27691  1.0000
  O   O8        1.0  0.04611  0.33407  0.19909  1.0000
  H   H34       1.0  0.05104  0.37450  0.25865  1.0000
  H   H35       1.0  0.04186  0.34868  0.32899  1.0000
  H   H36       1.0  0.05369  0.33819  0.15046  1.0000
  N   N21       1.0  0.58658  0.44913  0.30940  1.0000
  C   C45       1.0  0.59708  0.42635  0.30332  1.0000
  H   H37       1.0  0.60789  0.43157  0.27808  1.0000
  N   N22       1.0  0.42111  0.05795  0.31143  1.0000
  C   C46       1.0  0.41055  0.08061  0.30547  1.0000
  H   H38       1.0  0.39967  0.07519  0.28153  1.0000
  C   C47       1.0  0.43694  0.44682  0.33198  1.0000
  C   C48       1.0  0.41530  0.39640  0.34380  1.0000
  N   N23       1.0  0.43077  0.39375  0.32050  1.0000
  C   C49       1.0  0.44170  0.41644  0.31348  1.0000
  C   C50       1.0  0.45718  0.40631  0.27780  1.0000
  O   O9        1.0  0.46181  0.42228  0.19854  1.0000
  H   H39       1.0  0.45703  0.38237  0.26155  1.0000
  H   H40       1.0  0.46613  0.40893  0.32968  1.0000
  H   H41       1.0  0.45423  0.41762  0.15034  1.0000
  C   C51       1.0  0.57114  0.06040  0.33268  1.0000
  C   C52       1.0  0.59275  0.11080  0.34331  1.0000
  N   N24       1.0  0.57727  0.11341  0.32014  1.0000
  C   C53       1.0  0.56634  0.09071  0.31368  1.0000
  C   C54       1.0  0.55088  0.10067  0.27721  1.0000
  O   O10       1.0  0.54616  0.08404  0.19936  1.0000
  H   H42       1.0  0.55111  0.12445  0.25900  1.0000
  H   H43       1.0  0.54193  0.09863  0.32929  1.0000
  H   H44       1.0  0.55374  0.08816  0.15072  1.0000
  N   N25       1.0  0.09528  0.48755  0.32466  1.0000
  C   C55       1.0  0.09393  0.01828  0.32249  1.0000
  H   H45       1.0  0.08615  0.02779  0.27854  1.0000
  N   N26       1.0  0.91258  0.01963  0.32510  1.0000
  C   C56       1.0  0.91386  0.48889  0.32276  1.0000
  H   H46       1.0  0.92168  0.47928  0.27928  1.0000
  N   N27       1.0  0.59534  0.23730  0.32506  1.0000
  C   C57       1.0  0.59395  0.26803  0.32268  1.0000
  H   H47       1.0  0.58611  0.27747  0.27897  1.0000
  N   N28       1.0  0.41254  0.26986  0.32544  1.0000
  C   C58       1.0  0.41384  0.23912  0.32279  1.0000
  H   H48       1.0  0.42171  0.22958  0.27943  1.0000
  C   C59       1.0  0.98741  0.25476  0.32435  1.0000
  C   C60       1.0  0.02060  0.25330  0.33257  1.0000
  N   N29       1.0  0.01273  0.27085  0.27295  1.0000
  C   C61       1.0  0.99674  0.27252  0.26503  1.0000
  C   C62       1.0  0.99054  0.29124  0.19034  1.0000
  O   O11       1.0  0.97972  0.27530  0.13396  1.0000
  H   H49       1.0  0.00017  0.29988  0.14869  1.0000
  H   H50       1.0  0.98450  0.31070  0.21775  1.0000
  H   H51       1.0  0.98554  0.25917  0.10332  1.0000
  C   C63       1.0  0.48742  0.00479  0.32455  1.0000
  C   C64       1.0  0.52060  0.00329  0.33280  1.0000
  N   N30       1.0  0.51274  0.02086  0.27321  1.0000
  C   C65       1.0  0.49675  0.02257  0.26532  1.0000
  C   C66       1.0  0.49056  0.04127  0.19056  1.0000
  O   O12       1.0  0.47975  0.02532  0.13415  1.0000
  H   H52       1.0  0.50020  0.04990  0.14893  1.0000
  H   H53       1.0  0.48452  0.06074  0.21789  1.0000
  H   H54       1.0  0.48558  0.50918  0.10359  1.0000
  C   C67       1.0  0.30149  0.06620  0.33718  1.0000
  C   C68       1.0  0.31519  0.08391  0.33586  1.0000
  C   C69       1.0  0.31419  0.11549  0.33650  1.0000
  C   C70       1.0  0.29915  0.12924  0.34142  1.0000
  C   C71       1.0  0.28532  0.11146  0.34584  1.0000
  C   C72       1.0  0.28663  0.08003  0.34236  1.0000
  H   H55       1.0  0.29826  0.15210  0.34086  1.0000
  H   H56       1.0  0.27666  0.06698  0.34339  1.0000
  H   H57       1.0  0.32599  0.07359  0.33218  1.0000
  C   C73       1.0  0.70627  0.44109  0.33651  1.0000
  C   C74       1.0  0.69255  0.42343  0.33540  1.0000
  C   C75       1.0  0.69352  0.39184  0.33641  1.0000
  C   C76       1.0  0.70855  0.37805  0.34163  1.0000
  C   C77       1.0  0.72239  0.39580  0.34576  1.0000
  C   C78       1.0  0.72111  0.42723  0.34187  1.0000
  H   H58       1.0  0.70942  0.35519  0.34138  1.0000
  H   H59       1.0  0.73109  0.44024  0.34282  1.0000
  H   H60       1.0  0.68176  0.43378  0.33165  1.0000
  C   C79       1.0  0.70605  0.06558  0.33949  1.0000
  C   C80       1.0  0.69255  0.08376  0.34352  1.0000
  C   C81       1.0  0.69375  0.11527  0.34764  1.0000
  C   C82       1.0  0.70888  0.12867  0.34422  1.0000
  C   C83       1.0  0.72257  0.11063  0.33597  1.0000
  C   C84       1.0  0.72098  0.07920  0.33415  1.0000
  H   H61       1.0  0.70993  0.15147  0.34816  1.0000
  H   H62       1.0  0.73087  0.06593  0.33245  1.0000
  H   H63       1.0  0.68165  0.07380  0.34285  1.0000
  C   C85       1.0  0.30188  0.44171  0.34042  1.0000
  C   C86       1.0  0.31540  0.42358  0.34448  1.0000
  C   C87       1.0  0.31423  0.39206  0.34833  1.0000
  C   C88       1.0  0.29911  0.37862  0.34455  1.0000
  C   C89       1.0  0.28540  0.39661  0.33635  1.0000
  C   C90       1.0  0.28696  0.42805  0.33489  1.0000
  H   H64       1.0  0.29808  0.35581  0.34816  1.0000
  H   H65       1.0  0.27706  0.44128  0.33302  1.0000
  H   H66       1.0  0.32629  0.43357  0.34391  1.0000
  C   C91       1.0  0.80180  0.31594  0.33278  1.0000
  C   C92       1.0  0.81538  0.33396  0.33537  1.0000
  C   C93       1.0  0.81419  0.36552  0.33413  1.0000
  C   C94       1.0  0.79906  0.37901  0.33266  1.0000
  C   C95       1.0  0.78533  0.36094  0.32923  1.0000
  C   C96       1.0  0.78686  0.32954  0.33099  1.0000
  H   H67       1.0  0.79806  0.40184  0.33034  1.0000
  H   H68       1.0  0.77695  0.31633  0.33145  1.0000
  H   H69       1.0  0.82626  0.32389  0.33567  1.0000
  C   C97       1.0  0.20594  0.19140  0.33288  1.0000
  C   C98       1.0  0.19235  0.17341  0.33551  1.0000
  C   C99       1.0  0.19352  0.14184  0.33421  1.0000
  C   C100      1.0  0.20864  0.12832  0.33253  1.0000
  C   C101      1.0  0.22238  0.14636  0.32912  1.0000
  C   C102      1.0  0.22087  0.17775  0.33101  1.0000
  H   H70       1.0  0.20963  0.10549  0.33020  1.0000
  H   H71       1.0  0.23079  0.19095  0.33147  1.0000
  H   H72       1.0  0.18147  0.18351  0.33593  1.0000
  C   C103      1.0  0.20569  0.31577  0.34561  1.0000
  C   C104      1.0  0.19226  0.33417  0.34660  1.0000
  C   C105      1.0  0.19362  0.36564  0.35162  1.0000
  C   C106      1.0  0.20882  0.37877  0.35283  1.0000
  C   C107      1.0  0.22246  0.36039  0.35224  1.0000
  C   C108      1.0  0.22073  0.32905  0.34670  1.0000
  H   H73       1.0  0.20996  0.40154  0.35768  1.0000
  H   H74       1.0  0.23055  0.31561  0.34531  1.0000
  H   H75       1.0  0.18133  0.32443  0.34284  1.0000
  C   C109      1.0  0.80224  0.19156  0.34581  1.0000
  C   C110      1.0  0.81568  0.17320  0.34688  1.0000
  C   C111      1.0  0.81434  0.14173  0.35213  1.0000
  C   C112      1.0  0.79914  0.12856  0.35352  1.0000
  C   C113      1.0  0.78550  0.14692  0.35288  1.0000
  C   C114      1.0  0.78721  0.17826  0.34712  1.0000
  H   H76       1.0  0.79802  0.10580  0.35850  1.0000
  H   H77       1.0  0.77738  0.19167  0.34562  1.0000
  H   H78       1.0  0.82661  0.18295  0.34298  1.0000
  C   C115      1.0  0.13096  0.10370  0.33651  1.0000
  C   C116      1.0  0.11976  0.12675  0.32892  1.0000
  C   C117      1.0  0.10322  0.12171  0.33087  1.0000
  C   C118      1.0  0.09833  0.09106  0.34005  1.0000
  C   C119      1.0  0.10923  0.06704  0.35378  1.0000
  C   C120      1.0  0.12554  0.07456  0.35320  1.0000
  H   H79       1.0  0.08654  0.08626  0.34147  1.0000
  H   H80       1.0  0.13392  0.05805  0.35746  1.0000
  H   H81       1.0  0.12416  0.14798  0.32675  1.0000
  C   C121      1.0  0.87671  0.40362  0.33671  1.0000
  C   C122      1.0  0.88787  0.38050  0.32936  1.0000
  C   C123      1.0  0.90442  0.38545  0.33153  1.0000
  C   C124      1.0  0.90936  0.41608  0.34033  1.0000
  C   C125      1.0  0.89849  0.44018  0.35401  1.0000
  C   C126      1.0  0.88217  0.43274  0.35335  1.0000
  H   H82       1.0  0.92115  0.42082  0.34197  1.0000
  H   H83       1.0  0.87382  0.44930  0.35749  1.0000
  H   H84       1.0  0.88343  0.35931  0.32699  1.0000
  C   C127      1.0  0.87687  0.10389  0.35021  1.0000
  C   C128      1.0  0.88823  0.12670  0.34598  1.0000
  C   C129      1.0  0.90474  0.12113  0.34553  1.0000
  C   C130      1.0  0.90939  0.09014  0.34758  1.0000
  C   C131      1.0  0.89825  0.06625  0.35900  1.0000
  C   C132      1.0  0.88207  0.07419  0.35334  1.0000
  H   H85       1.0  0.92114  0.08506  0.35072  1.0000
  H   H86       1.0  0.87361  0.05787  0.35106  1.0000
  H   H87       1.0  0.88397  0.14790  0.33820  1.0000
  C   C133      1.0  0.13111  0.40352  0.34939  1.0000
  C   C134      1.0  0.11978  0.38065  0.34490  1.0000
  C   C135      1.0  0.10326  0.38613  0.34462  1.0000
  C   C136      1.0  0.09857  0.41708  0.34695  1.0000
  C   C137      1.0  0.10967  0.44102  0.35840  1.0000
  C   C138      1.0  0.12586  0.43319  0.35279  1.0000
  H   H88       1.0  0.08681  0.42207  0.35009  1.0000
  H   H89       1.0  0.13430  0.44956  0.35076  1.0000
  H   H90       1.0  0.12408  0.35947  0.33700  1.0000
  C   C139      1.0  0.63094  0.35362  0.33554  1.0000
  C   C140      1.0  0.61971  0.37663  0.32845  1.0000
  C   C141      1.0  0.60317  0.37154  0.33052  1.0000
  C   C142      1.0  0.59830  0.34088  0.33964  1.0000
  C   C143      1.0  0.60924  0.31688  0.35313  1.0000
  C   C144      1.0  0.62554  0.32445  0.35210  1.0000
  H   H91       1.0  0.58652  0.33606  0.34139  1.0000
  H   H92       1.0  0.63393  0.30797  0.35620  1.0000
  H   H93       1.0  0.62409  0.39788  0.32700  1.0000
  C   C145      1.0  0.37674  0.15369  0.33558  1.0000
  C   C146      1.0  0.38794  0.13060  0.32864  1.0000
  C   C147      1.0  0.40448  0.13560  0.33092  1.0000
  C   C148      1.0  0.40939  0.16625  0.33984  1.0000
  C   C149      1.0  0.39849  0.19032  0.35318  1.0000
  C   C150      1.0  0.38218  0.18283  0.35213  1.0000
  H   H94       1.0  0.42118  0.17102  0.34160  1.0000
  H   H95       1.0  0.37381  0.19936  0.35615  1.0000
  H   H96       1.0  0.38352  0.10939  0.32693  1.0000
  C   C151      1.0  0.37678  0.35410  0.35057  1.0000
  C   C152      1.0  0.38816  0.37688  0.34607  1.0000
  C   C153      1.0  0.40467  0.37129  0.34569  1.0000
  C   C154      1.0  0.40930  0.34029  0.34800  1.0000
  C   C155      1.0  0.39816  0.31642  0.35936  1.0000
  C   C156      1.0  0.38198  0.32438  0.35379  1.0000
  H   H97       1.0  0.42104  0.33519  0.35082  1.0000
  H   H98       1.0  0.37350  0.30809  0.35168  1.0000
  H   H99       1.0  0.38391  0.39807  0.33789  1.0000
  C   C157      1.0  0.63122  0.15326  0.34987  1.0000
  C   C158      1.0  0.61986  0.13043  0.34516  1.0000
  C   C159      1.0  0.60335  0.13595  0.34494  1.0000
  C   C160      1.0  0.59868  0.16691  0.34734  1.0000
  C   C161      1.0  0.60979  0.19083  0.35874  1.0000
  C   C162      1.0  0.62598  0.18295  0.35322  1.0000
  H   H100      1.0  0.58693  0.17196  0.35029  1.0000
  H   H101      1.0  0.63443  0.19929  0.35126  1.0000
  H   H102      1.0  0.62414  0.10926  0.33702  1.0000
  C   C163      1.0  0.06273  0.22534  0.33706  1.0000
  C   C164      1.0  0.07039  0.25397  0.33452  1.0000
  C   C165      1.0  0.06255  0.28248  0.33197  1.0000
  C   C166      1.0  0.04585  0.28080  0.33211  1.0000
  C   C167      1.0  0.03742  0.25350  0.33413  1.0000
  C   C168      1.0  0.04604  0.22648  0.33591  1.0000
  H   H103      1.0  0.03936  0.29975  0.33685  1.0000
  H   H104      1.0  0.03976  0.20732  0.32879  1.0000
  H   H105      1.0  0.08244  0.25402  0.33486  1.0000
  C   C169      1.0  0.94509  0.28197  0.33661  1.0000
  C   C170      1.0  0.93753  0.25324  0.33377  1.0000
  C   C171      1.0  0.94546  0.22482  0.33054  1.0000
  C   C172      1.0  0.96217  0.22676  0.32821  1.0000
  C   C173      1.0  0.97052  0.25416  0.32717  1.0000
  C   C174      1.0  0.96177  0.28095  0.33388  1.0000
  H   H106      1.0  0.96875  0.20788  0.32999  1.0000
  H   H107      1.0  0.96795  0.30014  0.33420  1.0000
  H   H108      1.0  0.92549  0.25307  0.33525  1.0000
  C   C175      1.0  0.56272  0.47523  0.33711  1.0000
  C   C176      1.0  0.57040  0.00386  0.33458  1.0000
  C   C177      1.0  0.56258  0.03238  0.33210  1.0000
  C   C178      1.0  0.54587  0.03073  0.33218  1.0000
  C   C179      1.0  0.53743  0.50345  0.33430  1.0000
  C   C180      1.0  0.54604  0.47641  0.33606  1.0000
  H   H109      1.0  0.53939  0.04970  0.33712  1.0000
  H   H110      1.0  0.53975  0.45726  0.32899  1.0000
  H   H111      1.0  0.58245  0.00388  0.33492  1.0000
  C   C181      1.0  0.44511  0.03206  0.33652  1.0000
  C   C182      1.0  0.43753  0.50335  0.33369  1.0000
  C   C183      1.0  0.44545  0.47490  0.33056  1.0000
  C   C184      1.0  0.46216  0.47682  0.32839  1.0000
  C   C185      1.0  0.47053  0.00421  0.32735  1.0000
  C   C186      1.0  0.46178  0.03102  0.33394  1.0000
  H   H112      1.0  0.46874  0.45793  0.33016  1.0000
  H   H113      1.0  0.46797  0.05020  0.33431  1.0000
  H   H114      1.0  0.42549  0.50320  0.33511  1.0000
  N   N31       1.0  0.24384  0.12421  0.40490  1.0000
  C   C187      1.0  0.25931  0.11764  0.41647  1.0000
  H   H115      1.0  0.26301  0.10863  0.47601  1.0000
  N   N32       1.0  0.76384  0.38296  0.40533  1.0000
  C   C188      1.0  0.74837  0.38951  0.41687  1.0000
  H   H116      1.0  0.74465  0.39847  0.47644  1.0000
  C   C189      1.0  0.76998  0.13550  0.35564  1.0000
  C   C190      1.0  0.73803  0.12232  0.33666  1.0000
  N   N33       1.0  0.74381  0.13410  0.41403  1.0000
  C   C191      1.0  0.75921  0.14156  0.42665  1.0000
  C   C192      1.0  0.76388  0.15429  0.51495  1.0000
  O   O13       1.0  0.77592  0.13694  0.55793  1.0000
  H   H117      1.0  0.75370  0.15605  0.55990  1.0000
  H   H118      1.0  0.76840  0.17690  0.50516  1.0000
  H   H119      1.0  0.77146  0.11725  0.57349  1.0000
  C   C193      1.0  0.23798  0.37175  0.35488  1.0000
  C   C194      1.0  0.26996  0.38487  0.33652  1.0000
  N   N34       1.0  0.26410  0.37327  0.41395  1.0000
  C   C195      1.0  0.24869  0.36585  0.42632  1.0000
  C   C196      1.0  0.24395  0.35331  0.51476  1.0000
  O   O14       1.0  0.23189  0.37078  0.55715  1.0000
  H   H120      1.0  0.25410  0.35161  0.55997  1.0000
  H   H121      1.0  0.23941  0.33069  0.50529  1.0000
  H   H122      1.0  0.23636  0.39050  0.57243  1.0000
  C   C197      1.0  0.30310  0.47311  0.34087  1.0000
  C   C198      1.0  0.30254  0.03498  0.33422  1.0000
  N   N35       1.0  0.30981  0.02040  0.40253  1.0000
  C   C199      1.0  0.31055  0.49013  0.40955  1.0000
  C   C200      1.0  0.31789  0.47758  0.49207  1.0000
  O   O15       1.0  0.30730  0.45868  0.54121  1.0000
  H   H123      1.0  0.32205  0.49546  0.53647  1.0000
  H   H124      1.0  0.32821  0.46442  0.47362  1.0000
  H   H125      1.0  0.29859  0.47114  0.56414  1.0000
  C   C201      1.0  0.70480  0.03419  0.34001  1.0000
  C   C202      1.0  0.70525  0.47232  0.33336  1.0000
  N   N36       1.0  0.69799  0.48695  0.40163  1.0000
  C   C203      1.0  0.69729  0.01723  0.40859  1.0000
  C   C204      1.0  0.68999  0.02982  0.49116  1.0000
  O   O16       1.0  0.70062  0.04863  0.54031  1.0000
  H   H126      1.0  0.68580  0.01196  0.53555  1.0000
  H   H127      1.0  0.67970  0.04306  0.47277  1.0000
  H   H128      1.0  0.70931  0.03611  0.56317  1.0000
  C   C205      1.0  0.80362  0.22288  0.34306  1.0000
  C   C206      1.0  0.80298  0.28467  0.33200  1.0000
  N   N37       1.0  0.81053  0.27065  0.40045  1.0000
  C   C207      1.0  0.81133  0.24043  0.40948  1.0000
  C   C208      1.0  0.81902  0.22839  0.49163  1.0000
  O   O17       1.0  0.80861  0.20999  0.54367  1.0000
  H   H129      1.0  0.82346  0.24654  0.53410  1.0000
  H   H130      1.0  0.82919  0.21492  0.47232  1.0000
  H   H131      1.0  0.80005  0.22271  0.56706  1.0000
  C   C209      1.0  0.20429  0.28446  0.34306  1.0000
  C   C210      1.0  0.20479  0.22268  0.33201  1.0000
  N   N38       1.0  0.19729  0.23675  0.40052  1.0000
  C   C211      1.0  0.19653  0.26698  0.40949  1.0000
  C   C212      1.0  0.18892  0.27908  0.49175  1.0000
  O   O18       1.0  0.19939  0.29739  0.54365  1.0000
  H   H132      1.0  0.18445  0.26096  0.53429  1.0000
  H   H133      1.0  0.17877  0.29262  0.47259  1.0000
  H   H134      1.0  0.20793  0.28460  0.56692  1.0000
  N   N39       1.0  0.35085  0.15375  0.39954  1.0000
  C   C213      1.0  0.33524  0.14687  0.40271  1.0000
  H   H135      1.0  0.32908  0.15043  0.46075  1.0000
  N   N40       1.0  0.65683  0.35354  0.39956  1.0000
  C   C214      1.0  0.67244  0.36045  0.40283  1.0000
  H   H136      1.0  0.67864  0.35673  0.46066  1.0000
  C   C215      1.0  0.64753  0.14655  0.35698  1.0000
  C   C216      1.0  0.67949  0.13135  0.35721  1.0000
  N   N41       1.0  0.66957  0.12272  0.42406  1.0000
  C   C217      1.0  0.65406  0.12996  0.42941  1.0000
  C   C218      1.0  0.64520  0.11923  0.50932  1.0000
  O   O19       1.0  0.63764  0.14317  0.55663  1.0000
  H   H137      1.0  0.65297  0.10722  0.55574  1.0000
  H   H138      1.0  0.63616  0.10340  0.48801  1.0000
  H   H139      1.0  0.64588  0.15615  0.58236  1.0000
  C   C219      1.0  0.36047  0.36086  0.35750  1.0000
  C   C220      1.0  0.32850  0.37599  0.35763  1.0000
  N   N42       1.0  0.33841  0.38465  0.42453  1.0000
  C   C221      1.0  0.35392  0.37744  0.42992  1.0000
  C   C222      1.0  0.36276  0.38816  0.50987  1.0000
  O   O20       1.0  0.37032  0.36422  0.55722  1.0000
  H   H140      1.0  0.35499  0.40017  0.55626  1.0000
  H   H141      1.0  0.37181  0.40400  0.48863  1.0000
  H   H142      1.0  0.36207  0.35124  0.58289  1.0000
  N   N43       1.0  0.85082  0.40314  0.40079  1.0000
  C   C223      1.0  0.83520  0.39627  0.40337  1.0000
  H   H143      1.0  0.82903  0.39929  0.46164  1.0000
  N   N44       1.0  0.15685  0.10420  0.40075  1.0000
  C   C224      1.0  0.17245  0.11111  0.40343  1.0000
  H   H144      1.0  0.17865  0.10795  0.46158  1.0000
  C   C225      1.0  0.14741  0.39687  0.35716  1.0000
  C   C226      1.0  0.17940  0.38191  0.35951  1.0000
  N   N45       1.0  0.16941  0.37361  0.42637  1.0000
  C   C227      1.0  0.15388  0.38075  0.43072  1.0000
  C   C228      1.0  0.14494  0.37033  0.51068  1.0000
  O   O21       1.0  0.13733  0.39444  0.55690  1.0000
  H   H145      1.0  0.15266  0.35850  0.55779  1.0000
  H   H146      1.0  0.13593  0.35441  0.48961  1.0000
  H   H147      1.0  0.14554  0.40751  0.58247  1.0000
  C   C229      1.0  0.86057  0.11060  0.35775  1.0000
  C   C230      1.0  0.82856  0.12546  0.35993  1.0000
  N   N46       1.0  0.83854  0.13379  0.42685  1.0000
  C   C231      1.0  0.85407  0.12668  0.43129  1.0000
  C   C232      1.0  0.86299  0.13709  0.51137  1.0000
  O   O22       1.0  0.87059  0.11296  0.55757  1.0000
  H   H148      1.0  0.85525  0.14889  0.55845  1.0000
  H   H149      1.0  0.87200  0.15302  0.49043  1.0000
  H   H150      1.0  0.86237  0.09987  0.58302  1.0000
  C   C233      1.0  0.07134  0.19747  0.33718  1.0000
  C   C234      1.0  0.09271  0.14693  0.32773  1.0000
  N   N47       1.0  0.07742  0.14475  0.35476  1.0000
  C   C235      1.0  0.06657  0.16751  0.36056  1.0000
  C   C236      1.0  0.05139  0.15823  0.40222  1.0000
  O   O23       1.0  0.04702  0.17656  0.47726  1.0000
  H   H151      1.0  0.05185  0.13495  0.42531  1.0000
  H   H152      1.0  0.04210  0.15892  0.35173  1.0000
  H   H153      1.0  0.05491  0.17373  0.52511  1.0000
  C   C237      1.0  0.93642  0.30979  0.33803  1.0000
  C   C238      1.0  0.91490  0.36017  0.32868  1.0000
  N   N48       1.0  0.93025  0.36252  0.35439  1.0000
  C   C239      1.0  0.94117  0.33989  0.36002  1.0000
  C   C240      1.0  0.95640  0.34965  0.40012  1.0000
  O   O24       1.0  0.96096  0.33186  0.47596  1.0000
  H   H154      1.0  0.95590  0.37307  0.42196  1.0000
  H   H155      1.0  0.96558  0.34880  0.34904  1.0000
  H   H156      1.0  0.95314  0.33491  0.52411  1.0000
  N   N49       1.0  0.92155  0.19875  0.35670  1.0000
  C   C241      1.0  0.91094  0.17621  0.36338  1.0000
  H   H157      1.0  0.90006  0.18189  0.38682  1.0000
  N   N50       1.0  0.08654  0.30846  0.35661  1.0000
  C   C242      1.0  0.09714  0.33102  0.36270  1.0000
  H   H158      1.0  0.10806  0.32538  0.38560  1.0000
  C   C243      1.0  0.57132  0.44735  0.33717  1.0000
  C   C244      1.0  0.59266  0.39678  0.32759  1.0000
  N   N51       1.0  0.57738  0.39461  0.35476  1.0000
  C   C245      1.0  0.56654  0.41740  0.36063  1.0000
  C   C246      1.0  0.55136  0.40816  0.40240  1.0000
  O   O25       1.0  0.54702  0.42650  0.47747  1.0000
  H   H159      1.0  0.55182  0.38487  0.42550  1.0000
  H   H160      1.0  0.54206  0.40886  0.35199  1.0000
  H   H161      1.0  0.55493  0.42366  0.52525  1.0000
  C   C247      1.0  0.43645  0.05990  0.33785  1.0000
  C   C248      1.0  0.41496  0.11032  0.32821  1.0000
  N   N52       1.0  0.43029  0.11264  0.35426  1.0000
  C   C249      1.0  0.44120  0.08998  0.36003  1.0000
  C   C250      1.0  0.45641  0.09969  0.40046  1.0000
  O   O26       1.0  0.46092  0.08184  0.47627  1.0000
  H   H162      1.0  0.45591  0.12310  0.42243  1.0000
  H   H163      1.0  0.46562  0.09885  0.34955  1.0000
  H   H164      1.0  0.45308  0.08487  0.52430  1.0000
  N   N53       1.0  0.42151  0.44889  0.35650  1.0000
  C   C251      1.0  0.41088  0.42638  0.36315  1.0000
  H   H165      1.0  0.40000  0.43210  0.38639  1.0000
  N   N54       1.0  0.58658  0.05831  0.35676  1.0000
  C   C252      1.0  0.59720  0.08085  0.36288  1.0000
  H   H166      1.0  0.60812  0.07518  0.38576  1.0000
  C   C253      1.0  0.10625  0.47205  0.37402  1.0000
  C   C254      1.0  0.10561  0.03598  0.36520  1.0000
  N   N55       1.0  0.11530  0.02021  0.42028  1.0000
  C   C255      1.0  0.11587  0.49016  0.43119  1.0000
  C   C256      1.0  0.12599  0.47969  0.50692  1.0000
  O   O27       1.0  0.12000  0.45361  0.55139  1.0000
  H   H167      1.0  0.12730  0.49741  0.55721  1.0000
  H   H168      1.0  0.13782  0.47480  0.48234  1.0000
  H   H169      1.0  0.10990  0.45889  0.58011  1.0000
  C   C257      1.0  0.90160  0.03517  0.37426  1.0000
  C   C258      1.0  0.90215  0.47123  0.36543  1.0000
  N   N56       1.0  0.89247  0.48705  0.42039  1.0000
  C   C259      1.0  0.89192  0.01710  0.43127  1.0000
  C   C260      1.0  0.88183  0.02760  0.50709  1.0000
  O   O28       1.0  0.88789  0.05356  0.55183  1.0000
  H   H170      1.0  0.88045  0.00983  0.55721  1.0000
  H   H171      1.0  0.87001  0.03263  0.48253  1.0000
  H   H172      1.0  0.89797  0.04814  0.58052  1.0000
  C   C261      1.0  0.60639  0.22189  0.37411  1.0000
  C   C262      1.0  0.60566  0.28581  0.36486  1.0000
  N   N57       1.0  0.61543  0.27012  0.41967  1.0000
  C   C263      1.0  0.61604  0.24008  0.43086  1.0000
  C   C264      1.0  0.62628  0.22978  0.50627  1.0000
  O   O29       1.0  0.62066  0.20327  0.55004  1.0000
  H   H173      1.0  0.62735  0.24738  0.55713  1.0000
  H   H174      1.0  0.63817  0.22558  0.48143  1.0000
  H   H175      1.0  0.61050  0.20794  0.57887  1.0000
  C   C265      1.0  0.40151  0.28532  0.37450  1.0000
  C   C266      1.0  0.40212  0.22137  0.36498  1.0000
  N   N58       1.0  0.39236  0.23712  0.41971  1.0000
  C   C267      1.0  0.39179  0.26715  0.43096  1.0000
  C   C268      1.0  0.38159  0.27747  0.50651  1.0000
  O   O30       1.0  0.38723  0.30393  0.55037  1.0000
  H   H176      1.0  0.38051  0.25984  0.55731  1.0000
  H   H177      1.0  0.36969  0.28172  0.48177  1.0000
  H   H178      1.0  0.39740  0.29922  0.57911  1.0000
  N   N59       1.0  0.99532  0.23674  0.38290  1.0000
  C   C269      1.0  0.01128  0.23503  0.38882  1.0000
  H   H179      1.0  0.01625  0.22120  0.43559  1.0000
  N   N60       1.0  0.49532  0.48674  0.38307  1.0000
  C   C270      1.0  0.51127  0.48503  0.38903  1.0000
  H   H180      1.0  0.51624  0.47115  0.43571  1.0000
  C   C271      1.0  0.23785  0.63480  0.32643  1.0000
  C   C272      1.0  0.26996  0.62338  0.34568  1.0000
  N   N61       1.0  0.26394  0.63355  0.26695  1.0000
  C   C273      1.0  0.24845  0.64023  0.25413  1.0000
  C   C274      1.0  0.24358  0.65165  0.16457  1.0000
  O   O31       1.0  0.23155  0.63353  0.12440  1.0000
  H   H181      1.0  0.25367  0.65299  0.11889  1.0000
  H   H182      1.0  0.23895  0.67430  0.17180  1.0000
  H   H183      1.0  0.23609  0.61373  0.11098  1.0000
  C   C275      1.0  0.76985  0.87245  0.32680  1.0000
  C   C276      1.0  0.73774  0.88383  0.34596  1.0000
  N   N62       1.0  0.74378  0.87380  0.26709  1.0000
  C   C277      1.0  0.75927  0.86714  0.25431  1.0000
  C   C278      1.0  0.76417  0.85588  0.16461  1.0000
  O   O32       1.0  0.77619  0.87410  0.12478  1.0000
  H   H184      1.0  0.75408  0.85459  0.11885  1.0000
  H   H185      1.0  0.76881  0.83323  0.17154  1.0000
  H   H186      1.0  0.77163  0.89392  0.11163  1.0000
  N   N63       1.0  0.76424  0.62346  0.27847  1.0000
  C   C279      1.0  0.74887  0.61610  0.26710  1.0000
  H   H187      1.0  0.74536  0.60624  0.20841  1.0000
  N   N64       1.0  0.24378  0.88372  0.27777  1.0000
  C   C280      1.0  0.25917  0.89105  0.26671  1.0000
  H   H188      1.0  0.26272  0.90086  0.20804  1.0000
  N   N65       1.0  0.29558  0.98784  0.27341  1.0000
  C   C281      1.0  0.29500  0.51798  0.26723  1.0000
  H   H189      1.0  0.28905  0.52778  0.21521  1.0000
  N   N66       1.0  0.71231  0.51941  0.27257  1.0000
  C   C282      1.0  0.71283  0.98927  0.26642  1.0000
  H   H190      1.0  0.71877  0.97943  0.21444  1.0000
  N   N67       1.0  0.79587  0.73700  0.27531  1.0000
  C   C283      1.0  0.79530  0.76706  0.26690  1.0000
  H   H191      1.0  0.78918  0.77637  0.21473  1.0000
  N   N68       1.0  0.21198  0.77029  0.27520  1.0000
  C   C284      1.0  0.21249  0.74023  0.26681  1.0000
  H   H192      1.0  0.21857  0.73086  0.21458  1.0000
  C   C285      1.0  0.36035  0.64750  0.32808  1.0000
  C   C286      1.0  0.32847  0.63158  0.32943  1.0000
  N   N69       1.0  0.33799  0.62549  0.25831  1.0000
  C   C287      1.0  0.35342  0.63330  0.25225  1.0000
  C   C288      1.0  0.36180  0.62594  0.16738  1.0000
  O   O33       1.0  0.36930  0.65158  0.12845  1.0000
  H   H193      1.0  0.35372  0.61618  0.11807  1.0000
  H   H194      1.0  0.37083  0.60915  0.18073  1.0000
  H   H195      1.0  0.36104  0.66574  0.10947  1.0000
  C   C289      1.0  0.64733  0.85990  0.32821  1.0000
  C   C290      1.0  0.67923  0.87575  0.32964  1.0000
  N   N70       1.0  0.66970  0.88197  0.25865  1.0000
  C   C291      1.0  0.65425  0.87420  0.25256  1.0000
  C   C292      1.0  0.64588  0.88169  0.16776  1.0000
  O   O34       1.0  0.63837  0.85611  0.12852  1.0000
  H   H196      1.0  0.65397  0.89150  0.11857  1.0000
  H   H197      1.0  0.63686  0.89848  0.18129  1.0000
  H   H198      1.0  0.64662  0.84196  0.10938  1.0000
  N   N71       1.0  0.65740  0.65549  0.28989  1.0000
  C   C293      1.0  0.67306  0.64897  0.28770  1.0000
  H   H199      1.0  0.67954  0.65454  0.23226  1.0000
  N   N72       1.0  0.35061  0.85190  0.29037  1.0000
  C   C294      1.0  0.33495  0.85845  0.28806  1.0000
  H   H200      1.0  0.32845  0.85278  0.23276  1.0000
  C   C295      1.0  0.86032  0.89753  0.32883  1.0000
  C   C296      1.0  0.82842  0.88182  0.32864  1.0000
  N   N73       1.0  0.83794  0.87624  0.25718  1.0000
  C   C297      1.0  0.85339  0.88399  0.25192  1.0000
  C   C298      1.0  0.86182  0.87716  0.16681  1.0000
  O   O35       1.0  0.86935  0.90303  0.12948  1.0000
  H   H201      1.0  0.85376  0.86771  0.11681  1.0000
  H   H202      1.0  0.87084  0.86029  0.17944  1.0000
  H   H203      1.0  0.86110  0.91731  0.11113  1.0000
  C   C299      1.0  0.14735  0.60989  0.32884  1.0000
  C   C300      1.0  0.17928  0.62555  0.32880  1.0000
  N   N74       1.0  0.16974  0.63123  0.25747  1.0000
  C   C301      1.0  0.15428  0.62351  0.25209  1.0000
  C   C302      1.0  0.14587  0.63045  0.16700  1.0000
  O   O36       1.0  0.13834  0.60463  0.12939  1.0000
  H   H204      1.0  0.15394  0.63994  0.11713  1.0000
  H   H205      1.0  0.13686  0.64733  0.17972  1.0000
  H   H206      1.0  0.14658  0.59035  0.11095  1.0000
  N   N75       1.0  0.15734  0.90539  0.28982  1.0000
  C   C303      1.0  0.17300  0.89890  0.28853  1.0000
  H   H207      1.0  0.17954  0.90410  0.23298  1.0000
  N   N76       1.0  0.85067  0.60207  0.29033  1.0000
  C   C304      1.0  0.83500  0.60857  0.28888  1.0000
  H   H208      1.0  0.82846  0.60330  0.23340  1.0000
  N   N77       1.0  0.08662  0.69928  0.30964  1.0000
  C   C305      1.0  0.09713  0.67653  0.30366  1.0000
  H   H209      1.0  0.10796  0.68177  0.27867  1.0000
  N   N78       1.0  0.92106  0.80781  0.31195  1.0000
  C   C306      1.0  0.91048  0.83045  0.30615  1.0000
  H   H210      1.0  0.89959  0.82499  0.28254  1.0000
  C   C307      1.0  0.93696  0.69671  0.33192  1.0000
  C   C308      1.0  0.91536  0.64626  0.34375  1.0000
  N   N79       1.0  0.93083  0.64365  0.32023  1.0000
  C   C309      1.0  0.94173  0.66636  0.31319  1.0000
  C   C310      1.0  0.95721  0.65628  0.27722  1.0000
  O   O37       1.0  0.96180  0.67233  0.19803  1.0000
  H   H211      1.0  0.95706  0.63236  0.26078  1.0000
  H   H212      1.0  0.96618  0.65888  0.32901  1.0000
  H   H213      1.0  0.95421  0.66771  0.14990  1.0000
  C   C311      1.0  0.07110  0.81051  0.33251  1.0000
  C   C312      1.0  0.09268  0.86096  0.34304  1.0000
  N   N80       1.0  0.07720  0.86353  0.31985  1.0000
  C   C313      1.0  0.06629  0.84081  0.31344  1.0000
  C   C314      1.0  0.05082  0.85074  0.27691  1.0000
  O   O38       1.0  0.04611  0.83407  0.19909  1.0000
  H   H214      1.0  0.05104  0.87450  0.25865  1.0000
  H   H215      1.0  0.04186  0.84868  0.32899  1.0000
  H   H216      1.0  0.05369  0.83819  0.15046  1.0000
  N   N81       1.0  0.58658  0.94913  0.30940  1.0000
  C   C315      1.0  0.59708  0.92635  0.30332  1.0000
  H   H217      1.0  0.60789  0.93158  0.27808  1.0000
  N   N82       1.0  0.42111  0.55795  0.31143  1.0000
  C   C316      1.0  0.41055  0.58061  0.30547  1.0000
  H   H218      1.0  0.39967  0.57519  0.28153  1.0000
  C   C317      1.0  0.43694  0.94681  0.33198  1.0000
  C   C318      1.0  0.41530  0.89640  0.34380  1.0000
  N   N83       1.0  0.43077  0.89375  0.32050  1.0000
  C   C319      1.0  0.44170  0.91644  0.31348  1.0000
  C   C320      1.0  0.45718  0.90631  0.27780  1.0000
  O   O39       1.0  0.46181  0.92228  0.19854  1.0000
  H   H219      1.0  0.45703  0.88237  0.26155  1.0000
  H   H220      1.0  0.46613  0.90893  0.32968  1.0000
  H   H221      1.0  0.45423  0.91762  0.15034  1.0000
  C   C321      1.0  0.57114  0.56040  0.33268  1.0000
  C   C322      1.0  0.59275  0.61080  0.34331  1.0000
  N   N84       1.0  0.57727  0.61341  0.32014  1.0000
  C   C323      1.0  0.56634  0.59071  0.31368  1.0000
  C   C324      1.0  0.55088  0.60067  0.27721  1.0000
  O   O40       1.0  0.54616  0.58404  0.19936  1.0000
  H   H222      1.0  0.55111  0.62445  0.25900  1.0000
  H   H223      1.0  0.54193  0.59863  0.32929  1.0000
  H   H224      1.0  0.55374  0.58816  0.15072  1.0000
  N   N85       1.0  0.09528  0.98755  0.32466  1.0000
  C   C325      1.0  0.09393  0.51828  0.32249  1.0000
  H   H225      1.0  0.08615  0.52779  0.27854  1.0000
  N   N86       1.0  0.91258  0.51964  0.32510  1.0000
  C   C326      1.0  0.91386  0.98889  0.32276  1.0000
  H   H226      1.0  0.92168  0.97928  0.27928  1.0000
  N   N87       1.0  0.59534  0.73730  0.32506  1.0000
  C   C327      1.0  0.59395  0.76803  0.32268  1.0000
  H   H227      1.0  0.58611  0.77747  0.27897  1.0000
  N   N88       1.0  0.41254  0.76986  0.32544  1.0000
  C   C328      1.0  0.41384  0.73912  0.32279  1.0000
  H   H228      1.0  0.42171  0.72958  0.27943  1.0000
  C   C329      1.0  0.98741  0.75476  0.32435  1.0000
  C   C330      1.0  0.02060  0.75330  0.33257  1.0000
  N   N89       1.0  0.01273  0.77085  0.27295  1.0000
  C   C331      1.0  0.99674  0.77252  0.26503  1.0000
  C   C332      1.0  0.99054  0.79124  0.19034  1.0000
  O   O41       1.0  0.97972  0.77530  0.13396  1.0000
  H   H229      1.0  0.00017  0.79988  0.14869  1.0000
  H   H230      1.0  0.98450  0.81070  0.21775  1.0000
  H   H231      1.0  0.98554  0.75917  0.10332  1.0000
  C   C333      1.0  0.48742  0.50479  0.32455  1.0000
  C   C334      1.0  0.52060  0.50329  0.33280  1.0000
  N   N90       1.0  0.51274  0.52086  0.27321  1.0000
  C   C335      1.0  0.49675  0.52257  0.26532  1.0000
  C   C336      1.0  0.49056  0.54127  0.19056  1.0000
  O   O42       1.0  0.47975  0.52532  0.13415  1.0000
  H   H232      1.0  0.50020  0.54990  0.14893  1.0000
  H   H233      1.0  0.48452  0.56074  0.21789  1.0000
  H   H234      1.0  0.48558  0.00918  0.10359  1.0000
  C   C337      1.0  0.30149  0.56620  0.33718  1.0000
  C   C338      1.0  0.31519  0.58391  0.33586  1.0000
  C   C339      1.0  0.31419  0.61549  0.33650  1.0000
  C   C340      1.0  0.29915  0.62924  0.34142  1.0000
  C   C341      1.0  0.28532  0.61146  0.34584  1.0000
  C   C342      1.0  0.28663  0.58003  0.34236  1.0000
  H   H235      1.0  0.29826  0.65211  0.34086  1.0000
  H   H236      1.0  0.27666  0.56698  0.34339  1.0000
  H   H237      1.0  0.32599  0.57359  0.33218  1.0000
  C   C343      1.0  0.70627  0.94109  0.33651  1.0000
  C   C344      1.0  0.69255  0.92343  0.33540  1.0000
  C   C345      1.0  0.69352  0.89184  0.33641  1.0000
  C   C346      1.0  0.70855  0.87805  0.34163  1.0000
  C   C347      1.0  0.72239  0.89580  0.34576  1.0000
  C   C348      1.0  0.72111  0.92723  0.34187  1.0000
  H   H238      1.0  0.70942  0.85519  0.34138  1.0000
  H   H239      1.0  0.73109  0.94024  0.34282  1.0000
  H   H240      1.0  0.68176  0.93378  0.33165  1.0000
  C   C349      1.0  0.70605  0.56558  0.33949  1.0000
  C   C350      1.0  0.69255  0.58376  0.34352  1.0000
  C   C351      1.0  0.69375  0.61527  0.34764  1.0000
  C   C352      1.0  0.70888  0.62867  0.34422  1.0000
  C   C353      1.0  0.72257  0.61063  0.33597  1.0000
  C   C354      1.0  0.72098  0.57920  0.33415  1.0000
  H   H241      1.0  0.70993  0.65147  0.34816  1.0000
  H   H242      1.0  0.73087  0.56593  0.33245  1.0000
  H   H243      1.0  0.68165  0.57380  0.34285  1.0000
  C   C355      1.0  0.30188  0.94171  0.34042  1.0000
  C   C356      1.0  0.31540  0.92358  0.34448  1.0000
  C   C357      1.0  0.31423  0.89206  0.34833  1.0000
  C   C358      1.0  0.29911  0.87862  0.34455  1.0000
  C   C359      1.0  0.28540  0.89662  0.33635  1.0000
  C   C360      1.0  0.28696  0.92805  0.33489  1.0000
  H   H244      1.0  0.29808  0.85581  0.34816  1.0000
  H   H245      1.0  0.27706  0.94128  0.33302  1.0000
  H   H246      1.0  0.32629  0.93357  0.34391  1.0000
  C   C361      1.0  0.80180  0.81594  0.33278  1.0000
  C   C362      1.0  0.81538  0.83396  0.33537  1.0000
  C   C363      1.0  0.81419  0.86552  0.33413  1.0000
  C   C364      1.0  0.79906  0.87901  0.33266  1.0000
  C   C365      1.0  0.78533  0.86094  0.32923  1.0000
  C   C366      1.0  0.78686  0.82954  0.33099  1.0000
  H   H247      1.0  0.79806  0.90184  0.33034  1.0000
  H   H248      1.0  0.77695  0.81633  0.33145  1.0000
  H   H249      1.0  0.82626  0.82390  0.33567  1.0000
  C   C367      1.0  0.20594  0.69139  0.33288  1.0000
  C   C368      1.0  0.19235  0.67341  0.33551  1.0000
  C   C369      1.0  0.19352  0.64184  0.33421  1.0000
  C   C370      1.0  0.20864  0.62832  0.33253  1.0000
  C   C371      1.0  0.22238  0.64636  0.32912  1.0000
  C   C372      1.0  0.22087  0.67775  0.33101  1.0000
  H   H250      1.0  0.20963  0.60549  0.33020  1.0000
  H   H251      1.0  0.23079  0.69095  0.33147  1.0000
  H   H252      1.0  0.18147  0.68350  0.33593  1.0000
  C   C373      1.0  0.20569  0.81577  0.34561  1.0000
  C   C374      1.0  0.19226  0.83417  0.34660  1.0000
  C   C375      1.0  0.19362  0.86564  0.35162  1.0000
  C   C376      1.0  0.20882  0.87877  0.35283  1.0000
  C   C377      1.0  0.22246  0.86039  0.35224  1.0000
  C   C378      1.0  0.22073  0.82905  0.34670  1.0000
  H   H253      1.0  0.20996  0.90154  0.35768  1.0000
  H   H254      1.0  0.23055  0.81561  0.34531  1.0000
  H   H255      1.0  0.18133  0.82442  0.34284  1.0000
  C   C379      1.0  0.80224  0.69156  0.34581  1.0000
  C   C380      1.0  0.81568  0.67320  0.34688  1.0000
  C   C381      1.0  0.81434  0.64172  0.35213  1.0000
  C   C382      1.0  0.79914  0.62856  0.35352  1.0000
  C   C383      1.0  0.78550  0.64692  0.35288  1.0000
  C   C384      1.0  0.78721  0.67826  0.34712  1.0000
  H   H256      1.0  0.79802  0.60580  0.35850  1.0000
  H   H257      1.0  0.77738  0.69167  0.34562  1.0000
  H   H258      1.0  0.82661  0.68296  0.34298  1.0000
  C   C385      1.0  0.13096  0.60370  0.33651  1.0000
  C   C386      1.0  0.11976  0.62675  0.32892  1.0000
  C   C387      1.0  0.10322  0.62170  0.33087  1.0000
  C   C388      1.0  0.09833  0.59106  0.34005  1.0000
  C   C389      1.0  0.10923  0.56704  0.35378  1.0000
  C   C390      1.0  0.12554  0.57456  0.35320  1.0000
  H   H259      1.0  0.08654  0.58626  0.34147  1.0000
  H   H260      1.0  0.13392  0.55805  0.35746  1.0000
  H   H261      1.0  0.12416  0.64797  0.32675  1.0000
  C   C391      1.0  0.87671  0.90362  0.33671  1.0000
  C   C392      1.0  0.88787  0.88050  0.32936  1.0000
  C   C393      1.0  0.90442  0.88545  0.33153  1.0000
  C   C394      1.0  0.90936  0.91608  0.34033  1.0000
  C   C395      1.0  0.89849  0.94018  0.35401  1.0000
  C   C396      1.0  0.88217  0.93274  0.35335  1.0000
  H   H262      1.0  0.92115  0.92082  0.34197  1.0000
  H   H263      1.0  0.87382  0.94930  0.35749  1.0000
  H   H264      1.0  0.88343  0.85931  0.32699  1.0000
  C   C397      1.0  0.87687  0.60389  0.35021  1.0000
  C   C398      1.0  0.88823  0.62670  0.34598  1.0000
  C   C399      1.0  0.90474  0.62113  0.34553  1.0000
  C   C400      1.0  0.90939  0.59014  0.34758  1.0000
  C   C401      1.0  0.89825  0.56625  0.35900  1.0000
  C   C402      1.0  0.88207  0.57419  0.35334  1.0000
  H   H265      1.0  0.92114  0.58506  0.35072  1.0000
  H   H266      1.0  0.87361  0.55787  0.35106  1.0000
  H   H267      1.0  0.88397  0.64790  0.33820  1.0000
  C   C403      1.0  0.13111  0.90351  0.34939  1.0000
  C   C404      1.0  0.11978  0.88065  0.34490  1.0000
  C   C405      1.0  0.10326  0.88613  0.34462  1.0000
  C   C406      1.0  0.09857  0.91708  0.34695  1.0000
  C   C407      1.0  0.10967  0.94102  0.35840  1.0000
  C   C408      1.0  0.12586  0.93319  0.35279  1.0000
  H   H268      1.0  0.08681  0.92207  0.35009  1.0000
  H   H269      1.0  0.13430  0.94956  0.35076  1.0000
  H   H270      1.0  0.12408  0.85947  0.33700  1.0000
  C   C409      1.0  0.63094  0.85361  0.33554  1.0000
  C   C410      1.0  0.61971  0.87663  0.32845  1.0000
  C   C411      1.0  0.60317  0.87154  0.33052  1.0000
  C   C412      1.0  0.59830  0.84088  0.33964  1.0000
  C   C413      1.0  0.60924  0.81688  0.35313  1.0000
  C   C414      1.0  0.62554  0.82445  0.35210  1.0000
  H   H271      1.0  0.58652  0.83606  0.34139  1.0000
  H   H272      1.0  0.63393  0.80797  0.35620  1.0000
  H   H273      1.0  0.62409  0.89789  0.32700  1.0000
  C   C415      1.0  0.37674  0.65369  0.33558  1.0000
  C   C416      1.0  0.38794  0.63060  0.32864  1.0000
  C   C417      1.0  0.40448  0.63560  0.33092  1.0000
  C   C418      1.0  0.40939  0.66625  0.33984  1.0000
  C   C419      1.0  0.39849  0.69032  0.35318  1.0000
  C   C420      1.0  0.38218  0.68283  0.35213  1.0000
  H   H274      1.0  0.42118  0.67102  0.34160  1.0000
  H   H275      1.0  0.37381  0.69936  0.35615  1.0000
  H   H276      1.0  0.38352  0.60939  0.32693  1.0000
  C   C421      1.0  0.37678  0.85410  0.35057  1.0000
  C   C422      1.0  0.38816  0.87688  0.34607  1.0000
  C   C423      1.0  0.40467  0.87129  0.34569  1.0000
  C   C424      1.0  0.40930  0.84029  0.34800  1.0000
  C   C425      1.0  0.39816  0.81642  0.35936  1.0000
  C   C426      1.0  0.38198  0.82438  0.35379  1.0000
  H   H277      1.0  0.42104  0.83519  0.35082  1.0000
  H   H278      1.0  0.37350  0.80809  0.35168  1.0000
  H   H279      1.0  0.38391  0.89807  0.33789  1.0000
  C   C427      1.0  0.63122  0.65326  0.34987  1.0000
  C   C428      1.0  0.61986  0.63043  0.34516  1.0000
  C   C429      1.0  0.60335  0.63595  0.34494  1.0000
  C   C430      1.0  0.59868  0.66691  0.34734  1.0000
  C   C431      1.0  0.60979  0.69083  0.35874  1.0000
  C   C432      1.0  0.62598  0.68295  0.35322  1.0000
  H   H280      1.0  0.58693  0.67196  0.35029  1.0000
  H   H281      1.0  0.63443  0.69929  0.35126  1.0000
  H   H282      1.0  0.62414  0.60925  0.33702  1.0000
  C   C433      1.0  0.06273  0.72534  0.33706  1.0000
  C   C434      1.0  0.07039  0.75397  0.33452  1.0000
  C   C435      1.0  0.06255  0.78248  0.33197  1.0000
  C   C436      1.0  0.04585  0.78080  0.33211  1.0000
  C   C437      1.0  0.03742  0.75350  0.33413  1.0000
  C   C438      1.0  0.04604  0.72647  0.33591  1.0000
  H   H283      1.0  0.03936  0.79975  0.33685  1.0000
  H   H284      1.0  0.03976  0.70732  0.32879  1.0000
  H   H285      1.0  0.08244  0.75402  0.33486  1.0000
  C   C439      1.0  0.94509  0.78197  0.33661  1.0000
  C   C440      1.0  0.93753  0.75324  0.33377  1.0000
  C   C441      1.0  0.94546  0.72482  0.33054  1.0000
  C   C442      1.0  0.96217  0.72676  0.32821  1.0000
  C   C443      1.0  0.97052  0.75416  0.32717  1.0000
  C   C444      1.0  0.96177  0.78095  0.33388  1.0000
  H   H286      1.0  0.96875  0.70788  0.32999  1.0000
  H   H287      1.0  0.96795  0.80014  0.33420  1.0000
  H   H288      1.0  0.92549  0.75307  0.33525  1.0000
  C   C445      1.0  0.56272  0.97523  0.33711  1.0000
  C   C446      1.0  0.57040  0.50386  0.33458  1.0000
  C   C447      1.0  0.56258  0.53238  0.33210  1.0000
  C   C448      1.0  0.54587  0.53073  0.33218  1.0000
  C   C449      1.0  0.53743  0.00346  0.33430  1.0000
  C   C450      1.0  0.54604  0.97641  0.33606  1.0000
  H   H289      1.0  0.53939  0.54970  0.33712  1.0000
  H   H290      1.0  0.53975  0.95726  0.32899  1.0000
  H   H291      1.0  0.58245  0.50388  0.33492  1.0000
  C   C451      1.0  0.44511  0.53206  0.33652  1.0000
  C   C452      1.0  0.43753  0.00335  0.33369  1.0000
  C   C453      1.0  0.44545  0.97490  0.33056  1.0000
  C   C454      1.0  0.46216  0.97682  0.32839  1.0000
  C   C455      1.0  0.47053  0.50421  0.32735  1.0000
  C   C456      1.0  0.46178  0.53101  0.33394  1.0000
  H   H292      1.0  0.46874  0.95793  0.33016  1.0000
  H   H293      1.0  0.46797  0.55020  0.33431  1.0000
  H   H294      1.0  0.42549  0.00320  0.33511  1.0000
  N   N91       1.0  0.24384  0.62421  0.40490  1.0000
  C   C457      1.0  0.25931  0.61764  0.41647  1.0000
  H   H295      1.0  0.26301  0.60863  0.47601  1.0000
  N   N92       1.0  0.76384  0.88296  0.40533  1.0000
  C   C458      1.0  0.74837  0.88951  0.41687  1.0000
  H   H296      1.0  0.74465  0.89847  0.47644  1.0000
  C   C459      1.0  0.76998  0.63550  0.35564  1.0000
  C   C460      1.0  0.73803  0.62232  0.33666  1.0000
  N   N93       1.0  0.74381  0.63410  0.41403  1.0000
  C   C461      1.0  0.75921  0.64155  0.42665  1.0000
  C   C462      1.0  0.76388  0.65429  0.51495  1.0000
  O   O43       1.0  0.77592  0.63694  0.55793  1.0000
  H   H297      1.0  0.75370  0.65605  0.55990  1.0000
  H   H298      1.0  0.76840  0.67690  0.50516  1.0000
  H   H299      1.0  0.77146  0.61725  0.57349  1.0000
  C   C463      1.0  0.23798  0.87175  0.35488  1.0000
  C   C464      1.0  0.26996  0.88487  0.33652  1.0000
  N   N94       1.0  0.26410  0.87327  0.41395  1.0000
  C   C465      1.0  0.24869  0.86585  0.42632  1.0000
  C   C466      1.0  0.24395  0.85332  0.51476  1.0000
  O   O44       1.0  0.23189  0.87078  0.55715  1.0000
  H   H300      1.0  0.25410  0.85161  0.55997  1.0000
  H   H301      1.0  0.23941  0.83069  0.50529  1.0000
  H   H302      1.0  0.23636  0.89050  0.57243  1.0000
  C   C467      1.0  0.30310  0.97311  0.34087  1.0000
  C   C468      1.0  0.30254  0.53498  0.33422  1.0000
  N   N95       1.0  0.30981  0.52041  0.40253  1.0000
  C   C469      1.0  0.31055  0.99013  0.40955  1.0000
  C   C470      1.0  0.31789  0.97758  0.49207  1.0000
  O   O45       1.0  0.30730  0.95868  0.54121  1.0000
  H   H303      1.0  0.32205  0.99547  0.53647  1.0000
  H   H304      1.0  0.32821  0.96441  0.47362  1.0000
  H   H305      1.0  0.29859  0.97114  0.56414  1.0000
  C   C471      1.0  0.70480  0.53419  0.34001  1.0000
  C   C472      1.0  0.70525  0.97232  0.33336  1.0000
  N   N96       1.0  0.69799  0.98695  0.40163  1.0000
  C   C473      1.0  0.69729  0.51723  0.40859  1.0000
  C   C474      1.0  0.68999  0.52982  0.49116  1.0000
  O   O46       1.0  0.70062  0.54863  0.54031  1.0000
  H   H306      1.0  0.68580  0.51196  0.53555  1.0000
  H   H307      1.0  0.67970  0.54306  0.47277  1.0000
  H   H308      1.0  0.70931  0.53611  0.56317  1.0000
  C   C475      1.0  0.80362  0.72288  0.34306  1.0000
  C   C476      1.0  0.80298  0.78467  0.33200  1.0000
  N   N97       1.0  0.81053  0.77065  0.40045  1.0000
  C   C477      1.0  0.81133  0.74043  0.40948  1.0000
  C   C478      1.0  0.81902  0.72839  0.49163  1.0000
  O   O47       1.0  0.80861  0.71000  0.54367  1.0000
  H   H309      1.0  0.82346  0.74654  0.53410  1.0000
  H   H310      1.0  0.82919  0.71492  0.47232  1.0000
  H   H311      1.0  0.80005  0.72271  0.56706  1.0000
  C   C479      1.0  0.20429  0.78446  0.34306  1.0000
  C   C480      1.0  0.20479  0.72267  0.33201  1.0000
  N   N98       1.0  0.19729  0.73676  0.40052  1.0000
  C   C481      1.0  0.19653  0.76698  0.40949  1.0000
  C   C482      1.0  0.18892  0.77908  0.49175  1.0000
  O   O48       1.0  0.19939  0.79739  0.54365  1.0000
  H   H312      1.0  0.18445  0.76096  0.53429  1.0000
  H   H313      1.0  0.17877  0.79262  0.47259  1.0000
  H   H314      1.0  0.20793  0.78460  0.56692  1.0000
  N   N99       1.0  0.35085  0.65375  0.39954  1.0000
  C   C483      1.0  0.33524  0.64687  0.40271  1.0000
  H   H315      1.0  0.32908  0.65043  0.46075  1.0000
  N   N100      1.0  0.65683  0.85355  0.39956  1.0000
  C   C484      1.0  0.67244  0.86045  0.40283  1.0000
  H   H316      1.0  0.67864  0.85673  0.46066  1.0000
  C   C485      1.0  0.64753  0.64655  0.35698  1.0000
  C   C486      1.0  0.67949  0.63135  0.35721  1.0000
  N   N101      1.0  0.66957  0.62272  0.42406  1.0000
  C   C487      1.0  0.65406  0.62996  0.42941  1.0000
  C   C488      1.0  0.64520  0.61923  0.50932  1.0000
  O   O49       1.0  0.63764  0.64316  0.55663  1.0000
  H   H317      1.0  0.65297  0.60722  0.55574  1.0000
  H   H318      1.0  0.63616  0.60340  0.48801  1.0000
  H   H319      1.0  0.64588  0.65615  0.58236  1.0000
  C   C489      1.0  0.36047  0.86086  0.35750  1.0000
  C   C490      1.0  0.32850  0.87599  0.35763  1.0000
  N   N102      1.0  0.33841  0.88465  0.42453  1.0000
  C   C491      1.0  0.35392  0.87744  0.42992  1.0000
  C   C492      1.0  0.36276  0.88816  0.50987  1.0000
  O   O50       1.0  0.37032  0.86423  0.55722  1.0000
  H   H320      1.0  0.35499  0.90017  0.55626  1.0000
  H   H321      1.0  0.37181  0.90400  0.48863  1.0000
  H   H322      1.0  0.36207  0.85124  0.58289  1.0000
  N   N103      1.0  0.85082  0.90314  0.40079  1.0000
  C   C493      1.0  0.83520  0.89627  0.40337  1.0000
  H   H323      1.0  0.82903  0.89929  0.46164  1.0000
  N   N104      1.0  0.15685  0.60420  0.40075  1.0000
  C   C494      1.0  0.17245  0.61111  0.40343  1.0000
  H   H324      1.0  0.17865  0.60795  0.46158  1.0000
  C   C495      1.0  0.14741  0.89687  0.35716  1.0000
  C   C496      1.0  0.17940  0.88191  0.35951  1.0000
  N   N105      1.0  0.16941  0.87361  0.42637  1.0000
  C   C497      1.0  0.15388  0.88075  0.43072  1.0000
  C   C498      1.0  0.14494  0.87033  0.51068  1.0000
  O   O51       1.0  0.13733  0.89444  0.55690  1.0000
  H   H325      1.0  0.15266  0.85850  0.55779  1.0000
  H   H326      1.0  0.13593  0.85441  0.48961  1.0000
  H   H327      1.0  0.14554  0.90751  0.58247  1.0000
  C   C499      1.0  0.86057  0.61060  0.35775  1.0000
  C   C500      1.0  0.82856  0.62546  0.35993  1.0000
  N   N106      1.0  0.83854  0.63379  0.42685  1.0000
  C   C501      1.0  0.85407  0.62669  0.43129  1.0000
  C   C502      1.0  0.86299  0.63709  0.51137  1.0000
  O   O52       1.0  0.87059  0.61296  0.55757  1.0000
  H   H328      1.0  0.85525  0.64889  0.55845  1.0000
  H   H329      1.0  0.87200  0.65302  0.49043  1.0000
  H   H330      1.0  0.86237  0.59987  0.58302  1.0000
  C   C503      1.0  0.07134  0.69747  0.33718  1.0000
  C   C504      1.0  0.09271  0.64693  0.32773  1.0000
  N   N107      1.0  0.07742  0.64475  0.35476  1.0000
  C   C505      1.0  0.06657  0.66751  0.36056  1.0000
  C   C506      1.0  0.05139  0.65823  0.40222  1.0000
  O   O53       1.0  0.04702  0.67656  0.47726  1.0000
  H   H331      1.0  0.05185  0.63495  0.42531  1.0000
  H   H332      1.0  0.04210  0.65892  0.35173  1.0000
  H   H333      1.0  0.05491  0.67373  0.52511  1.0000
  C   C507      1.0  0.93642  0.80979  0.33803  1.0000
  C   C508      1.0  0.91490  0.86017  0.32868  1.0000
  N   N108      1.0  0.93025  0.86252  0.35439  1.0000
  C   C509      1.0  0.94117  0.83989  0.36002  1.0000
  C   C510      1.0  0.95640  0.84965  0.40012  1.0000
  O   O54       1.0  0.96096  0.83186  0.47596  1.0000
  H   H334      1.0  0.95590  0.87307  0.42196  1.0000
  H   H335      1.0  0.96558  0.84880  0.34904  1.0000
  H   H336      1.0  0.95314  0.83491  0.52411  1.0000
  N   N109      1.0  0.92155  0.69874  0.35670  1.0000
  C   C511      1.0  0.91094  0.67621  0.36338  1.0000
  H   H337      1.0  0.90006  0.68189  0.38682  1.0000
  N   N110      1.0  0.08654  0.80846  0.35661  1.0000
  C   C512      1.0  0.09714  0.83102  0.36270  1.0000
  H   H338      1.0  0.10806  0.82537  0.38560  1.0000
  C   C513      1.0  0.57132  0.94735  0.33717  1.0000
  C   C514      1.0  0.59266  0.89678  0.32759  1.0000
  N   N111      1.0  0.57738  0.89462  0.35476  1.0000
  C   C515      1.0  0.56654  0.91740  0.36063  1.0000
  C   C516      1.0  0.55136  0.90816  0.40240  1.0000
  O   O55       1.0  0.54702  0.92650  0.47747  1.0000
  H   H339      1.0  0.55182  0.88487  0.42550  1.0000
  H   H340      1.0  0.54206  0.90886  0.35199  1.0000
  H   H341      1.0  0.55493  0.92366  0.52525  1.0000
  C   C517      1.0  0.43645  0.55990  0.33785  1.0000
  C   C518      1.0  0.41496  0.61033  0.32821  1.0000
  N   N112      1.0  0.43029  0.61264  0.35426  1.0000
  C   C519      1.0  0.44120  0.58998  0.36003  1.0000
  C   C520      1.0  0.45641  0.59969  0.40046  1.0000
  O   O56       1.0  0.46092  0.58184  0.47627  1.0000
  H   H342      1.0  0.45591  0.62310  0.42243  1.0000
  H   H343      1.0  0.46562  0.59885  0.34955  1.0000
  H   H344      1.0  0.45308  0.58487  0.52430  1.0000
  N   N113      1.0  0.42151  0.94889  0.35650  1.0000
  C   C521      1.0  0.41088  0.92638  0.36315  1.0000
  H   H345      1.0  0.40000  0.93210  0.38639  1.0000
  N   N114      1.0  0.58658  0.55831  0.35676  1.0000
  C   C522      1.0  0.59720  0.58085  0.36288  1.0000
  H   H346      1.0  0.60812  0.57518  0.38576  1.0000
  C   C523      1.0  0.10625  0.97205  0.37402  1.0000
  C   C524      1.0  0.10561  0.53597  0.36520  1.0000
  N   N115      1.0  0.11530  0.52021  0.42028  1.0000
  C   C525      1.0  0.11587  0.99016  0.43119  1.0000
  C   C526      1.0  0.12599  0.97969  0.50692  1.0000
  O   O57       1.0  0.12000  0.95361  0.55139  1.0000
  H   H347      1.0  0.12730  0.99741  0.55721  1.0000
  H   H348      1.0  0.13782  0.97480  0.48234  1.0000
  H   H349      1.0  0.10990  0.95889  0.58011  1.0000
  C   C527      1.0  0.90160  0.53516  0.37426  1.0000
  C   C528      1.0  0.90215  0.97123  0.36543  1.0000
  N   N116      1.0  0.89247  0.98705  0.42039  1.0000
  C   C529      1.0  0.89192  0.51710  0.43127  1.0000
  C   C530      1.0  0.88183  0.52760  0.50709  1.0000
  O   O58       1.0  0.88789  0.55356  0.55183  1.0000
  H   H350      1.0  0.88045  0.50983  0.55721  1.0000
  H   H351      1.0  0.87001  0.53263  0.48253  1.0000
  H   H352      1.0  0.89797  0.54814  0.58052  1.0000
  C   C531      1.0  0.60639  0.72189  0.37411  1.0000
  C   C532      1.0  0.60566  0.78581  0.36486  1.0000
  N   N117      1.0  0.61543  0.77012  0.41967  1.0000
  C   C533      1.0  0.61604  0.74008  0.43086  1.0000
  C   C534      1.0  0.62628  0.72978  0.50627  1.0000
  O   O59       1.0  0.62066  0.70327  0.55004  1.0000
  H   H353      1.0  0.62735  0.74738  0.55713  1.0000
  H   H354      1.0  0.63817  0.72558  0.48143  1.0000
  H   H355      1.0  0.61050  0.70794  0.57887  1.0000
  C   C535      1.0  0.40151  0.78532  0.37450  1.0000
  C   C536      1.0  0.40212  0.72137  0.36498  1.0000
  N   N118      1.0  0.39236  0.73712  0.41971  1.0000
  C   C537      1.0  0.39179  0.76715  0.43096  1.0000
  C   C538      1.0  0.38159  0.77747  0.50651  1.0000
  O   O60       1.0  0.38723  0.80393  0.55037  1.0000
  H   H356      1.0  0.38051  0.75984  0.55731  1.0000
  H   H357      1.0  0.36969  0.78172  0.48177  1.0000
  H   H358      1.0  0.39740  0.79922  0.57911  1.0000
  N   N119      1.0  0.99532  0.73674  0.38290  1.0000
  C   C539      1.0  0.01128  0.73504  0.38882  1.0000
  H   H359      1.0  0.01625  0.72120  0.43559  1.0000
  N   N120      1.0  0.49532  0.98674  0.38307  1.0000
  C   C540      1.0  0.51127  0.98503  0.38903  1.0000
  H   H360      1.0  0.51624  0.97115  0.43571  1.0000
