data_image0
_chemical_formula_structural       CNCHCNCHNC2HNC2HNC2HNC2HNC2HNC2HCNCHCNCHNC2HNC2HCNCHCNCHNC2HNC2HNC2HNC2HCNCHCNCHNC2HNC2HCNCHCNCHNC2HNC2HNC2HNC2HCNCHCNCHC6H3C6H3C6H3C6H3C6H3C6H3C6H3C6H3C6H3C6H3C6H3C6H3C6H3C6H3C6H3C6H3C6H3C6H3C6H3C6H3NC2HNC2HCNCHCNCHCNCHCNCHCNCHCNCHNC2HNC2HCNCHCNCHNC2HNC2HCNCHCNCHCNCHCNCHNC2HNC2HCNCHCNCHNC2HNC2HCNCHCNCHCNCHCNCHNC2HNC2HCNCHCNCHNC2HNC2HNC2HNC2HNC2HNC2HCNCHCNCHNC2HNC2HCNCHCNCHNC2HNC2HNC2HNC2HCNCHCNCHNC2HNC2HCNCHCNCHNC2HNC2HNC2HNC2HCNCHCNCHC6H3C6H3C6H3C6H3C6H3C6H3C6H3C6H3C6H3C6H3C6H3C6H3C6H3C6H3C6H3C6H3C6H3C6H3C6H3C6H3NC2HNC2HCNCHCNCHCNCHCNCHCNCHCNCHNC2HNC2HCNCHCNCHNC2HNC2HCNCHCNCHCNCHCNCHNC2HNC2HCNCHCNCHNC2HNC2HCNCHCNCHCNCHCNCHNC2HNC2H
_chemical_formula_sum              "C480 N120 H240"
_cell_length_a       84.7103
_cell_length_b       44.621
_cell_length_c       14.8935
_cell_angle_alpha    90
_cell_angle_beta     90
_cell_angle_gamma    90

_space_group_name_H-M_alt    "P 1"
_space_group_IT_number       1

loop_
  _space_group_symop_operation_xyz
  'x, y, z'

loop_
  _atom_site_type_symbol
  _atom_site_label
  _atom_site_symmetry_multiplicity
  _atom_site_fract_x
  _atom_site_fract_y
  _atom_site_fract_z
  _atom_site_occupancy
  C   C1        1.0  0.25772  0.11171  0.26742  1.0000
  N   N1        1.0  0.24240  0.11968  0.27941  1.0000
  C   C2        1.0  0.23800  0.14031  0.34157  1.0000
  H   H1        1.0  0.26017  0.09551  0.22094  1.0000
  C   C3        1.0  0.74322  0.37012  0.26921  1.0000
  N   N2        1.0  0.75881  0.36364  0.26097  1.0000
  C   C4        1.0  0.76998  0.37430  0.31865  1.0000
  H   H2        1.0  0.73560  0.36230  0.22146  1.0000
  N   N3        1.0  0.75863  0.14229  0.27172  1.0000
  C   C5        1.0  0.74301  0.13630  0.28094  1.0000
  C   C6        1.0  0.73750  0.12012  0.35609  1.0000
  H   H3        1.0  0.73544  0.14329  0.23175  1.0000
  N   N4        1.0  0.24223  0.38626  0.28490  1.0000
  C   C7        1.0  0.25766  0.39337  0.27221  1.0000
  C   C8        1.0  0.26961  0.38197  0.32959  1.0000
  H   H4        1.0  0.26041  0.40786  0.22140  1.0000
  N   N5        1.0  0.29132  0.48695  0.28336  1.0000
  C   C9        1.0  0.29115  0.01710  0.27897  1.0000
  C   C10       1.0  0.30178  0.03411  0.33131  1.0000
  H   H5        1.0  0.28317  0.02703  0.23696  1.0000
  N   N6        1.0  0.69275  0.02009  0.32993  1.0000
  C   C11       1.0  0.69236  0.48984  0.32691  1.0000
  C   C12       1.0  0.70239  0.47284  0.38310  1.0000
  H   H6        1.0  0.68554  0.47991  0.27873  1.0000
  N   N7        1.0  0.79159  0.23688  0.26653  1.0000
  C   C13       1.0  0.79141  0.26706  0.26196  1.0000
  C   C14       1.0  0.80181  0.28412  0.31565  1.0000
  H   H7        1.0  0.78354  0.27699  0.21932  1.0000
  N   N8        1.0  0.19217  0.26999  0.34255  1.0000
  C   C15       1.0  0.19177  0.23974  0.34047  1.0000
  C   C16       1.0  0.20172  0.22292  0.39765  1.0000
  H   H8        1.0  0.18514  0.22970  0.29163  1.0000
  C   C17       1.0  0.34119  0.11925  0.24562  1.0000
  N   N9        1.0  0.35644  0.12788  0.25476  1.0000
  C   C18       1.0  0.36113  0.14800  0.31774  1.0000
  H   H9        1.0  0.33868  0.10310  0.19906  1.0000
  C   C19       1.0  0.66753  0.38803  0.25123  1.0000
  N   N10       1.0  0.65218  0.37946  0.25459  1.0000
  C   C20       1.0  0.64687  0.35836  0.31296  1.0000
  H   H10       1.0  0.67046  0.40528  0.20919  1.0000
  N   N11       1.0  0.65206  0.12910  0.26358  1.0000
  C   C21       1.0  0.66742  0.12075  0.25901  1.0000
  C   C22       1.0  0.67854  0.13165  0.32205  1.0000
  H   H11       1.0  0.67044  0.10430  0.21440  1.0000
  N   N12       1.0  0.35599  0.37768  0.27528  1.0000
  C   C23       1.0  0.34071  0.38599  0.26582  1.0000
  C   C24       1.0  0.32910  0.37622  0.32762  1.0000
  H   H12       1.0  0.33803  0.40121  0.21681  1.0000
  C   C25       1.0  0.84111  0.37077  0.24485  1.0000
  N   N13       1.0  0.85634  0.37931  0.25515  1.0000
  C   C26       1.0  0.86101  0.39836  0.32105  1.0000
  H   H13       1.0  0.83860  0.35548  0.19576  1.0000
  C   C27       1.0  0.16813  0.13849  0.25273  1.0000
  N   N14       1.0  0.15280  0.12978  0.25460  1.0000
  C   C28       1.0  0.14734  0.10847  0.31193  1.0000
  H   H14       1.0  0.17113  0.15596  0.21170  1.0000
  N   N15       1.0  0.15223  0.37813  0.25973  1.0000
  C   C29       1.0  0.16758  0.36958  0.25612  1.0000
  C   C30       1.0  0.17874  0.38118  0.31777  1.0000
  H   H15       1.0  0.17055  0.35249  0.21358  1.0000
  N   N16       1.0  0.85591  0.12638  0.27639  1.0000
  C   C31       1.0  0.84065  0.13461  0.26601  1.0000
  C   C32       1.0  0.82907  0.12612  0.32967  1.0000
  H   H16       1.0  0.83796  0.14888  0.21448  1.0000
  N   N17       1.0  0.08802  0.19993  0.31817  1.0000
  C   C33       1.0  0.09781  0.17606  0.31687  1.0000
  C   C34       1.0  0.09221  0.14594  0.31742  1.0000
  H   H17       1.0  0.10944  0.18151  0.32029  1.0000
  N   N18       1.0  0.94172  0.33724  0.33331  1.0000
  C   C35       1.0  0.93262  0.36271  0.33429  1.0000
  C   C36       1.0  0.91588  0.36154  0.34157  1.0000
  H   H18       1.0  0.93824  0.38272  0.32562  1.0000
  C   C37       1.0  0.93257  0.14409  0.34038  1.0000
  N   N19       1.0  0.94171  0.16951  0.33870  1.0000
  C   C38       1.0  0.93571  0.19786  0.34632  1.0000
  H   H19       1.0  0.93819  0.12405  0.33260  1.0000
  C   C39       1.0  0.07494  0.36312  0.31972  1.0000
  N   N20       1.0  0.06578  0.33771  0.32007  1.0000
  C   C40       1.0  0.07183  0.30933  0.32435  1.0000
  H   H20       1.0  0.06922  0.38317  0.31508  1.0000
  N   N21       1.0  0.58795  0.44958  0.33638  1.0000
  C   C41       1.0  0.59762  0.42552  0.33654  1.0000
  C   C42       1.0  0.59191  0.39573  0.32565  1.0000
  H   H21       1.0  0.60916  0.43019  0.34948  1.0000
  N   N22       1.0  0.44186  0.08712  0.33042  1.0000
  C   C43       1.0  0.43277  0.11259  0.33149  1.0000
  C   C44       1.0  0.41603  0.11142  0.33932  1.0000
  H   H22       1.0  0.43837  0.13259  0.32221  1.0000
  C   C45       1.0  0.43269  0.39400  0.33725  1.0000
  N   N23       1.0  0.44182  0.41942  0.33552  1.0000
  C   C46       1.0  0.43583  0.44776  0.34383  1.0000
  H   H23       1.0  0.43828  0.37397  0.32877  1.0000
  C   C47       1.0  0.57488  0.11300  0.32305  1.0000
  N   N24       1.0  0.56577  0.08754  0.32291  1.0000
  C   C48       1.0  0.57184  0.05925  0.33010  1.0000
  H   H24       1.0  0.56918  0.13299  0.31580  1.0000
  N   N25       1.0  0.09341  0.48816  0.33154  1.0000
  C   C49       1.0  0.09293  0.01899  0.33317  1.0000
  C   C50       1.0  0.10539  0.03580  0.37277  1.0000
  H   H25       1.0  0.08476  0.02947  0.29373  1.0000
  N   N26       1.0  0.91417  0.01944  0.35663  1.0000
  C   C51       1.0  0.91474  0.48861  0.35643  1.0000
  C   C52       1.0  0.90215  0.47143  0.39302  1.0000
  H   H26       1.0  0.92315  0.47846  0.31784  1.0000
  N   N27       1.0  0.59309  0.23793  0.33676  1.0000
  C   C53       1.0  0.59257  0.26875  0.33772  1.0000
  C   C54       1.0  0.60508  0.28568  0.37634  1.0000
  H   H27       1.0  0.58435  0.27912  0.29836  1.0000
  N   N28       1.0  0.41428  0.26934  0.35343  1.0000
  C   C55       1.0  0.41485  0.23851  0.35331  1.0000
  C   C56       1.0  0.40221  0.22132  0.38939  1.0000
  H   H28       1.0  0.42332  0.22835  0.31515  1.0000
  C   C57       1.0  0.01112  0.27661  0.28750  1.0000
  N   N29       1.0  0.99507  0.27595  0.29074  1.0000
  C   C58       1.0  0.98679  0.25335  0.33012  1.0000
  H   H29       1.0  0.01625  0.29412  0.25443  1.0000
  C   C59       1.0  0.51124  0.02655  0.28375  1.0000
  N   N30       1.0  0.49519  0.02591  0.28670  1.0000
  C   C60       1.0  0.48688  0.00320  0.32533  1.0000
  H   H30       1.0  0.51642  0.04419  0.25154  1.0000
  C   C61       1.0  0.30127  0.06582  0.32944  1.0000
  C   C62       1.0  0.31512  0.08301  0.32160  1.0000
  C   C63       1.0  0.31465  0.11460  0.31337  1.0000
  C   C64       1.0  0.29968  0.12901  0.31543  1.0000
  C   C65       1.0  0.28548  0.11213  0.32105  1.0000
  C   C66       1.0  0.28665  0.08077  0.33059  1.0000
  H   H31       1.0  0.29909  0.15181  0.30876  1.0000
  H   H32       1.0  0.27658  0.06837  0.33951  1.0000
  H   H33       1.0  0.32576  0.07210  0.32066  1.0000
  C   C67       1.0  0.70420  0.44155  0.37078  1.0000
  C   C68       1.0  0.69110  0.42299  0.35478  1.0000
  C   C69       1.0  0.69283  0.39247  0.33146  1.0000
  C   C70       1.0  0.70829  0.38014  0.32946  1.0000
  C   C71       1.0  0.72182  0.39815  0.34718  1.0000
  C   C72       1.0  0.71939  0.42888  0.36545  1.0000
  H   H34       1.0  0.70970  0.35798  0.31375  1.0000
  H   H35       1.0  0.72896  0.44281  0.37079  1.0000
  H   H36       1.0  0.68001  0.43211  0.35949  1.0000
  C   C73       1.0  0.70398  0.06624  0.37955  1.0000
  C   C74       1.0  0.69091  0.08441  0.35931  1.0000
  C   C75       1.0  0.69265  0.11524  0.34001  1.0000
  C   C76       1.0  0.70806  0.12780  0.34208  1.0000
  C   C77       1.0  0.72152  0.10988  0.36200  1.0000
  C   C78       1.0  0.71911  0.07918  0.38080  1.0000
  H   H37       1.0  0.70949  0.15004  0.32745  1.0000
  H   H38       1.0  0.72868  0.06539  0.38922  1.0000
  H   H39       1.0  0.67989  0.07488  0.35932  1.0000
  C   C79       1.0  0.30101  0.44046  0.33824  1.0000
  C   C80       1.0  0.31485  0.42316  0.33966  1.0000
  C   C81       1.0  0.31434  0.39153  0.33351  1.0000
  C   C82       1.0  0.29934  0.37723  0.33226  1.0000
  C   C83       1.0  0.28516  0.39431  0.33041  1.0000
  C   C84       1.0  0.28634  0.42583  0.33366  1.0000
  H   H40       1.0  0.29874  0.35437  0.32840  1.0000
  H   H41       1.0  0.27625  0.43853  0.33553  1.0000
  H   H42       1.0  0.32553  0.43397  0.34179  1.0000
  C   C85       1.0  0.80115  0.31582  0.31571  1.0000
  C   C86       1.0  0.81500  0.33322  0.31311  1.0000
  C   C87       1.0  0.81454  0.36492  0.31121  1.0000
  C   C88       1.0  0.79956  0.37922  0.31638  1.0000
  C   C89       1.0  0.78541  0.36212  0.31657  1.0000
  C   C90       1.0  0.78649  0.33061  0.31715  1.0000
  H   H43       1.0  0.79893  0.40211  0.31535  1.0000
  H   H44       1.0  0.77637  0.31807  0.32165  1.0000
  H   H45       1.0  0.82566  0.32239  0.31145  1.0000
  C   C91       1.0  0.20388  0.19174  0.38385  1.0000
  C   C92       1.0  0.19099  0.17292  0.36476  1.0000
  C   C93       1.0  0.19309  0.14302  0.33597  1.0000
  C   C94       1.0  0.20870  0.13158  0.32980  1.0000
  C   C95       1.0  0.22200  0.14981  0.35062  1.0000
  C   C96       1.0  0.21923  0.17978  0.37687  1.0000
  H   H46       1.0  0.21036  0.10996  0.30895  1.0000
  H   H47       1.0  0.22864  0.19392  0.38554  1.0000
  H   H48       1.0  0.17980  0.18147  0.37050  1.0000
  C   C97       1.0  0.20348  0.31628  0.38896  1.0000
  C   C98       1.0  0.19062  0.33441  0.36446  1.0000
  C   C99       1.0  0.19268  0.36460  0.33836  1.0000
  C   C100      1.0  0.20824  0.37647  0.33654  1.0000
  C   C101      1.0  0.22148  0.35859  0.36088  1.0000
  C   C102      1.0  0.21874  0.32872  0.38822  1.0000
  H   H49       1.0  0.20992  0.39817  0.31645  1.0000
  H   H50       1.0  0.22815  0.31490  0.40077  1.0000
  H   H51       1.0  0.17950  0.32530  0.36602  1.0000
  C   C103      1.0  0.80104  0.19056  0.32546  1.0000
  C   C104      1.0  0.81484  0.17325  0.33188  1.0000
  C   C105      1.0  0.81431  0.14156  0.33280  1.0000
  C   C106      1.0  0.79928  0.12738  0.33535  1.0000
  C   C107      1.0  0.78519  0.14450  0.32845  1.0000
  C   C108      1.0  0.78635  0.17595  0.32243  1.0000
  H   H52       1.0  0.79862  0.10449  0.33757  1.0000
  H   H53       1.0  0.77626  0.18867  0.32020  1.0000
  H   H54       1.0  0.82553  0.18404  0.33275  1.0000
  C   C109      1.0  0.13082  0.10230  0.31898  1.0000
  C   C110      1.0  0.11932  0.12462  0.30479  1.0000
  C   C111      1.0  0.10280  0.12045  0.31912  1.0000
  C   C112      1.0  0.09815  0.09007  0.33693  1.0000
  C   C113      1.0  0.10919  0.06646  0.35343  1.0000
  C   C114      1.0  0.12546  0.07393  0.34549  1.0000
  H   H55       1.0  0.08649  0.08525  0.34615  1.0000
  H   H56       1.0  0.13385  0.05752  0.35026  1.0000
  H   H57       1.0  0.12354  0.14474  0.28345  1.0000
  C   C115      1.0  0.87735  0.40460  0.33413  1.0000
  C   C116      1.0  0.88895  0.38230  0.32358  1.0000
  C   C117      1.0  0.90533  0.38694  0.34075  1.0000
  C   C118      1.0  0.90987  0.41741  0.35738  1.0000
  C   C119      1.0  0.89860  0.44078  0.37224  1.0000
  C   C120      1.0  0.88241  0.43309  0.36130  1.0000
  H   H58       1.0  0.92146  0.42221  0.36934  1.0000
  H   H59       1.0  0.87392  0.44940  0.36409  1.0000
  H   H60       1.0  0.88506  0.36193  0.30176  1.0000
  C   C121      1.0  0.87721  0.10261  0.35600  1.0000
  C   C122      1.0  0.88874  0.12457  0.33856  1.0000
  C   C123      1.0  0.90527  0.11990  0.35020  1.0000
  C   C124      1.0  0.90986  0.08928  0.36372  1.0000
  C   C125      1.0  0.89870  0.06615  0.38329  1.0000
  C   C126      1.0  0.88246  0.07433  0.38400  1.0000
  H   H61       1.0  0.92155  0.08401  0.36855  1.0000
  H   H62       1.0  0.87393  0.05837  0.39362  1.0000
  H   H63       1.0  0.88466  0.14475  0.31641  1.0000
  C   C127      1.0  0.13035  0.40512  0.32681  1.0000
  C   C128      1.0  0.11882  0.38305  0.30999  1.0000
  C   C129      1.0  0.10229  0.38744  0.32300  1.0000
  C   C130      1.0  0.09762  0.41797  0.33769  1.0000
  C   C131      1.0  0.10872  0.44122  0.35664  1.0000
  C   C132      1.0  0.12499  0.43331  0.35529  1.0000
  H   H64       1.0  0.08592  0.42307  0.34382  1.0000
  H   H65       1.0  0.13344  0.44941  0.36497  1.0000
  H   H66       1.0  0.12294  0.36292  0.28794  1.0000
  C   C133      1.0  0.63039  0.35222  0.32134  1.0000
  C   C134      1.0  0.61889  0.37471  0.30991  1.0000
  C   C135      1.0  0.60242  0.37027  0.32511  1.0000
  C   C136      1.0  0.59773  0.33984  0.34098  1.0000
  C   C137      1.0  0.60883  0.31627  0.35616  1.0000
  C   C138      1.0  0.62508  0.32371  0.34687  1.0000
  H   H67       1.0  0.58608  0.33516  0.35165  1.0000
  H   H68       1.0  0.63347  0.30725  0.35037  1.0000
  H   H69       1.0  0.62295  0.39508  0.28936  1.0000
  C   C139      1.0  0.37748  0.15436  0.33045  1.0000
  C   C140      1.0  0.38911  0.13206  0.32073  1.0000
  C   C141      1.0  0.40547  0.13679  0.33809  1.0000
  C   C142      1.0  0.40998  0.16728  0.35451  1.0000
  C   C143      1.0  0.39870  0.19066  0.36856  1.0000
  C   C144      1.0  0.38252  0.18293  0.35707  1.0000
  H   H70       1.0  0.42157  0.17212  0.36649  1.0000
  H   H71       1.0  0.37403  0.19923  0.35930  1.0000
  H   H72       1.0  0.38526  0.11162  0.29929  1.0000
  C   C145      1.0  0.37729  0.35260  0.35178  1.0000
  C   C146      1.0  0.38886  0.37458  0.33529  1.0000
  C   C147      1.0  0.40538  0.36985  0.34721  1.0000
  C   C148      1.0  0.40995  0.33921  0.36054  1.0000
  C   C149      1.0  0.39877  0.31606  0.37937  1.0000
  C   C150      1.0  0.38253  0.32425  0.37934  1.0000
  H   H73       1.0  0.42164  0.33393  0.36550  1.0000
  H   H74       1.0  0.37398  0.30829  0.38844  1.0000
  H   H75       1.0  0.38483  0.39485  0.31351  1.0000
  C   C151      1.0  0.63018  0.15513  0.33321  1.0000
  C   C152      1.0  0.61869  0.13296  0.31672  1.0000
  C   C153      1.0  0.60216  0.13739  0.32929  1.0000
  C   C154      1.0  0.59744  0.16791  0.34333  1.0000
  C   C155      1.0  0.60852  0.19119  0.36229  1.0000
  C   C156      1.0  0.62479  0.18336  0.36108  1.0000
  H   H76       1.0  0.58574  0.17298  0.34925  1.0000
  H   H77       1.0  0.63323  0.19948  0.37078  1.0000
  H   H78       1.0  0.62283  0.11276  0.29515  1.0000
  C   C157      1.0  0.06311  0.22557  0.32135  1.0000
  C   C158      1.0  0.07087  0.25383  0.32242  1.0000
  C   C159      1.0  0.06301  0.28197  0.32395  1.0000
  C   C160      1.0  0.04628  0.28096  0.32495  1.0000
  C   C161      1.0  0.03756  0.25361  0.32440  1.0000
  C   C162      1.0  0.04638  0.22637  0.32223  1.0000
  H   H79       1.0  0.04034  0.30085  0.32890  1.0000
  H   H80       1.0  0.04049  0.20640  0.31919  1.0000
  H   H81       1.0  0.08292  0.25393  0.32132  1.0000
  C   C163      1.0  0.94451  0.28162  0.34013  1.0000
  C   C164      1.0  0.93673  0.25342  0.34571  1.0000
  C   C165      1.0  0.94454  0.22518  0.34355  1.0000
  C   C166      1.0  0.96124  0.22603  0.33805  1.0000
  C   C167      1.0  0.96985  0.25337  0.33327  1.0000
  C   C168      1.0  0.96120  0.28073  0.33276  1.0000
  H   H82       1.0  0.96728  0.20617  0.33686  1.0000
  H   H83       1.0  0.96723  0.30057  0.32998  1.0000
  H   H84       1.0  0.92470  0.25343  0.34966  1.0000
  C   C169      1.0  0.56317  0.47554  0.32598  1.0000
  C   C170      1.0  0.57092  0.00375  0.33025  1.0000
  C   C171      1.0  0.56304  0.03188  0.32860  1.0000
  C   C172      1.0  0.54633  0.03089  0.32511  1.0000
  C   C173      1.0  0.53763  0.50353  0.32228  1.0000
  C   C174      1.0  0.54647  0.47633  0.32105  1.0000
  H   H85       1.0  0.54035  0.05077  0.32771  1.0000
  H   H86       1.0  0.54061  0.45637  0.31611  1.0000
  H   H87       1.0  0.58297  0.00382  0.33258  1.0000
  C   C175      1.0  0.44464  0.03151  0.33747  1.0000
  C   C176      1.0  0.43686  0.50332  0.34356  1.0000
  C   C177      1.0  0.44465  0.47508  0.34075  1.0000
  C   C178      1.0  0.46133  0.47591  0.33415  1.0000
  C   C179      1.0  0.46994  0.00325  0.32898  1.0000
  C   C180      1.0  0.46131  0.03061  0.32911  1.0000
  H   H88       1.0  0.46736  0.45604  0.33254  1.0000
  H   H89       1.0  0.46734  0.05045  0.32601  1.0000
  H   H90       1.0  0.42483  0.50334  0.34824  1.0000
  N   N31       1.0  0.24966  0.15320  0.39175  1.0000
  C   C181      1.0  0.26517  0.14621  0.38330  1.0000
  C   C182      1.0  0.26995  0.12456  0.32003  1.0000
  H   H91       1.0  0.27312  0.15581  0.42622  1.0000
  N   N32       1.0  0.76510  0.39076  0.38992  1.0000
  C   C183      1.0  0.74967  0.39793  0.40185  1.0000
  C   C184      1.0  0.73783  0.38790  0.34133  1.0000
  H   H92       1.0  0.74679  0.41055  0.45671  1.0000
  C   C185      1.0  0.74925  0.11087  0.41814  1.0000
  N   N33       1.0  0.76472  0.11750  0.40510  1.0000
  C   C186      1.0  0.76972  0.13253  0.33121  1.0000
  H   H93       1.0  0.74628  0.09918  0.47469  1.0000
  C   C187      1.0  0.26444  0.36287  0.39895  1.0000
  N   N34       1.0  0.24884  0.35661  0.40790  1.0000
  C   C188      1.0  0.23747  0.36809  0.35285  1.0000
  H   H94       1.0  0.27215  0.35465  0.44566  1.0000
  C   C189      1.0  0.31270  0.01794  0.38434  1.0000
  N   N35       1.0  0.31233  0.48759  0.38558  1.0000
  C   C190      1.0  0.30166  0.47190  0.33629  1.0000
  H   H95       1.0  0.32068  0.02872  0.42438  1.0000
  C   C191      1.0  0.71186  0.48897  0.44448  1.0000
  N   N36       1.0  0.71178  0.01925  0.44392  1.0000
  C   C192      1.0  0.70227  0.03506  0.38792  1.0000
  H   H96       1.0  0.71947  0.47827  0.48703  1.0000
  C   C193      1.0  0.81249  0.26803  0.37040  1.0000
  N   N37       1.0  0.81214  0.23770  0.37177  1.0000
  C   C194      1.0  0.80177  0.22194  0.32075  1.0000
  H   H97       1.0  0.82020  0.27881  0.41213  1.0000
  C   C195      1.0  0.21103  0.23928  0.45929  1.0000
  N   N38       1.0  0.21095  0.26959  0.45769  1.0000
  C   C196      1.0  0.20152  0.28522  0.40077  1.0000
  H   H98       1.0  0.21865  0.22874  0.50206  1.0000
  N   N39       1.0  0.34986  0.15967  0.37300  1.0000
  C   C197      1.0  0.33437  0.15168  0.36793  1.0000
  C   C198      1.0  0.32941  0.12992  0.30507  1.0000
  H   H99       1.0  0.32674  0.15976  0.41525  1.0000
  N   N40       1.0  0.65759  0.34579  0.36995  1.0000
  C   C199      1.0  0.67312  0.35364  0.37078  1.0000
  C   C200      1.0  0.67870  0.37624  0.31257  1.0000
  H   H100      1.0  0.68023  0.34501  0.41983  1.0000
  C   C201      1.0  0.67288  0.15320  0.38357  1.0000
  N   N41       1.0  0.65733  0.16084  0.38398  1.0000
  C   C202      1.0  0.64666  0.14906  0.32524  1.0000
  H   H101      1.0  0.67992  0.16103  0.43411  1.0000
  C   C203      1.0  0.33424  0.35569  0.39363  1.0000
  N   N42       1.0  0.34978  0.34797  0.39899  1.0000
  C   C204      1.0  0.36089  0.35885  0.34127  1.0000
  H   H102      1.0  0.32672  0.34839  0.44260  1.0000
  N   N43       1.0  0.84974  0.40909  0.37801  1.0000
  C   C205      1.0  0.83426  0.40109  0.37188  1.0000
  C   C206      1.0  0.82932  0.38034  0.30599  1.0000
  H   H103      1.0  0.82662  0.40838  0.42028  1.0000
  N   N44       1.0  0.15794  0.09589  0.36966  1.0000
  C   C207      1.0  0.17345  0.10385  0.37196  1.0000
  C   C208      1.0  0.17917  0.12654  0.31447  1.0000
  H   H104      1.0  0.18043  0.09520  0.42157  1.0000
  C   C209      1.0  0.17309  0.40345  0.37700  1.0000
  N   N45       1.0  0.15756  0.41122  0.37659  1.0000
  C   C210      1.0  0.14684  0.39889  0.31909  1.0000
  H   H105      1.0  0.18014  0.41177  0.42683  1.0000
  C   C211      1.0  0.83422  0.10676  0.39877  1.0000
  N   N46       1.0  0.84974  0.09900  0.40495  1.0000
  C   C212      1.0  0.86082  0.10876  0.34525  1.0000
  H   H106      1.0  0.82671  0.10039  0.44898  1.0000
  C   C213      1.0  0.07540  0.14459  0.32061  1.0000
  N   N47       1.0  0.06612  0.16985  0.32107  1.0000
  C   C214      1.0  0.07205  0.19834  0.31965  1.0000
  H   H107      1.0  0.06970  0.12447  0.32140  1.0000
  C   C215      1.0  0.91017  0.33181  0.35349  1.0000
  N   N48       1.0  0.91981  0.30771  0.35295  1.0000
  C   C216      1.0  0.93568  0.30895  0.34165  1.0000
  H   H108      1.0  0.89865  0.32726  0.36758  1.0000
  N   N49       1.0  0.91985  0.19920  0.35768  1.0000
  C   C217      1.0  0.91019  0.17515  0.35940  1.0000
  C   C218      1.0  0.91583  0.14531  0.34831  1.0000
  H   H109      1.0  0.89871  0.17993  0.37359  1.0000
  N   N50       1.0  0.08779  0.30799  0.33007  1.0000
  C   C219      1.0  0.09746  0.33202  0.32969  1.0000
  C   C220      1.0  0.09175  0.36194  0.32236  1.0000
  H   H110      1.0  0.10905  0.32706  0.33958  1.0000
  C   C221      1.0  0.57514  0.39454  0.31931  1.0000
  N   N51       1.0  0.56602  0.41997  0.31890  1.0000
  C   C222      1.0  0.57206  0.44827  0.32651  1.0000
  H   H111      1.0  0.56949  0.37455  0.31129  1.0000
  C   C223      1.0  0.41033  0.08172  0.35211  1.0000
  N   N52       1.0  0.41997  0.05762  0.35148  1.0000
  C   C224      1.0  0.43582  0.05885  0.33937  1.0000
  H   H112      1.0  0.39883  0.07722  0.36677  1.0000
  N   N53       1.0  0.41999  0.44909  0.35605  1.0000
  C   C225      1.0  0.41033  0.42503  0.35781  1.0000
  C   C226      1.0  0.41595  0.39523  0.34572  1.0000
  H   H113      1.0  0.39887  0.42976  0.37263  1.0000
  N   N54       1.0  0.58775  0.05801  0.33923  1.0000
  C   C227      1.0  0.59739  0.08210  0.33930  1.0000
  C   C228      1.0  0.59165  0.11189  0.32877  1.0000
  H   H114      1.0  0.60893  0.07738  0.35183  1.0000
  C   C229      1.0  0.11575  0.01833  0.42602  1.0000
  N   N55       1.0  0.11565  0.48823  0.42094  1.0000
  C   C230      1.0  0.10508  0.47199  0.37263  1.0000
  H   H115      1.0  0.12457  0.02783  0.46317  1.0000
  C   C231      1.0  0.89147  0.48840  0.44562  1.0000
  N   N56       1.0  0.89153  0.01852  0.44260  1.0000
  C   C232      1.0  0.90226  0.03520  0.39685  1.0000
  H   H116      1.0  0.88251  0.47856  0.48085  1.0000
  C   C233      1.0  0.61552  0.26844  0.42966  1.0000
  N   N57       1.0  0.61544  0.23834  0.42536  1.0000
  C   C234      1.0  0.60484  0.22196  0.37778  1.0000
  H   H117      1.0  0.62440  0.27809  0.46604  1.0000
  C   C235      1.0  0.39144  0.23832  0.44133  1.0000
  N   N58       1.0  0.39151  0.26844  0.43825  1.0000
  C   C236      1.0  0.40231  0.28512  0.39307  1.0000
  H   H118      1.0  0.38243  0.22849  0.47617  1.0000
  N   N59       1.0  0.99541  0.23088  0.36772  1.0000
  C   C237      1.0  0.01148  0.23033  0.36708  1.0000
  C   C238      1.0  0.02042  0.25350  0.32618  1.0000
  H   H119      1.0  0.01689  0.21290  0.39906  1.0000
  N   N60       1.0  0.49546  0.98062  0.36254  1.0000
  C   C239      1.0  0.51152  0.98003  0.36217  1.0000
  C   C240      1.0  0.52049  0.00333  0.32215  1.0000
  H   H120      1.0  0.51688  0.96255  0.39415  1.0000
  C   C241      1.0  0.25772  0.61171  0.26742  1.0000
  N   N61       1.0  0.24240  0.61968  0.27941  1.0000
  C   C242      1.0  0.23800  0.64031  0.34157  1.0000
  H   H121      1.0  0.26017  0.59551  0.22094  1.0000
  C   C243      1.0  0.74322  0.87012  0.26921  1.0000
  N   N62       1.0  0.75881  0.86364  0.26097  1.0000
  C   C244      1.0  0.76998  0.87430  0.31865  1.0000
  H   H122      1.0  0.73560  0.86230  0.22146  1.0000
  N   N63       1.0  0.75863  0.64230  0.27172  1.0000
  C   C245      1.0  0.74301  0.63630  0.28094  1.0000
  C   C246      1.0  0.73750  0.62012  0.35609  1.0000
  H   H123      1.0  0.73544  0.64329  0.23175  1.0000
  N   N64       1.0  0.24223  0.88626  0.28490  1.0000
  C   C247      1.0  0.25766  0.89337  0.27221  1.0000
  C   C248      1.0  0.26961  0.88198  0.32959  1.0000
  H   H124      1.0  0.26041  0.90787  0.22140  1.0000
  N   N65       1.0  0.29132  0.98695  0.28336  1.0000
  C   C249      1.0  0.29115  0.51710  0.27897  1.0000
  C   C250      1.0  0.30178  0.53411  0.33131  1.0000
  H   H125      1.0  0.28317  0.52703  0.23696  1.0000
  N   N66       1.0  0.69275  0.52009  0.32993  1.0000
  C   C251      1.0  0.69236  0.98984  0.32691  1.0000
  C   C252      1.0  0.70239  0.97284  0.38310  1.0000
  H   H126      1.0  0.68554  0.97991  0.27873  1.0000
  N   N67       1.0  0.79159  0.73688  0.26653  1.0000
  C   C253      1.0  0.79141  0.76706  0.26196  1.0000
  C   C254      1.0  0.80181  0.78412  0.31565  1.0000
  H   H127      1.0  0.78354  0.77699  0.21932  1.0000
  N   N68       1.0  0.19217  0.76999  0.34255  1.0000
  C   C255      1.0  0.19177  0.73974  0.34047  1.0000
  C   C256      1.0  0.20172  0.72292  0.39765  1.0000
  H   H128      1.0  0.18514  0.72970  0.29163  1.0000
  C   C257      1.0  0.34119  0.61925  0.24562  1.0000
  N   N69       1.0  0.35644  0.62789  0.25476  1.0000
  C   C258      1.0  0.36113  0.64800  0.31774  1.0000
  H   H129      1.0  0.33868  0.60310  0.19906  1.0000
  C   C259      1.0  0.66753  0.88804  0.25123  1.0000
  N   N70       1.0  0.65218  0.87946  0.25459  1.0000
  C   C260      1.0  0.64687  0.85836  0.31296  1.0000
  H   H130      1.0  0.67046  0.90528  0.20919  1.0000
  N   N71       1.0  0.65206  0.62910  0.26358  1.0000
  C   C261      1.0  0.66742  0.62075  0.25901  1.0000
  C   C262      1.0  0.67854  0.63165  0.32205  1.0000
  H   H131      1.0  0.67044  0.60430  0.21440  1.0000
  N   N72       1.0  0.35599  0.87768  0.27528  1.0000
  C   C263      1.0  0.34071  0.88600  0.26582  1.0000
  C   C264      1.0  0.32910  0.87622  0.32762  1.0000
  H   H132      1.0  0.33803  0.90122  0.21681  1.0000
  C   C265      1.0  0.84111  0.87077  0.24485  1.0000
  N   N73       1.0  0.85634  0.87930  0.25515  1.0000
  C   C266      1.0  0.86101  0.89836  0.32105  1.0000
  H   H133      1.0  0.83860  0.85547  0.19576  1.0000
  C   C267      1.0  0.16813  0.63849  0.25273  1.0000
  N   N74       1.0  0.15280  0.62978  0.25460  1.0000
  C   C268      1.0  0.14734  0.60847  0.31193  1.0000
  H   H134      1.0  0.17113  0.65596  0.21170  1.0000
  N   N75       1.0  0.15223  0.87813  0.25973  1.0000
  C   C269      1.0  0.16758  0.86958  0.25612  1.0000
  C   C270      1.0  0.17874  0.88118  0.31777  1.0000
  H   H135      1.0  0.17055  0.85250  0.21358  1.0000
  N   N76       1.0  0.85591  0.62638  0.27639  1.0000
  C   C271      1.0  0.84065  0.63461  0.26601  1.0000
  C   C272      1.0  0.82907  0.62612  0.32967  1.0000
  H   H136      1.0  0.83796  0.64887  0.21448  1.0000
  N   N77       1.0  0.08802  0.69993  0.31817  1.0000
  C   C273      1.0  0.09781  0.67605  0.31687  1.0000
  C   C274      1.0  0.09221  0.64594  0.31742  1.0000
  H   H137      1.0  0.10944  0.68151  0.32029  1.0000
  N   N78       1.0  0.94172  0.83724  0.33331  1.0000
  C   C275      1.0  0.93262  0.86271  0.33429  1.0000
  C   C276      1.0  0.91588  0.86154  0.34157  1.0000
  H   H138      1.0  0.93824  0.88272  0.32562  1.0000
  C   C277      1.0  0.93257  0.64409  0.34038  1.0000
  N   N79       1.0  0.94171  0.66951  0.33870  1.0000
  C   C278      1.0  0.93571  0.69786  0.34632  1.0000
  H   H139      1.0  0.93819  0.62405  0.33260  1.0000
  C   C279      1.0  0.07494  0.86312  0.31972  1.0000
  N   N80       1.0  0.06578  0.83771  0.32007  1.0000
  C   C280      1.0  0.07183  0.80933  0.32435  1.0000
  H   H140      1.0  0.06922  0.88317  0.31508  1.0000
  N   N81       1.0  0.58795  0.94958  0.33638  1.0000
  C   C281      1.0  0.59762  0.92552  0.33654  1.0000
  C   C282      1.0  0.59191  0.89573  0.32565  1.0000
  H   H141      1.0  0.60916  0.93019  0.34948  1.0000
  N   N82       1.0  0.44186  0.58712  0.33042  1.0000
  C   C283      1.0  0.43277  0.61259  0.33149  1.0000
  C   C284      1.0  0.41603  0.61142  0.33932  1.0000
  H   H142      1.0  0.43837  0.63259  0.32221  1.0000
  C   C285      1.0  0.43269  0.89400  0.33725  1.0000
  N   N83       1.0  0.44182  0.91943  0.33552  1.0000
  C   C286      1.0  0.43583  0.94776  0.34383  1.0000
  H   H143      1.0  0.43828  0.87397  0.32877  1.0000
  C   C287      1.0  0.57488  0.61300  0.32305  1.0000
  N   N84       1.0  0.56577  0.58754  0.32291  1.0000
  C   C288      1.0  0.57184  0.55925  0.33010  1.0000
  H   H144      1.0  0.56918  0.63299  0.31580  1.0000
  N   N85       1.0  0.09341  0.98816  0.33154  1.0000
  C   C289      1.0  0.09293  0.51899  0.33317  1.0000
  C   C290      1.0  0.10539  0.53580  0.37277  1.0000
  H   H145      1.0  0.08476  0.52947  0.29373  1.0000
  N   N86       1.0  0.91417  0.51944  0.35663  1.0000
  C   C291      1.0  0.91474  0.98861  0.35643  1.0000
  C   C292      1.0  0.90215  0.97142  0.39302  1.0000
  H   H146      1.0  0.92315  0.97846  0.31784  1.0000
  N   N87       1.0  0.59309  0.73793  0.33676  1.0000
  C   C293      1.0  0.59257  0.76875  0.33772  1.0000
  C   C294      1.0  0.60508  0.78568  0.37634  1.0000
  H   H147      1.0  0.58435  0.77912  0.29836  1.0000
  N   N88       1.0  0.41428  0.76934  0.35343  1.0000
  C   C295      1.0  0.41485  0.73851  0.35331  1.0000
  C   C296      1.0  0.40221  0.72132  0.38939  1.0000
  H   H148      1.0  0.42332  0.72835  0.31515  1.0000
  C   C297      1.0  0.01112  0.77661  0.28750  1.0000
  N   N89       1.0  0.99507  0.77595  0.29074  1.0000
  C   C298      1.0  0.98679  0.75335  0.33012  1.0000
  H   H149      1.0  0.01625  0.79412  0.25443  1.0000
  C   C299      1.0  0.51124  0.52655  0.28375  1.0000
  N   N90       1.0  0.49519  0.52591  0.28670  1.0000
  C   C300      1.0  0.48688  0.50320  0.32533  1.0000
  H   H150      1.0  0.51642  0.54419  0.25154  1.0000
  C   C301      1.0  0.30127  0.56582  0.32944  1.0000
  C   C302      1.0  0.31512  0.58301  0.32160  1.0000
  C   C303      1.0  0.31465  0.61460  0.31337  1.0000
  C   C304      1.0  0.29968  0.62901  0.31543  1.0000
  C   C305      1.0  0.28548  0.61213  0.32105  1.0000
  C   C306      1.0  0.28665  0.58077  0.33059  1.0000
  H   H151      1.0  0.29909  0.65181  0.30876  1.0000
  H   H152      1.0  0.27658  0.56837  0.33951  1.0000
  H   H153      1.0  0.32576  0.57210  0.32066  1.0000
  C   C307      1.0  0.70420  0.94155  0.37078  1.0000
  C   C308      1.0  0.69110  0.92299  0.35478  1.0000
  C   C309      1.0  0.69283  0.89247  0.33146  1.0000
  C   C310      1.0  0.70829  0.88014  0.32946  1.0000
  C   C311      1.0  0.72182  0.89815  0.34718  1.0000
  C   C312      1.0  0.71939  0.92888  0.36545  1.0000
  H   H154      1.0  0.70970  0.85798  0.31375  1.0000
  H   H155      1.0  0.72896  0.94281  0.37079  1.0000
  H   H156      1.0  0.68001  0.93210  0.35949  1.0000
  C   C313      1.0  0.70398  0.56624  0.37955  1.0000
  C   C314      1.0  0.69091  0.58442  0.35931  1.0000
  C   C315      1.0  0.69265  0.61524  0.34001  1.0000
  C   C316      1.0  0.70806  0.62780  0.34208  1.0000
  C   C317      1.0  0.72152  0.60988  0.36200  1.0000
  C   C318      1.0  0.71911  0.57918  0.38080  1.0000
  H   H157      1.0  0.70949  0.65004  0.32745  1.0000
  H   H158      1.0  0.72868  0.56539  0.38922  1.0000
  H   H159      1.0  0.67989  0.57488  0.35932  1.0000
  C   C319      1.0  0.30101  0.94046  0.33824  1.0000
  C   C320      1.0  0.31485  0.92316  0.33966  1.0000
  C   C321      1.0  0.31434  0.89153  0.33351  1.0000
  C   C322      1.0  0.29934  0.87723  0.33226  1.0000
  C   C323      1.0  0.28516  0.89431  0.33041  1.0000
  C   C324      1.0  0.28634  0.92583  0.33366  1.0000
  H   H160      1.0  0.29874  0.85437  0.32840  1.0000
  H   H161      1.0  0.27625  0.93854  0.33553  1.0000
  H   H162      1.0  0.32553  0.93397  0.34179  1.0000
  C   C325      1.0  0.80115  0.81582  0.31571  1.0000
  C   C326      1.0  0.81500  0.83322  0.31311  1.0000
  C   C327      1.0  0.81454  0.86492  0.31121  1.0000
  C   C328      1.0  0.79956  0.87921  0.31638  1.0000
  C   C329      1.0  0.78541  0.86213  0.31657  1.0000
  C   C330      1.0  0.78649  0.83061  0.31715  1.0000
  H   H163      1.0  0.79893  0.90211  0.31535  1.0000
  H   H164      1.0  0.77637  0.81808  0.32165  1.0000
  H   H165      1.0  0.82566  0.82240  0.31145  1.0000
  C   C331      1.0  0.20388  0.69174  0.38385  1.0000
  C   C332      1.0  0.19099  0.67292  0.36476  1.0000
  C   C333      1.0  0.19309  0.64302  0.33597  1.0000
  C   C334      1.0  0.20870  0.63158  0.32980  1.0000
  C   C335      1.0  0.22200  0.64981  0.35062  1.0000
  C   C336      1.0  0.21923  0.67978  0.37687  1.0000
  H   H166      1.0  0.21036  0.60996  0.30895  1.0000
  H   H167      1.0  0.22864  0.69392  0.38553  1.0000
  H   H168      1.0  0.17980  0.68147  0.37050  1.0000
  C   C337      1.0  0.20348  0.81628  0.38896  1.0000
  C   C338      1.0  0.19062  0.83441  0.36446  1.0000
  C   C339      1.0  0.19268  0.86460  0.33836  1.0000
  C   C340      1.0  0.20824  0.87647  0.33654  1.0000
  C   C341      1.0  0.22148  0.85859  0.36088  1.0000
  C   C342      1.0  0.21874  0.82872  0.38822  1.0000
  H   H169      1.0  0.20992  0.89817  0.31645  1.0000
  H   H170      1.0  0.22815  0.81490  0.40077  1.0000
  H   H171      1.0  0.17950  0.82531  0.36602  1.0000
  C   C343      1.0  0.80104  0.69055  0.32546  1.0000
  C   C344      1.0  0.81484  0.67325  0.33188  1.0000
  C   C345      1.0  0.81431  0.64156  0.33280  1.0000
  C   C346      1.0  0.79928  0.62738  0.33535  1.0000
  C   C347      1.0  0.78519  0.64450  0.32845  1.0000
  C   C348      1.0  0.78635  0.67595  0.32243  1.0000
  H   H172      1.0  0.79862  0.60449  0.33757  1.0000
  H   H173      1.0  0.77626  0.68867  0.32020  1.0000
  H   H174      1.0  0.82553  0.68405  0.33275  1.0000
  C   C349      1.0  0.13082  0.60230  0.31898  1.0000
  C   C350      1.0  0.11932  0.62462  0.30479  1.0000
  C   C351      1.0  0.10280  0.62045  0.31912  1.0000
  C   C352      1.0  0.09815  0.59007  0.33693  1.0000
  C   C353      1.0  0.10919  0.56647  0.35343  1.0000
  C   C354      1.0  0.12546  0.57393  0.34549  1.0000
  H   H175      1.0  0.08649  0.58525  0.34615  1.0000
  H   H176      1.0  0.13385  0.55752  0.35026  1.0000
  H   H177      1.0  0.12354  0.64475  0.28345  1.0000
  C   C355      1.0  0.87735  0.90460  0.33413  1.0000
  C   C356      1.0  0.88895  0.88230  0.32358  1.0000
  C   C357      1.0  0.90533  0.88694  0.34075  1.0000
  C   C358      1.0  0.90987  0.91741  0.35738  1.0000
  C   C359      1.0  0.89860  0.94078  0.37224  1.0000
  C   C360      1.0  0.88241  0.93309  0.36130  1.0000
  H   H178      1.0  0.92146  0.92221  0.36934  1.0000
  H   H179      1.0  0.87392  0.94940  0.36409  1.0000
  H   H180      1.0  0.88506  0.86192  0.30176  1.0000
  C   C361      1.0  0.87721  0.60261  0.35600  1.0000
  C   C362      1.0  0.88874  0.62457  0.33856  1.0000
  C   C363      1.0  0.90527  0.61990  0.35020  1.0000
  C   C364      1.0  0.90986  0.58928  0.36372  1.0000
  C   C365      1.0  0.89870  0.56615  0.38329  1.0000
  C   C366      1.0  0.88246  0.57432  0.38400  1.0000
  H   H181      1.0  0.92155  0.58401  0.36855  1.0000
  H   H182      1.0  0.87393  0.55837  0.39362  1.0000
  H   H183      1.0  0.88466  0.64475  0.31641  1.0000
  C   C367      1.0  0.13035  0.90512  0.32681  1.0000
  C   C368      1.0  0.11882  0.88305  0.30999  1.0000
  C   C369      1.0  0.10229  0.88744  0.32300  1.0000
  C   C370      1.0  0.09762  0.91797  0.33769  1.0000
  C   C371      1.0  0.10872  0.94122  0.35664  1.0000
  C   C372      1.0  0.12499  0.93331  0.35529  1.0000
  H   H184      1.0  0.08592  0.92307  0.34382  1.0000
  H   H185      1.0  0.13344  0.94941  0.36497  1.0000
  H   H186      1.0  0.12294  0.86292  0.28794  1.0000
  C   C373      1.0  0.63039  0.85222  0.32134  1.0000
  C   C374      1.0  0.61889  0.87471  0.30991  1.0000
  C   C375      1.0  0.60242  0.87027  0.32511  1.0000
  C   C376      1.0  0.59773  0.83984  0.34098  1.0000
  C   C377      1.0  0.60883  0.81627  0.35616  1.0000
  C   C378      1.0  0.62508  0.82371  0.34687  1.0000
  H   H187      1.0  0.58608  0.83516  0.35165  1.0000
  H   H188      1.0  0.63347  0.80726  0.35037  1.0000
  H   H189      1.0  0.62295  0.89508  0.28936  1.0000
  C   C379      1.0  0.37748  0.65436  0.33045  1.0000
  C   C380      1.0  0.38911  0.63206  0.32073  1.0000
  C   C381      1.0  0.40547  0.63679  0.33809  1.0000
  C   C382      1.0  0.40998  0.66728  0.35451  1.0000
  C   C383      1.0  0.39870  0.69066  0.36856  1.0000
  C   C384      1.0  0.38252  0.68293  0.35707  1.0000
  H   H190      1.0  0.42157  0.67212  0.36649  1.0000
  H   H191      1.0  0.37403  0.69923  0.35930  1.0000
  H   H192      1.0  0.38526  0.61162  0.29929  1.0000
  C   C385      1.0  0.37729  0.85260  0.35178  1.0000
  C   C386      1.0  0.38886  0.87458  0.33529  1.0000
  C   C387      1.0  0.40538  0.86985  0.34721  1.0000
  C   C388      1.0  0.40995  0.83921  0.36054  1.0000
  C   C389      1.0  0.39877  0.81606  0.37937  1.0000
  C   C390      1.0  0.38253  0.82425  0.37934  1.0000
  H   H193      1.0  0.42164  0.83393  0.36550  1.0000
  H   H194      1.0  0.37398  0.80829  0.38844  1.0000
  H   H195      1.0  0.38483  0.89485  0.31351  1.0000
  C   C391      1.0  0.63018  0.65513  0.33321  1.0000
  C   C392      1.0  0.61869  0.63296  0.31672  1.0000
  C   C393      1.0  0.60216  0.63739  0.32929  1.0000
  C   C394      1.0  0.59744  0.66791  0.34333  1.0000
  C   C395      1.0  0.60852  0.69119  0.36229  1.0000
  C   C396      1.0  0.62479  0.68336  0.36108  1.0000
  H   H196      1.0  0.58574  0.67299  0.34925  1.0000
  H   H197      1.0  0.63323  0.69948  0.37078  1.0000
  H   H198      1.0  0.62283  0.61276  0.29515  1.0000
  C   C397      1.0  0.06311  0.72557  0.32135  1.0000
  C   C398      1.0  0.07087  0.75383  0.32242  1.0000
  C   C399      1.0  0.06301  0.78198  0.32395  1.0000
  C   C400      1.0  0.04628  0.78096  0.32495  1.0000
  C   C401      1.0  0.03756  0.75361  0.32440  1.0000
  C   C402      1.0  0.04638  0.72637  0.32223  1.0000
  H   H199      1.0  0.04034  0.80085  0.32890  1.0000
  H   H200      1.0  0.04049  0.70640  0.31919  1.0000
  H   H201      1.0  0.08292  0.75393  0.32132  1.0000
  C   C403      1.0  0.94451  0.78162  0.34013  1.0000
  C   C404      1.0  0.93673  0.75342  0.34571  1.0000
  C   C405      1.0  0.94454  0.72518  0.34355  1.0000
  C   C406      1.0  0.96124  0.72603  0.33805  1.0000
  C   C407      1.0  0.96985  0.75337  0.33327  1.0000
  C   C408      1.0  0.96120  0.78073  0.33276  1.0000
  H   H202      1.0  0.96728  0.70617  0.33686  1.0000
  H   H203      1.0  0.96723  0.80057  0.32998  1.0000
  H   H204      1.0  0.92470  0.75343  0.34966  1.0000
  C   C409      1.0  0.56317  0.97553  0.32598  1.0000
  C   C410      1.0  0.57092  0.50375  0.33025  1.0000
  C   C411      1.0  0.56304  0.53189  0.32860  1.0000
  C   C412      1.0  0.54633  0.53089  0.32511  1.0000
  C   C413      1.0  0.53763  0.00353  0.32228  1.0000
  C   C414      1.0  0.54647  0.97633  0.32105  1.0000
  H   H205      1.0  0.54035  0.55077  0.32771  1.0000
  H   H206      1.0  0.54061  0.95638  0.31611  1.0000
  H   H207      1.0  0.58297  0.50382  0.33258  1.0000
  C   C415      1.0  0.44464  0.53151  0.33747  1.0000
  C   C416      1.0  0.43686  0.00332  0.34356  1.0000
  C   C417      1.0  0.44465  0.97508  0.34075  1.0000
  C   C418      1.0  0.46133  0.97591  0.33415  1.0000
  C   C419      1.0  0.46994  0.50325  0.32898  1.0000
  C   C420      1.0  0.46131  0.53061  0.32911  1.0000
  H   H208      1.0  0.46736  0.95604  0.33254  1.0000
  H   H209      1.0  0.46734  0.55045  0.32601  1.0000
  H   H210      1.0  0.42483  0.00334  0.34824  1.0000
  N   N91       1.0  0.24966  0.65320  0.39175  1.0000
  C   C421      1.0  0.26517  0.64621  0.38330  1.0000
  C   C422      1.0  0.26995  0.62456  0.32003  1.0000
  H   H211      1.0  0.27312  0.65581  0.42622  1.0000
  N   N92       1.0  0.76510  0.89076  0.38992  1.0000
  C   C423      1.0  0.74967  0.89793  0.40185  1.0000
  C   C424      1.0  0.73783  0.88790  0.34133  1.0000
  H   H212      1.0  0.74679  0.91056  0.45671  1.0000
  C   C425      1.0  0.74925  0.61086  0.41814  1.0000
  N   N93       1.0  0.76472  0.61750  0.40510  1.0000
  C   C426      1.0  0.76972  0.63253  0.33121  1.0000
  H   H213      1.0  0.74628  0.59918  0.47469  1.0000
  C   C427      1.0  0.26444  0.86287  0.39895  1.0000
  N   N94       1.0  0.24884  0.85661  0.40790  1.0000
  C   C428      1.0  0.23747  0.86809  0.35285  1.0000
  H   H214      1.0  0.27215  0.85465  0.44566  1.0000
  C   C429      1.0  0.31270  0.51795  0.38434  1.0000
  N   N95       1.0  0.31233  0.98759  0.38558  1.0000
  C   C430      1.0  0.30166  0.97190  0.33629  1.0000
  H   H215      1.0  0.32068  0.52872  0.42438  1.0000
  C   C431      1.0  0.71186  0.98897  0.44448  1.0000
  N   N96       1.0  0.71178  0.51925  0.44392  1.0000
  C   C432      1.0  0.70227  0.53506  0.38792  1.0000
  H   H216      1.0  0.71947  0.97827  0.48703  1.0000
  C   C433      1.0  0.81249  0.76803  0.37040  1.0000
  N   N97       1.0  0.81214  0.73770  0.37177  1.0000
  C   C434      1.0  0.80177  0.72194  0.32075  1.0000
  H   H217      1.0  0.82020  0.77880  0.41213  1.0000
  C   C435      1.0  0.21103  0.73928  0.45929  1.0000
  N   N98       1.0  0.21095  0.76959  0.45769  1.0000
  C   C436      1.0  0.20152  0.78522  0.40077  1.0000
  H   H218      1.0  0.21865  0.72874  0.50206  1.0000
  N   N99       1.0  0.34986  0.65967  0.37300  1.0000
  C   C437      1.0  0.33437  0.65168  0.36793  1.0000
  C   C438      1.0  0.32941  0.62992  0.30507  1.0000
  H   H219      1.0  0.32674  0.65976  0.41525  1.0000
  N   N100      1.0  0.65759  0.84579  0.36995  1.0000
  C   C439      1.0  0.67312  0.85364  0.37078  1.0000
  C   C440      1.0  0.67870  0.87624  0.31257  1.0000
  H   H220      1.0  0.68023  0.84501  0.41983  1.0000
  C   C441      1.0  0.67288  0.65320  0.38357  1.0000
  N   N101      1.0  0.65733  0.66085  0.38398  1.0000
  C   C442      1.0  0.64666  0.64906  0.32524  1.0000
  H   H221      1.0  0.67992  0.66103  0.43411  1.0000
  C   C443      1.0  0.33424  0.85569  0.39363  1.0000
  N   N102      1.0  0.34978  0.84798  0.39899  1.0000
  C   C444      1.0  0.36089  0.85885  0.34127  1.0000
  H   H222      1.0  0.32672  0.84839  0.44260  1.0000
  N   N103      1.0  0.84974  0.90909  0.37801  1.0000
  C   C445      1.0  0.83426  0.90109  0.37188  1.0000
  C   C446      1.0  0.82932  0.88034  0.30599  1.0000
  H   H223      1.0  0.82661  0.90838  0.42028  1.0000
  N   N104      1.0  0.15794  0.59589  0.36966  1.0000
  C   C447      1.0  0.17345  0.60385  0.37196  1.0000
  C   C448      1.0  0.17917  0.62654  0.31447  1.0000
  H   H224      1.0  0.18043  0.59520  0.42157  1.0000
  C   C449      1.0  0.17309  0.90345  0.37700  1.0000
  N   N105      1.0  0.15756  0.91122  0.37659  1.0000
  C   C450      1.0  0.14684  0.89889  0.31909  1.0000
  H   H225      1.0  0.18014  0.91177  0.42683  1.0000
  C   C451      1.0  0.83422  0.60676  0.39877  1.0000
  N   N106      1.0  0.84974  0.59900  0.40495  1.0000
  C   C452      1.0  0.86082  0.60876  0.34525  1.0000
  H   H226      1.0  0.82671  0.60039  0.44898  1.0000
  C   C453      1.0  0.07540  0.64459  0.32061  1.0000
  N   N107      1.0  0.06612  0.66984  0.32107  1.0000
  C   C454      1.0  0.07205  0.69834  0.31965  1.0000
  H   H227      1.0  0.06970  0.62447  0.32140  1.0000
  C   C455      1.0  0.91017  0.83181  0.35349  1.0000
  N   N108      1.0  0.91981  0.80771  0.35295  1.0000
  C   C456      1.0  0.93568  0.80895  0.34165  1.0000
  H   H228      1.0  0.89865  0.82726  0.36758  1.0000
  N   N109      1.0  0.91985  0.69920  0.35768  1.0000
  C   C457      1.0  0.91019  0.67515  0.35940  1.0000
  C   C458      1.0  0.91583  0.64531  0.34831  1.0000
  H   H229      1.0  0.89871  0.67993  0.37359  1.0000
  N   N110      1.0  0.08779  0.80799  0.33007  1.0000
  C   C459      1.0  0.09746  0.83202  0.32969  1.0000
  C   C460      1.0  0.09175  0.86194  0.32236  1.0000
  H   H230      1.0  0.10905  0.82706  0.33958  1.0000
  C   C461      1.0  0.57514  0.89455  0.31931  1.0000
  N   N111      1.0  0.56602  0.91996  0.31890  1.0000
  C   C462      1.0  0.57206  0.94827  0.32651  1.0000
  H   H231      1.0  0.56949  0.87455  0.31129  1.0000
  C   C463      1.0  0.41033  0.58172  0.35211  1.0000
  N   N112      1.0  0.41997  0.55762  0.35148  1.0000
  C   C464      1.0  0.43582  0.55885  0.33937  1.0000
  H   H232      1.0  0.39883  0.57722  0.36677  1.0000
  N   N113      1.0  0.41999  0.94909  0.35605  1.0000
  C   C465      1.0  0.41033  0.92503  0.35781  1.0000
  C   C466      1.0  0.41595  0.89523  0.34572  1.0000
  H   H233      1.0  0.39887  0.92976  0.37263  1.0000
  N   N114      1.0  0.58775  0.55801  0.33923  1.0000
  C   C467      1.0  0.59739  0.58210  0.33930  1.0000
  C   C468      1.0  0.59165  0.61189  0.32877  1.0000
  H   H234      1.0  0.60893  0.57739  0.35183  1.0000
  C   C469      1.0  0.11575  0.51833  0.42602  1.0000
  N   N115      1.0  0.11565  0.98823  0.42094  1.0000
  C   C470      1.0  0.10508  0.97199  0.37263  1.0000
  H   H235      1.0  0.12457  0.52783  0.46317  1.0000
  C   C471      1.0  0.89147  0.98841  0.44562  1.0000
  N   N116      1.0  0.89153  0.51852  0.44260  1.0000
  C   C472      1.0  0.90226  0.53521  0.39685  1.0000
  H   H236      1.0  0.88251  0.97856  0.48085  1.0000
  C   C473      1.0  0.61552  0.76844  0.42966  1.0000
  N   N117      1.0  0.61544  0.73834  0.42536  1.0000
  C   C474      1.0  0.60484  0.72196  0.37778  1.0000
  H   H237      1.0  0.62440  0.77809  0.46604  1.0000
  C   C475      1.0  0.39144  0.73832  0.44133  1.0000
  N   N118      1.0  0.39151  0.76844  0.43825  1.0000
  C   C476      1.0  0.40231  0.78512  0.39307  1.0000
  H   H238      1.0  0.38243  0.72849  0.47617  1.0000
  N   N119      1.0  0.99541  0.73088  0.36772  1.0000
  C   C477      1.0  0.01148  0.73033  0.36708  1.0000
  C   C478      1.0  0.02042  0.75350  0.32618  1.0000
  H   H239      1.0  0.01689  0.71290  0.39906  1.0000
  N   N120      1.0  0.49546  0.48061  0.36254  1.0000
  C   C479      1.0  0.51152  0.48003  0.36217  1.0000
  C   C480      1.0  0.52049  0.50333  0.32215  1.0000
  H   H240      1.0  0.51688  0.46255  0.39415  1.0000
