data_image0
_chemical_formula_structural       C8HC6HO2CNCHNHCNCHNHC7HOC4HC4O2C4HC6HO2CNCHNHCHC5HOC3HC4H2C6H3C6H3C6H3C6H3CNCHNHCNCHNHC4HC6HO2C4HC6HO2CNHCNHNCNCHNHC4HC6HO2C2HCNHC2HC4HO2C4HC6HO2CNCHNHC3HOC4HC6HO2C4HC6HO2C2HC4HC6HO2CNCHNHCNCHNHCNCHNHCNCHNHCNHNC4HC6HO2C4HC6HO2C4HC6HO2C4HCOC4HC6HO2C4HC6HO2C3H2C2HC6H3C6H3C6H3C6H3C6H3C6H3C6H3C6H3C6H3C6H3CNCHNHC4HC6HO2CNHCNCHNHCNCHNHCHCNCHNHC4HC6HO2C4HC6HO2C4HC6HO2C4HC6HO2C4HC4O2CNCHNHCNCHNHCNCHNHCNHCNCHNHCNCHNH
_chemical_formula_sum              "C384 H144 O48 N48"
_cell_length_a       62.7881
_cell_length_b       62.788
_cell_length_c       14.8406
_cell_angle_alpha    90
_cell_angle_beta     90
_cell_angle_gamma    120

_space_group_name_H-M_alt    "P 1"
_space_group_IT_number       1

loop_
  _space_group_symop_operation_xyz
  'x, y, z'

loop_
  _atom_site_type_symbol
  _atom_site_label
  _atom_site_symmetry_multiplicity
  _atom_site_fract_x
  _atom_site_fract_y
  _atom_site_fract_z
  _atom_site_occupancy
  C   C1        1.0  0.00809  0.05103  0.34204  1.0000
  C   C2        1.0  0.00811  0.09647  0.34005  1.0000
  C   C3        1.0  0.00810  0.11915  0.34007  1.0000
  C   C4        1.0  0.00807  0.16454  0.34201  1.0000
  C   C5        1.0  0.05367  0.00533  0.34203  1.0000
  C   C6        1.0  0.09909  0.00531  0.34005  1.0000
  C   C7        1.0  0.08775  0.00550  0.25717  1.0000
  C   C8        1.0  0.06511  0.00551  0.25966  1.0000
  H   H1        1.0  0.05673  0.00565  0.20068  1.0000
  C   C9        1.0  0.12178  0.00532  0.34006  1.0000
  C   C10       1.0  0.16720  0.00536  0.34201  1.0000
  C   C11       1.0  0.15598  0.00558  0.25964  1.0000
  C   C12       1.0  0.13333  0.00553  0.25719  1.0000
  C   C13       1.0  0.12187  0.00570  0.17527  1.0000
  C   C14       1.0  0.09939  0.00568  0.17527  1.0000
  H   H2        1.0  0.16452  0.00574  0.20066  1.0000
  O   O1        1.0  0.13224  0.00587  0.09500  1.0000
  O   O2        1.0  0.08919  0.00582  0.09496  1.0000
  C   C15       1.0  0.13873  0.36678  0.26845  1.0000
  N   N1        1.0  0.12095  0.34269  0.27280  1.0000
  C   C16       1.0  0.06474  0.26887  0.26919  1.0000
  H   H3        1.0  0.14564  0.37438  0.20684  1.0000
  N   N2        1.0  0.08319  0.29270  0.27318  1.0000
  H   H4        1.0  0.05902  0.26075  0.20746  1.0000
  C   C17       1.0  0.23880  0.87471  0.26845  1.0000
  N   N3        1.0  0.23249  0.89248  0.27280  1.0000
  C   C18       1.0  0.21487  0.94868  0.26919  1.0000
  H   H5        1.0  0.23950  0.86780  0.20684  1.0000
  N   N4        1.0  0.22026  0.93024  0.27318  1.0000
  H   H6        1.0  0.21247  0.95440  0.20746  1.0000
  C   C19       1.0  0.33345  0.10755  0.33666  1.0000
  C   C20       1.0  0.30837  0.08878  0.33645  1.0000
  C   C21       1.0  0.25875  0.05014  0.33922  1.0000
  C   C22       1.0  0.27163  0.05833  0.25680  1.0000
  C   C23       1.0  0.29642  0.07770  0.25390  1.0000
  C   C24       1.0  0.30977  0.08587  0.17229  1.0000
  C   C25       1.0  0.33469  0.10453  0.17249  1.0000
  H   H7        1.0  0.26300  0.04945  0.19858  1.0000
  O   O3        1.0  0.29901  0.07578  0.09237  1.0000
  C   C26       1.0  0.23365  0.44843  0.33862  1.0000
  C   C27       1.0  0.28543  0.47178  0.33651  1.0000
  C   C28       1.0  0.27246  0.46631  0.25337  1.0000
  C   C29       1.0  0.24647  0.45470  0.25588  1.0000
  H   H8        1.0  0.23673  0.45125  0.19712  1.0000
  C   C30       1.0  0.31143  0.48394  0.33715  1.0000
  C   C31       1.0  0.32474  0.49062  0.25463  1.0000
  C   C32       1.0  0.31172  0.48496  0.17220  1.0000
  C   C33       1.0  0.28582  0.47299  0.17159  1.0000
  O   O4        1.0  0.32380  0.49102  0.09233  1.0000
  O   O5        1.0  0.27407  0.46811  0.09117  1.0000
  C   C34       1.0  0.22550  0.77978  0.33862  1.0000
  C   C35       1.0  0.19710  0.72799  0.33651  1.0000
  C   C36       1.0  0.20459  0.74097  0.25336  1.0000
  C   C37       1.0  0.21895  0.76696  0.25588  1.0000
  H   H9        1.0  0.22524  0.77669  0.19713  1.0000
  C   C38       1.0  0.18326  0.70200  0.33713  1.0000
  C   C39       1.0  0.15563  0.65021  0.34168  1.0000
  C   C40       1.0  0.16267  0.66268  0.25830  1.0000
  C   C41       1.0  0.17662  0.68868  0.25460  1.0000
  C   C42       1.0  0.18399  0.70171  0.17217  1.0000
  C   C43       1.0  0.19792  0.72761  0.17158  1.0000
  H   H10       1.0  0.15731  0.65266  0.19990  1.0000
  O   O6        1.0  0.17796  0.68964  0.09230  1.0000
  O   O7        1.0  0.20477  0.73936  0.09116  1.0000
  C   C44       1.0  0.14702  0.55614  0.26911  1.0000
  N   N5        1.0  0.15199  0.53747  0.27338  1.0000
  C   C45       1.0  0.16630  0.47950  0.26838  1.0000
  H   H11       1.0  0.14521  0.56226  0.20729  1.0000
  N   N6        1.0  0.16170  0.49841  0.27301  1.0000
  H   H12       1.0  0.16906  0.47407  0.20663  1.0000
  C   C46       1.0  0.32393  0.84711  0.26839  1.0000
  H   H13       1.0  0.31573  0.84434  0.20664  1.0000
  C   C47       1.0  0.02103  0.55392  0.33548  1.0000
  C   C48       1.0  0.07263  0.57837  0.34007  1.0000
  C   C49       1.0  0.06017  0.57079  0.25686  1.0000
  C   C50       1.0  0.03420  0.55851  0.25312  1.0000
  C   C51       1.0  0.02107  0.55028  0.17112  1.0000
  H   H14       1.0  0.07015  0.57385  0.19891  1.0000
  O   O8        1.0  0.03305  0.55439  0.09145  1.0000
  C   C52       1.0  0.00807  0.02817  0.34420  1.0000
  C   C53       1.0  0.03045  0.02775  0.34401  1.0000
  C   C54       1.0  0.03083  0.00535  0.34419  1.0000
  H   H15       1.0  0.04677  0.04406  0.34323  1.0000
  C   C55       1.0  0.03074  0.23285  0.34522  1.0000
  C   C56       1.0  0.00807  0.23250  0.34416  1.0000
  C   C57       1.0  0.00806  0.18736  0.34398  1.0000
  C   C58       1.0  0.03050  0.21015  0.34507  1.0000
  H   H16       1.0  0.04685  0.21024  0.34599  1.0000
  H   H17       1.0  0.00808  0.24885  0.34421  1.0000
  C   C59       1.0  0.21284  0.98268  0.34521  1.0000
  C   C60       1.0  0.23516  0.00535  0.34416  1.0000
  C   C61       1.0  0.23553  0.02802  0.34281  1.0000
  C   C62       1.0  0.21283  0.02779  0.34261  1.0000
  C   C63       1.0  0.19003  0.00536  0.34397  1.0000
  C   C64       1.0  0.19039  0.98293  0.34507  1.0000
  H   H18       1.0  0.21294  0.04414  0.34083  1.0000
  H   H19       1.0  0.17413  0.96657  0.34599  1.0000
  H   H20       1.0  0.25150  0.00534  0.34421  1.0000
  C   C65       1.0  0.17484  0.44984  0.34508  1.0000
  C   C66       1.0  0.20010  0.45735  0.34223  1.0000
  C   C67       1.0  0.20806  0.43993  0.34114  1.0000
  C   C68       1.0  0.19031  0.41457  0.34169  1.0000
  C   C69       1.0  0.16486  0.40659  0.34465  1.0000
  C   C70       1.0  0.15735  0.42443  0.34720  1.0000
  H   H21       1.0  0.19599  0.40185  0.34081  1.0000
  H   H22       1.0  0.13900  0.41890  0.34995  1.0000
  H   H23       1.0  0.21287  0.47576  0.34163  1.0000
  C   C71       1.0  0.28573  0.83857  0.34512  1.0000
  C   C72       1.0  0.26797  0.81331  0.34226  1.0000
  C   C73       1.0  0.24260  0.80537  0.34114  1.0000
  C   C74       1.0  0.23500  0.82312  0.34171  1.0000
  C   C75       1.0  0.25248  0.84858  0.34465  1.0000
  C   C76       1.0  0.27782  0.85607  0.34722  1.0000
  H   H24       1.0  0.21661  0.81746  0.34080  1.0000
  H   H25       1.0  0.29064  0.87442  0.34996  1.0000
  H   H26       1.0  0.27360  0.80054  0.34165  1.0000
  C   C77       1.0  0.09839  0.58859  0.34408  1.0000
  C   C78       1.0  0.10840  0.57287  0.34496  1.0000
  C   C79       1.0  0.13411  0.58254  0.34587  1.0000
  C   C80       1.0  0.14989  0.60834  0.34563  1.0000
  C   C81       1.0  0.14010  0.62434  0.34482  1.0000
  C   C82       1.0  0.11431  0.61428  0.34397  1.0000
  H   H27       1.0  0.16855  0.61549  0.34606  1.0000
  H   H28       1.0  0.10706  0.62572  0.34210  1.0000
  H   H29       1.0  0.09684  0.55418  0.34488  1.0000
  C   C83       1.0  0.00828  0.06342  0.42182  1.0000
  N   N7        1.0  0.00828  0.08511  0.41813  1.0000
  C   C84       1.0  0.00832  0.15240  0.42183  1.0000
  H   H30       1.0  0.00842  0.05625  0.48350  1.0000
  N   N8        1.0  0.00831  0.13070  0.41815  1.0000
  H   H31       1.0  0.00849  0.15973  0.48350  1.0000
  C   C85       1.0  0.06586  0.00513  0.42181  1.0000
  N   N9        1.0  0.08756  0.00513  0.41812  1.0000
  C   C86       1.0  0.15480  0.00509  0.42183  1.0000
  H   H32       1.0  0.05856  0.00499  0.48350  1.0000
  N   N10       1.0  0.13312  0.00511  0.41815  1.0000
  H   H33       1.0  0.16197  0.00493  0.48350  1.0000
  C   C87       1.0  0.14703  0.38110  0.34763  1.0000
  C   C88       1.0  0.11027  0.33078  0.35106  1.0000
  C   C89       1.0  0.11804  0.34418  0.43333  1.0000
  C   C90       1.0  0.13639  0.36938  0.43014  1.0000
  H   H34       1.0  0.14206  0.37945  0.48840  1.0000
  C   C91       1.0  0.09150  0.30570  0.35128  1.0000
  C   C92       1.0  0.05287  0.25605  0.34866  1.0000
  C   C93       1.0  0.06097  0.26902  0.43094  1.0000
  C   C94       1.0  0.08034  0.29380  0.43380  1.0000
  C   C95       1.0  0.08841  0.30719  0.51535  1.0000
  C   C96       1.0  0.10706  0.33210  0.51514  1.0000
  H   H35       1.0  0.05204  0.26043  0.48915  1.0000
  O   O9        1.0  0.07823  0.29647  0.59522  1.0000
  O   O10       1.0  0.11405  0.34424  0.59480  1.0000
  C   C97       1.0  0.24483  0.86642  0.34764  1.0000
  C   C98       1.0  0.23126  0.90316  0.35106  1.0000
  C   C99       1.0  0.23690  0.89540  0.43334  1.0000
  C   C100      1.0  0.24375  0.87705  0.43015  1.0000
  H   H36       1.0  0.24814  0.87138  0.48840  1.0000
  C   C101      1.0  0.22494  0.92193  0.35128  1.0000
  C   C102      1.0  0.21391  0.96055  0.34866  1.0000
  C   C103      1.0  0.21879  0.95246  0.43094  1.0000
  C   C104      1.0  0.22420  0.93309  0.43380  1.0000
  C   C105      1.0  0.22952  0.92502  0.51535  1.0000
  C   C106      1.0  0.23579  0.90637  0.51514  1.0000
  H   H37       1.0  0.21913  0.96138  0.48914  1.0000
  O   O11       1.0  0.22898  0.93520  0.59522  1.0000
  O   O12       1.0  0.24093  0.89938  0.59480  1.0000
  C   C107      1.0  0.27160  0.06194  0.41869  1.0000
  N   N11       1.0  0.29543  0.08039  0.41462  1.0000
  H   H38       1.0  0.26353  0.05616  0.48046  1.0000
  C   C108      1.0  0.24755  0.45427  0.41875  1.0000
  N   N12       1.0  0.27246  0.46554  0.41496  1.0000
  H   H39       1.0  0.23920  0.45081  0.48040  1.0000
  N   N13       1.0  0.32408  0.48939  0.41621  1.0000
  C   C109      1.0  0.21746  0.76587  0.41874  1.0000
  N   N14       1.0  0.20383  0.74096  0.41495  1.0000
  C   C110      1.0  0.16272  0.66443  0.42116  1.0000
  H   H40       1.0  0.22235  0.77422  0.48039  1.0000
  N   N15       1.0  0.17605  0.68934  0.41619  1.0000
  H   H41       1.0  0.15769  0.65628  0.48311  1.0000
  C   C111      1.0  0.14323  0.56599  0.34895  1.0000
  C   C112      1.0  0.15370  0.52727  0.35203  1.0000
  C   C113      1.0  0.15020  0.53649  0.43490  1.0000
  C   C114      1.0  0.14484  0.55586  0.43189  1.0000
  H   H42       1.0  0.14136  0.56225  0.49036  1.0000
  C   C115      1.0  0.15835  0.50743  0.35183  1.0000
  C   C116      1.0  0.16768  0.46795  0.34794  1.0000
  C   C117      1.0  0.16442  0.47687  0.43109  1.0000
  C   C118      1.0  0.15967  0.49666  0.43447  1.0000
  C   C119      1.0  0.15641  0.50609  0.51666  1.0000
  C   C120      1.0  0.15165  0.52578  0.51686  1.0000
  H   H43       1.0  0.16596  0.46910  0.48961  1.0000
  O   O13       1.0  0.15766  0.49637  0.59667  1.0000
  O   O14       1.0  0.14842  0.53412  0.59702  1.0000
  C   C121      1.0  0.31100  0.84572  0.34795  1.0000
  C   C122      1.0  0.32319  0.84899  0.43111  1.0000
  H   H44       1.0  0.31388  0.84745  0.48963  1.0000
  C   C123      1.0  0.05858  0.57347  0.41936  1.0000
  N   N16       1.0  0.03369  0.56155  0.41438  1.0000
  H   H45       1.0  0.06680  0.57821  0.48126  1.0000
  C   C124      1.0  0.00792  0.08493  0.25717  1.0000
  C   C125      1.0  0.00791  0.06229  0.25966  1.0000
  H   H46       1.0  0.00777  0.05377  0.20068  1.0000
  C   C126      1.0  0.00785  0.15310  0.25964  1.0000
  C   C127      1.0  0.00789  0.13048  0.25719  1.0000
  C   C128      1.0  0.00773  0.11886  0.17527  1.0000
  C   C129      1.0  0.00775  0.09640  0.17527  1.0000
  H   H47       1.0  0.00769  0.16147  0.20066  1.0000
  O   O15       1.0  0.00756  0.12907  0.09500  1.0000
  O   O16       1.0  0.00760  0.08606  0.09497  1.0000
  C   C130      1.0  0.96238  0.95974  0.34204  1.0000
  C   C131      1.0  0.91695  0.91433  0.34006  1.0000
  C   C132      1.0  0.92848  0.92567  0.25718  1.0000
  C   C133      1.0  0.95113  0.94831  0.25966  1.0000
  H   H48       1.0  0.95966  0.95669  0.20068  1.0000
  C   C134      1.0  0.89426  0.89164  0.34008  1.0000
  C   C135      1.0  0.84888  0.84622  0.34203  1.0000
  C   C136      1.0  0.86032  0.85744  0.25966  1.0000
  C   C137      1.0  0.88294  0.88009  0.25720  1.0000
  C   C138      1.0  0.89456  0.89155  0.17528  1.0000
  C   C139      1.0  0.91702  0.91403  0.17528  1.0000
  H   H49       1.0  0.85195  0.84890  0.20068  1.0000
  O   O17       1.0  0.88436  0.88117  0.09502  1.0000
  O   O18       1.0  0.92737  0.92422  0.09497  1.0000
  C   C140      1.0  0.64664  0.77461  0.26846  1.0000
  N   N17       1.0  0.67073  0.78093  0.27282  1.0000
  C   C141      1.0  0.74456  0.79857  0.26918  1.0000
  H   H50       1.0  0.63904  0.77393  0.20686  1.0000
  N   N18       1.0  0.72072  0.79317  0.27318  1.0000
  H   H51       1.0  0.75266  0.80094  0.20744  1.0000
  C   C142      1.0  0.38376  0.14431  0.34010  1.0000
  C   C143      1.0  0.34681  0.11541  0.25433  1.0000
  C   C144      1.0  0.37201  0.13377  0.25752  1.0000
  H   H52       1.0  0.38205  0.13953  0.19923  1.0000
  O   O19       1.0  0.34679  0.11161  0.09278  1.0000
  C   C145      1.0  0.77129  0.62966  0.34008  1.0000
  C   C146      1.0  0.78484  0.67997  0.33662  1.0000
  C   C147      1.0  0.77935  0.66660  0.25429  1.0000
  C   C148      1.0  0.77251  0.64140  0.25750  1.0000
  H   H53       1.0  0.76823  0.63136  0.19921  1.0000
  C   C149      1.0  0.79114  0.70505  0.33639  1.0000
  C   C150      1.0  0.80214  0.75468  0.33910  1.0000
  C   C151      1.0  0.79744  0.74179  0.25672  1.0000
  C   C152      1.0  0.79202  0.71699  0.25382  1.0000
  C   C153      1.0  0.78685  0.70364  0.17222  1.0000
  C   C154      1.0  0.78059  0.67873  0.17244  1.0000
  H   H54       1.0  0.79720  0.75041  0.19849  1.0000
  O   O20       1.0  0.78753  0.71440  0.09230  1.0000
  O   O21       1.0  0.77558  0.66662  0.09274  1.0000
  C   C155      1.0  0.86911  0.24213  0.34011  1.0000
  C   C156      1.0  0.90587  0.22858  0.33666  1.0000
  C   C157      1.0  0.89801  0.23408  0.25433  1.0000
  C   C158      1.0  0.87965  0.24092  0.25753  1.0000
  H   H55       1.0  0.87389  0.24521  0.19924  1.0000
  C   C159      1.0  0.92464  0.22228  0.33645  1.0000
  C   C160      1.0  0.96328  0.21130  0.33922  1.0000
  C   C161      1.0  0.95510  0.21599  0.25680  1.0000
  C   C162      1.0  0.93572  0.22141  0.25390  1.0000
  C   C163      1.0  0.92755  0.22659  0.17230  1.0000
  C   C164      1.0  0.90889  0.23284  0.17250  1.0000
  H   H56       1.0  0.96397  0.21624  0.19858  1.0000
  O   O22       1.0  0.93764  0.22592  0.09238  1.0000
  O   O23       1.0  0.90180  0.23786  0.09278  1.0000
  C   C165      1.0  0.36322  0.50811  0.34172  1.0000
  C   C166      1.0  0.35074  0.50268  0.25835  1.0000
  H   H57       1.0  0.36076  0.50734  0.19994  1.0000
  C   C167      1.0  0.56502  0.78793  0.33870  1.0000
  C   C168      1.0  0.54163  0.81633  0.33656  1.0000
  C   C169      1.0  0.54711  0.80883  0.25343  1.0000
  C   C170      1.0  0.55873  0.79446  0.25597  1.0000
  H   H58       1.0  0.56220  0.78819  0.19721  1.0000
  C   C171      1.0  0.52948  0.83017  0.33718  1.0000
  C   C172      1.0  0.50530  0.85779  0.34170  1.0000
  C   C173      1.0  0.51074  0.85075  0.25834  1.0000
  C   C174      1.0  0.52280  0.83680  0.25464  1.0000
  C   C175      1.0  0.52846  0.82944  0.17222  1.0000
  C   C176      1.0  0.54043  0.81551  0.17163  1.0000
  H   H59       1.0  0.50609  0.85611  0.19992  1.0000
  O   O24       1.0  0.52242  0.83546  0.09233  1.0000
  O   O25       1.0  0.54532  0.80864  0.09122  1.0000
  C   C177      1.0  0.45685  0.24496  0.27019  1.0000
  N   N19       1.0  0.46811  0.26987  0.27441  1.0000
  C   C178      1.0  0.50353  0.34643  0.26977  1.0000
  H   H60       1.0  0.45332  0.23669  0.20838  1.0000
  N   N20       1.0  0.49195  0.32152  0.27419  1.0000
  H   H61       1.0  0.50661  0.35468  0.20800  1.0000
  C   C179      1.0  0.79887  0.55660  0.27027  1.0000
  N   N21       1.0  0.81249  0.54532  0.27448  1.0000
  C   C180      1.0  0.85363  0.50989  0.26978  1.0000
  H   H62       1.0  0.79409  0.56010  0.20847  1.0000
  N   N22       1.0  0.84030  0.52147  0.27422  1.0000
  H   H63       1.0  0.85880  0.50682  0.20801  1.0000
  C   C181      1.0  0.76846  0.21456  0.27016  1.0000
  N   N23       1.0  0.74355  0.20092  0.27439  1.0000
  C   C182      1.0  0.66699  0.15978  0.26975  1.0000
  H   H64       1.0  0.77674  0.21930  0.20835  1.0000
  N   N24       1.0  0.69190  0.17311  0.27417  1.0000
  H   H65       1.0  0.65875  0.15461  0.20799  1.0000
  C   C183      1.0  0.45730  0.59356  0.26899  1.0000
  N   N25       1.0  0.47596  0.61721  0.27328  1.0000
  C   C184      1.0  0.53392  0.68949  0.26834  1.0000
  H   H66       1.0  0.45116  0.58565  0.20718  1.0000
  N   N26       1.0  0.51501  0.66598  0.27295  1.0000
  H   H67       1.0  0.53935  0.69769  0.20659  1.0000
  C   C185      1.0  0.41986  0.86640  0.26905  1.0000
  N   N27       1.0  0.39621  0.86143  0.27334  1.0000
  H   H68       1.0  0.42777  0.86821  0.20723  1.0000
  N   N28       1.0  0.34744  0.85171  0.27301  1.0000
  C   C186      1.0  0.56871  0.14063  0.34024  1.0000
  C   C187      1.0  0.53000  0.15112  0.33680  1.0000
  C   C188      1.0  0.53914  0.14745  0.25404  1.0000
  C   C189      1.0  0.55847  0.14204  0.25725  1.0000
  H   H69       1.0  0.56481  0.13845  0.19887  1.0000
  C   C190      1.0  0.51016  0.15576  0.33689  1.0000
  C   C191      1.0  0.47063  0.16503  0.34057  1.0000
  C   C192      1.0  0.47951  0.16167  0.25748  1.0000
  C   C193      1.0  0.49932  0.15694  0.25421  1.0000
  C   C194      1.0  0.50871  0.15357  0.17211  1.0000
  C   C195      1.0  0.52838  0.14878  0.17203  1.0000
  H   H70       1.0  0.47170  0.16311  0.19893  1.0000
  O   O26       1.0  0.49894  0.15472  0.09206  1.0000
  O   O27       1.0  0.53666  0.14544  0.09195  1.0000
  C   C196      1.0  0.58265  0.44471  0.34013  1.0000
  C   C197      1.0  0.63185  0.48342  0.33674  1.0000
  C   C198      1.0  0.61905  0.47428  0.25396  1.0000
  C   C199      1.0  0.59431  0.45494  0.25714  1.0000
  H   H71       1.0  0.58438  0.44862  0.19878  1.0000
  C   C200      1.0  0.65634  0.50326  0.33684  1.0000
  C   C201      1.0  0.70513  0.54279  0.34056  1.0000
  C   C202      1.0  0.69289  0.53391  0.25747  1.0000
  C   C203      1.0  0.66835  0.51411  0.25418  1.0000
  C   C204      1.0  0.65560  0.50472  0.17207  1.0000
  C   C205      1.0  0.63115  0.48505  0.17197  1.0000
  H   H72       1.0  0.70215  0.54173  0.19893  1.0000
  O   O28       1.0  0.66652  0.51449  0.09203  1.0000
  O   O29       1.0  0.61952  0.47676  0.09188  1.0000
  C   C206      1.0  0.87281  0.43077  0.34020  1.0000
  C   C207      1.0  0.86232  0.38157  0.33679  1.0000
  C   C208      1.0  0.86599  0.39437  0.25402  1.0000
  C   C209      1.0  0.87139  0.41912  0.25722  1.0000
  H   H73       1.0  0.87498  0.42904  0.19884  1.0000
  C   C210      1.0  0.85768  0.35709  0.33689  1.0000
  C   C211      1.0  0.84839  0.30829  0.34058  1.0000
  C   C212      1.0  0.85176  0.32053  0.25749  1.0000
  C   C213      1.0  0.85649  0.34507  0.25421  1.0000
  C   C214      1.0  0.85986  0.35782  0.17210  1.0000
  C   C215      1.0  0.86465  0.38227  0.17202  1.0000
  H   H74       1.0  0.85031  0.31127  0.19894  1.0000
  O   O30       1.0  0.85870  0.34690  0.09206  1.0000
  O   O31       1.0  0.86798  0.39390  0.09193  1.0000
  C   C216      1.0  0.94346  0.51377  0.33934  1.0000
  C   C217      1.0  0.99507  0.54095  0.33533  1.0000
  C   C218      1.0  0.98197  0.53236  0.25283  1.0000
  C   C219      1.0  0.95600  0.51863  0.25630  1.0000
  H   H75       1.0  0.94607  0.51169  0.19825  1.0000
  C   C220      1.0  0.99516  0.53730  0.17099  1.0000
  O   O32       1.0  0.98325  0.52943  0.09119  1.0000
  C   C221      1.0  0.49966  0.43239  0.33941  1.0000
  C   C222      1.0  0.47246  0.45679  0.33538  1.0000
  C   C223      1.0  0.48106  0.45230  0.25289  1.0000
  C   C224      1.0  0.49481  0.44007  0.25636  1.0000
  H   H76       1.0  0.50174  0.43707  0.19831  1.0000
  C   C225      1.0  0.45947  0.46977  0.33552  1.0000
  C   C226      1.0  0.43505  0.49694  0.34012  1.0000
  C   C227      1.0  0.44261  0.49205  0.25690  1.0000
  C   C228      1.0  0.45490  0.47836  0.25316  1.0000
  C   C229      1.0  0.46313  0.47347  0.17117  1.0000
  C   C230      1.0  0.47613  0.46055  0.17104  1.0000
  H   H77       1.0  0.43957  0.49898  0.19895  1.0000
  O   O33       1.0  0.45903  0.48135  0.09150  1.0000
  O   O34       1.0  0.48401  0.45652  0.09125  1.0000
  C   C231      1.0  0.58103  0.06996  0.33938  1.0000
  C   C232      1.0  0.55663  0.01835  0.33534  1.0000
  C   C233      1.0  0.56113  0.03145  0.25285  1.0000
  C   C234      1.0  0.57336  0.05743  0.25632  1.0000
  H   H78       1.0  0.57635  0.06736  0.19829  1.0000
  C   C235      1.0  0.54365  0.99240  0.33548  1.0000
  C   C236      1.0  0.51648  0.94079  0.34005  1.0000
  C   C237      1.0  0.52137  0.95326  0.25683  1.0000
  C   C238      1.0  0.53506  0.97923  0.25310  1.0000
  C   C239      1.0  0.53996  0.99235  0.17112  1.0000
  C   C240      1.0  0.55288  0.01827  0.17100  1.0000
  H   H79       1.0  0.51445  0.94328  0.19888  1.0000
  O   O35       1.0  0.53208  0.98038  0.09144  1.0000
  O   O36       1.0  0.55692  0.03018  0.09121  1.0000
  C   C241      1.0  0.00803  0.98296  0.34401  1.0000
  C   C242      1.0  0.98524  0.98258  0.34419  1.0000
  C   C243      1.0  0.98566  0.00539  0.34404  1.0000
  H   H80       1.0  0.00801  0.96664  0.34323  1.0000
  H   H81       1.0  0.96936  0.00540  0.34324  1.0000
  C   C244      1.0  0.98540  0.21019  0.34281  1.0000
  C   C245      1.0  0.98563  0.18773  0.34262  1.0000
  H   H82       1.0  0.96928  0.17148  0.34083  1.0000
  C   C246      1.0  0.78057  0.80057  0.34521  1.0000
  C   C247      1.0  0.78092  0.77825  0.34414  1.0000
  C   C248      1.0  0.80324  0.77789  0.34279  1.0000
  C   C249      1.0  0.82569  0.80059  0.34259  1.0000
  C   C250      1.0  0.82606  0.82339  0.34399  1.0000
  C   C251      1.0  0.80326  0.82302  0.34510  1.0000
  H   H83       1.0  0.84194  0.80049  0.34079  1.0000
  H   H84       1.0  0.80316  0.83928  0.34603  1.0000
  H   H85       1.0  0.76458  0.76191  0.34416  1.0000
  C   C252      1.0  0.56358  0.72770  0.34509  1.0000
  C   C253      1.0  0.55608  0.74545  0.34228  1.0000
  C   C254      1.0  0.57351  0.77083  0.34120  1.0000
  C   C255      1.0  0.59886  0.77843  0.34176  1.0000
  C   C256      1.0  0.60683  0.76095  0.34467  1.0000
  C   C257      1.0  0.58898  0.73560  0.34719  1.0000
  H   H86       1.0  0.61159  0.79682  0.34087  1.0000
  H   H87       1.0  0.59451  0.72278  0.34991  1.0000
  H   H88       1.0  0.53767  0.73982  0.34166  1.0000
  C   C258      1.0  0.45250  0.17217  0.34321  1.0000
  C   C259      1.0  0.46000  0.19743  0.34624  1.0000
  C   C260      1.0  0.44255  0.20537  0.34711  1.0000
  C   C261      1.0  0.41721  0.18761  0.34618  1.0000
  C   C262      1.0  0.40925  0.16216  0.34313  1.0000
  C   C263      1.0  0.42711  0.15467  0.34079  1.0000
  H   H89       1.0  0.40447  0.19326  0.34703  1.0000
  H   H90       1.0  0.42159  0.13633  0.33799  1.0000
  H   H91       1.0  0.47840  0.21021  0.34714  1.0000
  C   C264      1.0  0.73040  0.56091  0.34322  1.0000
  C   C265      1.0  0.74816  0.55342  0.34628  1.0000
  C   C266      1.0  0.77354  0.57086  0.34716  1.0000
  C   C267      1.0  0.78113  0.59621  0.34622  1.0000
  C   C268      1.0  0.76365  0.60417  0.34312  1.0000
  C   C269      1.0  0.73830  0.58631  0.34075  1.0000
  H   H92       1.0  0.79952  0.60894  0.34709  1.0000
  H   H93       1.0  0.72548  0.59183  0.33796  1.0000
  H   H94       1.0  0.74254  0.53502  0.34722  1.0000
  C   C270      1.0  0.84124  0.28301  0.34323  1.0000
  C   C271      1.0  0.81599  0.26525  0.34623  1.0000
  C   C272      1.0  0.80805  0.23987  0.34710  1.0000
  C   C273      1.0  0.82581  0.23228  0.34620  1.0000
  C   C274      1.0  0.85126  0.24977  0.34314  1.0000
  C   C275      1.0  0.85874  0.27512  0.34078  1.0000
  H   H95       1.0  0.82016  0.21390  0.34703  1.0000
  H   H96       1.0  0.87709  0.28794  0.33801  1.0000
  H   H97       1.0  0.80321  0.27087  0.34714  1.0000
  C   C276      1.0  0.42483  0.51248  0.34413  1.0000
  C   C277      1.0  0.44055  0.53821  0.34494  1.0000
  C   C278      1.0  0.43089  0.55425  0.34583  1.0000
  C   C279      1.0  0.40509  0.54424  0.34561  1.0000
  C   C280      1.0  0.38908  0.51845  0.34485  1.0000
  C   C281      1.0  0.39913  0.50271  0.34403  1.0000
  H   H98       1.0  0.39795  0.55576  0.34602  1.0000
  H   H99       1.0  0.38769  0.48403  0.34221  1.0000
  H   H100      1.0  0.45924  0.54533  0.34483  1.0000
  C   C282      1.0  0.50094  0.91504  0.34408  1.0000
  C   C283      1.0  0.47521  0.90503  0.34493  1.0000
  C   C284      1.0  0.45917  0.87933  0.34583  1.0000
  C   C285      1.0  0.46918  0.86354  0.34562  1.0000
  C   C286      1.0  0.49497  0.87332  0.34483  1.0000
  C   C287      1.0  0.51071  0.89911  0.34396  1.0000
  H   H101      1.0  0.45766  0.84488  0.34606  1.0000
  H   H102      1.0  0.52939  0.90635  0.34212  1.0000
  H   H103      1.0  0.46809  0.91660  0.34483  1.0000
  C   C288      1.0  0.59124  0.09572  0.34325  1.0000
  C   C289      1.0  0.57555  0.10576  0.34161  1.0000
  C   C290      1.0  0.58523  0.13146  0.34368  1.0000
  C   C291      1.0  0.61102  0.14722  0.34637  1.0000
  C   C292      1.0  0.62701  0.13741  0.34694  1.0000
  C   C293      1.0  0.61694  0.11162  0.34584  1.0000
  H   H104      1.0  0.61818  0.16588  0.34707  1.0000
  H   H105      1.0  0.62837  0.10436  0.34619  1.0000
  H   H106      1.0  0.55688  0.09422  0.33893  1.0000
  C   C294      1.0  0.51521  0.42218  0.34324  1.0000
  C   C295      1.0  0.54094  0.43787  0.34157  1.0000
  C   C296      1.0  0.55697  0.42819  0.34361  1.0000
  C   C297      1.0  0.54693  0.40240  0.34633  1.0000
  C   C298      1.0  0.52114  0.38642  0.34695  1.0000
  C   C299      1.0  0.50542  0.39648  0.34587  1.0000
  H   H107      1.0  0.55844  0.39524  0.34702  1.0000
  H   H108      1.0  0.48672  0.38505  0.34625  1.0000
  H   H109      1.0  0.54808  0.45654  0.33887  1.0000
  C   C300      1.0  0.91770  0.49822  0.34319  1.0000
  C   C301      1.0  0.90767  0.47249  0.34156  1.0000
  C   C302      1.0  0.88197  0.45645  0.34362  1.0000
  C   C303      1.0  0.86621  0.46648  0.34635  1.0000
  C   C304      1.0  0.87600  0.49227  0.34692  1.0000
  C   C305      1.0  0.90179  0.50800  0.34580  1.0000
  H   H110      1.0  0.84754  0.45497  0.34707  1.0000
  H   H111      1.0  0.90905  0.52670  0.34618  1.0000
  H   H112      1.0  0.91921  0.46536  0.33887  1.0000
  C   C306      1.0  0.94999  0.94756  0.42182  1.0000
  N   N29       1.0  0.92830  0.92587  0.41814  1.0000
  C   C307      1.0  0.86101  0.85862  0.42185  1.0000
  H   H113      1.0  0.95716  0.95487  0.48350  1.0000
  N   N30       1.0  0.88271  0.88031  0.41816  1.0000
  H   H114      1.0  0.85368  0.85146  0.48352  1.0000
  C   C308      1.0  0.63233  0.76860  0.34765  1.0000
  C   C309      1.0  0.68264  0.78217  0.35106  1.0000
  C   C310      1.0  0.66924  0.77652  0.43334  1.0000
  C   C311      1.0  0.64404  0.76967  0.43016  1.0000
  H   H115      1.0  0.63397  0.76529  0.48842  1.0000
  C   C312      1.0  0.70772  0.78848  0.35128  1.0000
  C   C313      1.0  0.75736  0.79949  0.34864  1.0000
  C   C314      1.0  0.74441  0.79463  0.43095  1.0000
  C   C315      1.0  0.71962  0.78921  0.43381  1.0000
  C   C316      1.0  0.70623  0.78389  0.51536  1.0000
  C   C317      1.0  0.68132  0.77763  0.51515  1.0000
  H   H116      1.0  0.75299  0.79428  0.48914  1.0000
  O   O37       1.0  0.71696  0.78444  0.59522  1.0000
  O   O38       1.0  0.66918  0.77249  0.59481  1.0000
  C   C318      1.0  0.36948  0.13589  0.41934  1.0000
  N   N31       1.0  0.34539  0.11812  0.41497  1.0000
  H   H117      1.0  0.37710  0.14274  0.48098  1.0000
  C   C319      1.0  0.77716  0.64394  0.41931  1.0000
  N   N32       1.0  0.78347  0.66803  0.41493  1.0000
  C   C320      1.0  0.80106  0.74181  0.41859  1.0000
  H   H118      1.0  0.77635  0.63631  0.48097  1.0000
  N   N33       1.0  0.79568  0.71799  0.41455  1.0000
  H   H119      1.0  0.80335  0.74989  0.48036  1.0000
  C   C321      1.0  0.87752  0.23627  0.41934  1.0000
  N   N34       1.0  0.89529  0.22994  0.41497  1.0000
  C   C322      1.0  0.95148  0.21235  0.41869  1.0000
  H   H120      1.0  0.87068  0.23705  0.48098  1.0000
  N   N35       1.0  0.93303  0.21773  0.41462  1.0000
  H   H121      1.0  0.95726  0.21006  0.48046  1.0000
  C   C323      1.0  0.34899  0.50096  0.42119  1.0000
  H   H122      1.0  0.35714  0.50408  0.48314  1.0000
  C   C324      1.0  0.55913  0.79595  0.41881  1.0000
  N   N36       1.0  0.54787  0.80960  0.41502  1.0000
  C   C325      1.0  0.51244  0.85071  0.42118  1.0000
  H   H123      1.0  0.56261  0.79109  0.48047  1.0000
  N   N37       1.0  0.52402  0.83738  0.41622  1.0000
  H   H124      1.0  0.50932  0.85574  0.48313  1.0000
  C   C326      1.0  0.45103  0.23095  0.35005  1.0000
  C   C327      1.0  0.47441  0.28274  0.35308  1.0000
  C   C328      1.0  0.46901  0.26966  0.43596  1.0000
  C   C329      1.0  0.45739  0.24368  0.43298  1.0000
  H   H125      1.0  0.45398  0.23387  0.49155  1.0000
  C   C330      1.0  0.48657  0.30874  0.35296  1.0000
  C   C331      1.0  0.51077  0.36054  0.34953  1.0000
  C   C332      1.0  0.50541  0.34795  0.43261  1.0000
  C   C333      1.0  0.49333  0.32194  0.43574  1.0000
  C   C334      1.0  0.48772  0.30880  0.51790  1.0000
  C   C335      1.0  0.47575  0.28291  0.51800  1.0000
  H   H126      1.0  0.51013  0.35788  0.49121  1.0000
  O   O39       1.0  0.49383  0.32077  0.59799  1.0000
  O   O40       1.0  0.47091  0.27105  0.59818  1.0000
  C   C336      1.0  0.79064  0.56237  0.35015  1.0000
  C   C337      1.0  0.81907  0.53901  0.35314  1.0000
  C   C338      1.0  0.81139  0.54441  0.43604  1.0000
  C   C339      1.0  0.79703  0.55603  0.43308  1.0000
  H   H127      1.0  0.79062  0.55943  0.49164  1.0000
  C   C340      1.0  0.83290  0.52685  0.35300  1.0000
  C   C341      1.0  0.86049  0.50264  0.34953  1.0000
  C   C342      1.0  0.85327  0.50800  0.43261  1.0000
  C   C343      1.0  0.83934  0.52008  0.43577  1.0000
  C   C344      1.0  0.83182  0.52569  0.51794  1.0000
  C   C345      1.0  0.81790  0.53767  0.51806  1.0000
  H   H128      1.0  0.85848  0.50328  0.49121  1.0000
  O   O41       1.0  0.83768  0.51958  0.59801  1.0000
  O   O42       1.0  0.81089  0.54251  0.59826  1.0000
  C   C346      1.0  0.78247  0.22277  0.35002  1.0000
  C   C347      1.0  0.73068  0.19435  0.35306  1.0000
  C   C348      1.0  0.74376  0.20203  0.43594  1.0000
  C   C349      1.0  0.76974  0.21640  0.43296  1.0000
  H   H129      1.0  0.77955  0.22280  0.49153  1.0000
  C   C350      1.0  0.70468  0.18051  0.35294  1.0000
  C   C351      1.0  0.65288  0.15291  0.34951  1.0000
  C   C352      1.0  0.66547  0.16015  0.43259  1.0000
  C   C353      1.0  0.69148  0.17408  0.43572  1.0000
  C   C354      1.0  0.70462  0.18161  0.51788  1.0000
  C   C355      1.0  0.73051  0.19552  0.51798  1.0000
  H   H130      1.0  0.65554  0.15494  0.49119  1.0000
  O   O43       1.0  0.69265  0.17575  0.59797  1.0000
  O   O44       1.0  0.74237  0.20254  0.59816  1.0000
  C   C356      1.0  0.44745  0.57993  0.34883  1.0000
  C   C357      1.0  0.48615  0.62912  0.35195  1.0000
  C   C358      1.0  0.47694  0.61639  0.43481  1.0000
  C   C359      1.0  0.45757  0.59166  0.43179  1.0000
  H   H131      1.0  0.45117  0.58180  0.49025  1.0000
  C   C360      1.0  0.50599  0.65361  0.35176  1.0000
  C   C361      1.0  0.54546  0.70242  0.34790  1.0000
  C   C362      1.0  0.53654  0.69023  0.43105  1.0000
  C   C363      1.0  0.51675  0.66569  0.43441  1.0000
  C   C364      1.0  0.50732  0.65300  0.51659  1.0000
  C   C365      1.0  0.48764  0.62855  0.51678  1.0000
  H   H132      1.0  0.54430  0.69954  0.48957  1.0000
  O   O45       1.0  0.51704  0.66396  0.59660  1.0000
  O   O46       1.0  0.47931  0.61698  0.59694  1.0000
  C   C366      1.0  0.43349  0.87021  0.34889  1.0000
  C   C367      1.0  0.38430  0.85972  0.35201  1.0000
  C   C368      1.0  0.39703  0.86323  0.43487  1.0000
  C   C369      1.0  0.42176  0.86859  0.43185  1.0000
  H   H133      1.0  0.43163  0.87208  0.49031  1.0000
  C   C370      1.0  0.35981  0.85506  0.35182  1.0000
  C   C371      1.0  0.34773  0.85375  0.43447  1.0000
  C   C372      1.0  0.36043  0.85701  0.51665  1.0000
  C   C373      1.0  0.38488  0.86178  0.51684  1.0000
  O   O47       1.0  0.34946  0.85576  0.59666  1.0000
  O   O48       1.0  0.39645  0.86501  0.59700  1.0000
  C   C374      1.0  0.55895  0.14460  0.41993  1.0000
  N   N38       1.0  0.54027  0.14957  0.41551  1.0000
  C   C375      1.0  0.48226  0.16380  0.42014  1.0000
  H   H134      1.0  0.56515  0.14296  0.48181  1.0000
  N   N39       1.0  0.50119  0.15922  0.41563  1.0000
  H   H135      1.0  0.47687  0.16665  0.48184  1.0000
  C   C376      1.0  0.59639  0.45444  0.41984  1.0000
  N   N40       1.0  0.62002  0.47313  0.41543  1.0000
  C   C377      1.0  0.69227  0.53115  0.42013  1.0000
  H   H136      1.0  0.58853  0.44827  0.48171  1.0000
  N   N41       1.0  0.66876  0.51222  0.41559  1.0000
  H   H137      1.0  0.70051  0.53654  0.48183  1.0000
  C   C378      1.0  0.86884  0.41704  0.41991  1.0000
  N   N42       1.0  0.86387  0.39340  0.41549  1.0000
  C   C379      1.0  0.84963  0.32115  0.42016  1.0000
  H   H138      1.0  0.87048  0.42488  0.48178  1.0000
  N   N43       1.0  0.85422  0.34466  0.41563  1.0000
  H   H139      1.0  0.84678  0.31291  0.48185  1.0000
  C   C380      1.0  0.95744  0.52301  0.41874  1.0000
  N   N44       1.0  0.98234  0.53595  0.41405  1.0000
  H   H140      1.0  0.94917  0.51952  0.48055  1.0000
  C   C381      1.0  0.49042  0.43713  0.41881  1.0000
  N   N45       1.0  0.47746  0.44906  0.41410  1.0000
  C   C382      1.0  0.43992  0.48776  0.41940  1.0000
  H   H141      1.0  0.49387  0.43231  0.48061  1.0000
  N   N46       1.0  0.45183  0.47479  0.41441  1.0000
  H   H142      1.0  0.43518  0.49125  0.48130  1.0000
  C   C383      1.0  0.57630  0.05597  0.41877  1.0000
  N   N47       1.0  0.56436  0.03108  0.41406  1.0000
  C   C384      1.0  0.52565  0.95484  0.41933  1.0000
  H   H143      1.0  0.58109  0.06424  0.48058  1.0000
  N   N48       1.0  0.53862  0.97973  0.41436  1.0000
  H   H144      1.0  0.52216  0.94662  0.48123  1.0000
