data_image0
_chemical_formula_structural       C2H2C5H3CH3C5H3CH3C5H3CH3C2H2C2H2C2H2C2H2C5H3CH3C5H3CH3C2H2C5H3CH3C5H3CH3C5H3CH3C2H2C2H2C2H2C2H2C5H3CH3C5H3CH3C2H2C2H2C5H3CH3C5H3CH3C2H2C2H2C5H3CH3C5H3CH3C2H2C2H2C5H3CH3C5H3CH3C2H2C2H2C5H3CH3C5H3CH3C6H3C6H3C6H3C6H3C6H3C6H3C6H3C6H3C6H3C6H3C6H3C6H3C6H3C6H3C6H3C6H3C6H3C6H3C6H3C6H3C6H3C6H3C6H3C6H3C5H3CH3C2H2C2H2C2H2C5H3CH3C5H3CH3C5H3CH3C5H3CH3C2H2C2H2C5H3CH3C2H2C2H2C2H2C5H3CH3C5H3CH3C5H3CH3C5H3CH3C2H2C2H2C5H3CH3C5H3CH3C2H2C2H2C5H3CH3C5H3CH3C2H2C2H2C5H3CH3C5H3CH3C2H2C2H2C5H3CH3C5H3CH3C2H2C2H2
_chemical_formula_sum              "C432 H360"
_cell_length_a       42.7291
_cell_length_b       54.3298
_cell_length_c       14.8211
_cell_angle_alpha    90
_cell_angle_beta     90
_cell_angle_gamma    90

_space_group_name_H-M_alt    "P 1"
_space_group_IT_number       1

loop_
  _space_group_symop_operation_xyz
  'x, y, z'

loop_
  _atom_site_type_symbol
  _atom_site_label
  _atom_site_symmetry_multiplicity
  _atom_site_fract_x
  _atom_site_fract_y
  _atom_site_fract_z
  _atom_site_occupancy
  C   C1        1.0  0.48917  0.01274  0.27941  1.0000
  C   C2        1.0  0.50794  0.99152  0.27867  1.0000
  H   H1        1.0  0.50905  0.98138  0.22045  1.0000
  H   H2        1.0  0.47751  0.01737  0.22143  1.0000
  C   C3        1.0  0.02531  0.52775  0.33393  1.0000
  C   C4        1.0  0.98662  0.48438  0.33566  1.0000
  C   C5        1.0  0.98897  0.49897  0.25556  1.0000
  C   C6        1.0  0.00846  0.52062  0.25458  1.0000
  C   C7        1.0  0.97169  0.49151  0.17181  1.0000
  H   H3        1.0  0.95768  0.47490  0.17880  1.0000
  H   H4        1.0  0.98825  0.48798  0.11732  1.0000
  H   H5        1.0  0.95579  0.50620  0.15141  1.0000
  C   C8        1.0  0.01178  0.53518  0.16912  1.0000
  H   H6        1.0  0.02830  0.55038  0.17315  1.0000
  H   H7        1.0  0.98916  0.54291  0.15005  1.0000
  H   H8        1.0  0.02017  0.52334  0.11485  1.0000
  C   C9        1.0  0.38334  0.06988  0.32602  1.0000
  C   C10       1.0  0.31644  0.07490  0.32674  1.0000
  C   C11       1.0  0.33386  0.08047  0.24682  1.0000
  C   C12       1.0  0.36739  0.07794  0.24645  1.0000
  C   C13       1.0  0.31727  0.08897  0.16325  1.0000
  H   H9        1.0  0.29188  0.08950  0.16908  1.0000
  H   H10       1.0  0.32241  0.07657  0.10733  1.0000
  H   H11       1.0  0.32499  0.10750  0.14564  1.0000
  C   C14       1.0  0.38550  0.08373  0.16240  1.0000
  H   H12       1.0  0.41055  0.08035  0.16762  1.0000
  H   H13       1.0  0.38244  0.10308  0.14481  1.0000
  H   H14       1.0  0.37722  0.07234  0.10672  1.0000
  C   C15       1.0  0.62867  0.94210  0.32618  1.0000
  C   C16       1.0  0.69554  0.93703  0.32730  1.0000
  C   C17       1.0  0.67819  0.93149  0.24725  1.0000
  C   C18       1.0  0.64466  0.93402  0.24670  1.0000
  C   C19       1.0  0.69483  0.92300  0.16375  1.0000
  H   H15       1.0  0.72022  0.92247  0.16970  1.0000
  H   H16       1.0  0.68972  0.93540  0.10782  1.0000
  H   H17       1.0  0.68712  0.90447  0.14607  1.0000
  C   C20       1.0  0.62660  0.92822  0.16257  1.0000
  H   H18       1.0  0.60154  0.93158  0.16769  1.0000
  H   H19       1.0  0.62969  0.90887  0.14499  1.0000
  H   H20       1.0  0.63489  0.93962  0.10693  1.0000
  C   C21       1.0  0.14663  0.56365  0.28801  1.0000
  C   C22       1.0  0.17936  0.56614  0.28760  1.0000
  H   H21       1.0  0.19115  0.56261  0.22879  1.0000
  H   H22       1.0  0.13578  0.55840  0.22945  1.0000
  C   C23       1.0  0.86555  0.44829  0.28773  1.0000
  C   C24       1.0  0.83282  0.44580  0.28715  1.0000
  H   H23       1.0  0.82107  0.44933  0.22829  1.0000
  H   H24       1.0  0.87645  0.45355  0.22923  1.0000
  C   C25       1.0  0.49433  0.12891  0.28296  1.0000
  C   C26       1.0  0.50633  0.15295  0.28353  1.0000
  H   H25       1.0  0.51577  0.15974  0.22504  1.0000
  H   H26       1.0  0.49550  0.11902  0.22418  1.0000
  C   C27       1.0  0.51746  0.88330  0.28328  1.0000
  C   C28       1.0  0.50552  0.85923  0.28372  1.0000
  H   H27       1.0  0.49605  0.85246  0.22525  1.0000
  H   H28       1.0  0.51623  0.89321  0.22458  1.0000
  C   C29       1.0  0.03259  0.61892  0.33113  1.0000
  C   C30       1.0  0.00802  0.66798  0.32993  1.0000
  C   C31       1.0  0.02189  0.65801  0.25001  1.0000
  C   C32       1.0  0.03436  0.63341  0.25073  1.0000
  C   C33       1.0  0.02311  0.67296  0.16498  1.0000
  H   H29       1.0  0.01171  0.69083  0.16966  1.0000
  H   H30       1.0  0.01133  0.66317  0.11046  1.0000
  H   H31       1.0  0.04743  0.67622  0.14594  1.0000
  C   C34       1.0  0.04897  0.62303  0.16694  1.0000
  H   H32       1.0  0.05718  0.60415  0.17349  1.0000
  H   H33       1.0  0.06908  0.63420  0.14740  1.0000
  H   H34       1.0  0.03198  0.62299  0.11201  1.0000
  C   C35       1.0  0.97972  0.39325  0.33081  1.0000
  C   C36       1.0  0.00416  0.34414  0.32991  1.0000
  C   C37       1.0  0.99025  0.35408  0.24999  1.0000
  C   C38       1.0  0.97782  0.37869  0.25059  1.0000
  C   C39       1.0  0.98893  0.33909  0.16508  1.0000
  H   H35       1.0  0.00030  0.32120  0.16982  1.0000
  H   H36       1.0  0.00069  0.34883  0.11042  1.0000
  H   H37       1.0  0.96460  0.33584  0.14622  1.0000
  C   C40       1.0  0.96314  0.38903  0.16684  1.0000
  H   H38       1.0  0.95500  0.40794  0.17327  1.0000
  H   H39       1.0  0.94296  0.37789  0.14767  1.0000
  H   H40       1.0  0.98004  0.38899  0.11172  1.0000
  C   C41       1.0  0.51935  0.51601  0.27815  1.0000
  C   C42       1.0  0.48789  0.50855  0.27780  1.0000
  H   H41       1.0  0.47538  0.51036  0.21919  1.0000
  H   H42       1.0  0.52857  0.52304  0.21975  1.0000
  C   C43       1.0  0.97385  0.01362  0.33486  1.0000
  C   C44       1.0  0.03825  0.99829  0.33557  1.0000
  C   C45       1.0  0.01994  0.99592  0.25522  1.0000
  C   C46       1.0  0.98776  0.00385  0.25461  1.0000
  C   C47       1.0  0.03434  0.98568  0.17088  1.0000
  H   H43       1.0  0.05878  0.98035  0.17761  1.0000
  H   H44       1.0  0.03348  0.99937  0.11714  1.0000
  H   H45       1.0  0.02152  0.96932  0.14953  1.0000
  C   C48       1.0  0.96926  0.00247  0.16880  1.0000
  H   H46       1.0  0.94583  0.01017  0.17337  1.0000
  H   H47       1.0  0.96683  0.98331  0.14790  1.0000
  H   H48       1.0  0.98110  0.01275  0.11560  1.0000
  C   C49       1.0  0.38641  0.37823  0.32614  1.0000
  C   C50       1.0  0.39744  0.43032  0.32685  1.0000
  C   C51       1.0  0.40351  0.41628  0.24708  1.0000
  C   C52       1.0  0.39796  0.39014  0.24671  1.0000
  C   C53       1.0  0.41502  0.42874  0.16309  1.0000
  H   H49       1.0  0.41763  0.44860  0.16893  1.0000
  H   H50       1.0  0.39859  0.42566  0.10793  1.0000
  H   H51       1.0  0.43783  0.42132  0.14431  1.0000
  C   C54       1.0  0.40363  0.37560  0.16225  1.0000
  H   H52       1.0  0.39766  0.35618  0.16733  1.0000
  H   H53       1.0  0.42831  0.37667  0.14375  1.0000
  H   H54       1.0  0.38952  0.38295  0.10720  1.0000
  C   C55       1.0  0.62557  0.63382  0.32630  1.0000
  C   C56       1.0  0.61457  0.58172  0.32763  1.0000
  C   C57       1.0  0.60839  0.59571  0.24779  1.0000
  C   C58       1.0  0.61393  0.62185  0.24711  1.0000
  C   C59       1.0  0.59678  0.58318  0.16406  1.0000
  H   H55       1.0  0.59416  0.56333  0.17015  1.0000
  H   H56       1.0  0.61313  0.58622  0.10870  1.0000
  H   H57       1.0  0.57394  0.59059  0.14544  1.0000
  C   C60       1.0  0.60816  0.63632  0.16254  1.0000
  H   H58       1.0  0.61415  0.65575  0.16738  1.0000
  H   H59       1.0  0.58347  0.63525  0.14429  1.0000
  H   H60       1.0  0.62222  0.62893  0.10743  1.0000
  C   C61       1.0  0.13210  0.89268  0.28772  1.0000
  C   C62       1.0  0.12674  0.91815  0.28741  1.0000
  H   H61       1.0  0.13108  0.92772  0.22915  1.0000
  H   H62       1.0  0.14010  0.88461  0.22962  1.0000
  C   C63       1.0  0.87993  0.11943  0.28751  1.0000
  C   C64       1.0  0.88528  0.09395  0.28689  1.0000
  H   H63       1.0  0.88085  0.08443  0.22860  1.0000
  H   H64       1.0  0.87186  0.12754  0.22958  1.0000
  C   C65       1.0  0.31533  0.53657  0.28152  1.0000
  C   C66       1.0  0.34033  0.51979  0.28067  1.0000
  H   H65       1.0  0.34479  0.51040  0.22210  1.0000
  H   H66       1.0  0.30262  0.53888  0.22350  1.0000
  C   C67       1.0  0.69657  0.47535  0.28123  1.0000
  C   C68       1.0  0.67160  0.49216  0.28087  1.0000
  H   H67       1.0  0.66691  0.50146  0.22226  1.0000
  H   H68       1.0  0.70905  0.47294  0.22286  1.0000
  C   C69       1.0  0.20369  0.05064  0.33188  1.0000
  C   C70       1.0  0.15250  0.01628  0.33373  1.0000
  C   C71       1.0  0.15958  0.02979  0.25334  1.0000
  C   C72       1.0  0.18508  0.04714  0.25264  1.0000
  C   C73       1.0  0.14106  0.02553  0.16879  1.0000
  H   H69       1.0  0.12321  0.01133  0.17434  1.0000
  H   H70       1.0  0.15657  0.01971  0.11439  1.0000
  H   H71       1.0  0.12926  0.04250  0.14900  1.0000
  C   C74       1.0  0.19239  0.06121  0.16812  1.0000
  H   H72       1.0  0.21243  0.07348  0.17343  1.0000
  H   H73       1.0  0.17231  0.07248  0.14911  1.0000
  H   H74       1.0  0.19769  0.04848  0.11332  1.0000
  C   C75       1.0  0.80825  0.96138  0.33214  1.0000
  C   C76       1.0  0.85935  0.99584  0.33291  1.0000
  C   C77       1.0  0.85192  0.98247  0.25248  1.0000
  C   C78       1.0  0.82655  0.96500  0.25236  1.0000
  C   C79       1.0  0.86996  0.98698  0.16729  1.0000
  H   H75       1.0  0.88736  0.00151  0.17229  1.0000
  H   H76       1.0  0.85410  0.99254  0.11335  1.0000
  H   H77       1.0  0.88215  0.97021  0.14718  1.0000
  C   C80       1.0  0.81904  0.95096  0.16794  1.0000
  H   H78       1.0  0.79925  0.93845  0.17390  1.0000
  H   H79       1.0  0.83921  0.93992  0.14788  1.0000
  H   H80       1.0  0.81323  0.96369  0.11358  1.0000
  C   C81       1.0  0.23802  0.15224  0.27575  1.0000
  C   C82       1.0  0.23145  0.17752  0.27507  1.0000
  H   H81       1.0  0.23430  0.18701  0.21587  1.0000
  H   H82       1.0  0.24545  0.14418  0.21699  1.0000
  C   C83       1.0  0.77405  0.85979  0.27616  1.0000
  C   C84       1.0  0.78062  0.83452  0.27536  1.0000
  H   H83       1.0  0.77776  0.82504  0.21613  1.0000
  H   H84       1.0  0.76660  0.86786  0.21745  1.0000
  C   C85       1.0  0.27750  0.63812  0.33578  1.0000
  C   C86       1.0  0.29071  0.68974  0.33706  1.0000
  C   C87       1.0  0.29401  0.67599  0.25528  1.0000
  C   C88       1.0  0.28764  0.64998  0.25480  1.0000
  C   C89       1.0  0.30315  0.68862  0.16928  1.0000
  H   H85       1.0  0.30605  0.70843  0.17530  1.0000
  H   H86       1.0  0.28517  0.68578  0.11811  1.0000
  H   H87       1.0  0.32530  0.68118  0.14484  1.0000
  C   C90       1.0  0.29080  0.63563  0.16885  1.0000
  H   H88       1.0  0.28540  0.61613  0.17505  1.0000
  H   H89       1.0  0.31477  0.63691  0.14400  1.0000
  H   H90       1.0  0.27492  0.64299  0.11791  1.0000
  C   C91       1.0  0.73458  0.37389  0.33531  1.0000
  C   C92       1.0  0.72136  0.32227  0.33679  1.0000
  C   C93       1.0  0.71805  0.33600  0.25497  1.0000
  C   C94       1.0  0.72443  0.36201  0.25439  1.0000
  C   C95       1.0  0.70890  0.32335  0.16902  1.0000
  H   H91       1.0  0.70600  0.30355  0.17511  1.0000
  H   H92       1.0  0.72687  0.32619  0.11782  1.0000
  H   H93       1.0  0.68674  0.33078  0.14458  1.0000
  C   C96       1.0  0.72125  0.37634  0.16839  1.0000
  H   H94       1.0  0.72664  0.39584  0.17453  1.0000
  H   H95       1.0  0.69726  0.37505  0.14359  1.0000
  H   H96       1.0  0.73711  0.36898  0.11746  1.0000
  C   C97       1.0  0.29940  0.30242  0.28156  1.0000
  C   C98       1.0  0.27254  0.28759  0.28059  1.0000
  H   H97       1.0  0.26040  0.28587  0.22129  1.0000
  H   H98       1.0  0.30616  0.31073  0.22263  1.0000
  C   C99       1.0  0.71265  0.70962  0.28152  1.0000
  C   C100      1.0  0.73952  0.72443  0.28058  1.0000
  H   H99       1.0  0.75167  0.72615  0.22129  1.0000
  H   H100      1.0  0.70589  0.70132  0.22255  1.0000
  C   C101      1.0  0.19412  0.80449  0.33082  1.0000
  C   C102      1.0  0.24862  0.77413  0.33319  1.0000
  C   C103      1.0  0.23103  0.77664  0.25165  1.0000
  C   C104      1.0  0.20355  0.79187  0.25059  1.0000
  C   C105      1.0  0.24104  0.76355  0.16732  1.0000
  H   H101      1.0  0.26259  0.75302  0.17391  1.0000
  H   H102      1.0  0.24514  0.77684  0.11347  1.0000
  H   H103      1.0  0.22279  0.75073  0.14618  1.0000
  C   C106      1.0  0.18496  0.79456  0.16530  1.0000
  H   H104      1.0  0.16548  0.80741  0.17015  1.0000
  H   H105      1.0  0.17534  0.77674  0.14561  1.0000
  H   H106      1.0  0.19988  0.80143  0.11119  1.0000
  C   C107      1.0  0.81799  0.20755  0.33095  1.0000
  C   C108      1.0  0.76346  0.23789  0.33319  1.0000
  C   C109      1.0  0.78107  0.23538  0.25167  1.0000
  C   C110      1.0  0.80856  0.22016  0.25068  1.0000
  C   C111      1.0  0.77107  0.24846  0.16731  1.0000
  H   H107      1.0  0.74951  0.25897  0.17384  1.0000
  H   H108      1.0  0.76699  0.23516  0.11347  1.0000
  H   H109      1.0  0.78930  0.26128  0.14618  1.0000
  C   C112      1.0  0.82717  0.21747  0.16542  1.0000
  H   H110      1.0  0.84667  0.20463  0.17033  1.0000
  H   H111      1.0  0.83678  0.23529  0.14572  1.0000
  H   H112      1.0  0.81227  0.21058  0.11129  1.0000
  C   C113      1.0  0.43872  0.28093  0.27144  1.0000
  C   C114      1.0  0.46136  0.26231  0.27304  1.0000
  H   H113      1.0  0.46601  0.25298  0.21443  1.0000
  H   H114      1.0  0.42724  0.28433  0.21199  1.0000
  C   C115      1.0  0.57334  0.73118  0.27127  1.0000
  C   C116      1.0  0.55071  0.74981  0.27287  1.0000
  H   H115      1.0  0.54606  0.75914  0.21427  1.0000
  H   H116      1.0  0.58481  0.72778  0.21183  1.0000
  C   C117      1.0  0.08082  0.79429  0.34061  1.0000
  C   C118      1.0  0.03493  0.75629  0.33721  1.0000
  C   C119      1.0  0.04186  0.76956  0.25638  1.0000
  C   C120      1.0  0.06516  0.78864  0.25798  1.0000
  C   C121      1.0  0.02558  0.76332  0.16970  1.0000
  H   H117      1.0  0.00881  0.74830  0.17490  1.0000
  H   H118      1.0  0.04270  0.75780  0.11901  1.0000
  H   H119      1.0  0.01275  0.77934  0.14516  1.0000
  C   C122      1.0  0.07331  0.80207  0.17277  1.0000
  H   H120      1.0  0.09104  0.81628  0.18085  1.0000
  H   H121      1.0  0.05254  0.81112  0.14576  1.0000
  H   H122      1.0  0.08226  0.78912  0.12278  1.0000
  C   C123      1.0  0.93128  0.21780  0.34082  1.0000
  C   C124      1.0  0.97713  0.25584  0.33738  1.0000
  C   C125      1.0  0.97022  0.24255  0.25657  1.0000
  C   C126      1.0  0.94694  0.22347  0.25818  1.0000
  C   C127      1.0  0.98649  0.24881  0.16989  1.0000
  H   H123      1.0  0.00324  0.26383  0.17506  1.0000
  H   H124      1.0  0.96936  0.25431  0.11918  1.0000
  H   H125      1.0  0.99934  0.23279  0.14537  1.0000
  C   C128      1.0  0.93880  0.21003  0.17298  1.0000
  H   H126      1.0  0.92109  0.19580  0.18107  1.0000
  H   H127      1.0  0.95958  0.20098  0.14598  1.0000
  H   H128      1.0  0.92983  0.22297  0.12299  1.0000
  C   C129      1.0  0.13626  0.27230  0.28052  1.0000
  C   C130      1.0  0.10571  0.28170  0.28195  1.0000
  H   H129      1.0  0.09667  0.28879  0.22340  1.0000
  H   H130      1.0  0.14857  0.27309  0.22124  1.0000
  C   C131      1.0  0.87581  0.73972  0.28052  1.0000
  C   C132      1.0  0.90636  0.73034  0.28190  1.0000
  H   H131      1.0  0.91541  0.72326  0.22334  1.0000
  H   H132      1.0  0.86350  0.73893  0.22124  1.0000
  C   C133      1.0  0.36262  0.76119  0.33315  1.0000
  C   C134      1.0  0.42484  0.78038  0.33014  1.0000
  C   C135      1.0  0.41182  0.76978  0.25020  1.0000
  C   C136      1.0  0.38038  0.76037  0.25144  1.0000
  C   C137      1.0  0.43060  0.76876  0.16476  1.0000
  H   H133      1.0  0.45379  0.77695  0.16978  1.0000
  H   H134      1.0  0.41853  0.77870  0.11119  1.0000
  H   H135      1.0  0.43378  0.74964  0.14418  1.0000
  C   C138      1.0  0.36634  0.75008  0.16675  1.0000
  H   H136      1.0  0.34198  0.74458  0.17318  1.0000
  H   H137      1.0  0.37951  0.73390  0.14522  1.0000
  H   H138      1.0  0.36695  0.76384  0.11326  1.0000
  C   C139      1.0  0.64946  0.25082  0.33313  1.0000
  C   C140      1.0  0.58721  0.23170  0.33027  1.0000
  C   C141      1.0  0.60023  0.24226  0.25026  1.0000
  C   C142      1.0  0.63168  0.25165  0.25144  1.0000
  C   C143      1.0  0.58142  0.24329  0.16486  1.0000
  H   H139      1.0  0.55823  0.23512  0.16993  1.0000
  H   H140      1.0  0.59347  0.23332  0.11129  1.0000
  H   H141      1.0  0.57828  0.26241  0.14424  1.0000
  C   C144      1.0  0.64571  0.26192  0.16671  1.0000
  H   H142      1.0  0.67008  0.26739  0.17308  1.0000
  H   H143      1.0  0.63257  0.27811  0.14521  1.0000
  H   H144      1.0  0.64506  0.24815  0.11323  1.0000
  C   C145      1.0  0.46504  0.09528  0.35016  1.0000
  C   C146      1.0  0.43215  0.09355  0.34155  1.0000
  C   C147      1.0  0.41678  0.07051  0.33602  1.0000
  C   C148      1.0  0.43517  0.04882  0.34080  1.0000
  C   C149      1.0  0.46824  0.04982  0.34965  1.0000
  C   C150      1.0  0.48278  0.07329  0.35284  1.0000
  H   H145      1.0  0.42428  0.03204  0.33807  1.0000
  H   H146      1.0  0.50659  0.07438  0.36007  1.0000
  H   H147      1.0  0.41912  0.10939  0.33970  1.0000
  C   C151      1.0  0.54686  0.91688  0.35038  1.0000
  C   C152      1.0  0.57977  0.91853  0.34178  1.0000
  C   C153      1.0  0.59523  0.94152  0.33593  1.0000
  C   C154      1.0  0.57691  0.96326  0.33984  1.0000
  C   C155      1.0  0.54382  0.96230  0.34805  1.0000
  C   C156      1.0  0.52918  0.93891  0.35258  1.0000
  H   H148      1.0  0.58781  0.98003  0.33636  1.0000
  H   H149      1.0  0.50539  0.93791  0.36042  1.0000
  H   H150      1.0  0.59275  0.90266  0.34030  1.0000
  C   C157      1.0  0.04704  0.59527  0.34068  1.0000
  C   C158      1.0  0.07993  0.59354  0.34929  1.0000
  C   C159      1.0  0.09530  0.57050  0.35479  1.0000
  C   C160      1.0  0.07690  0.54881  0.35001  1.0000
  C   C161      1.0  0.04383  0.54982  0.34115  1.0000
  C   C162      1.0  0.02930  0.57328  0.33797  1.0000
  H   H151      1.0  0.08779  0.53202  0.35271  1.0000
  H   H152      1.0  0.00548  0.57438  0.33074  1.0000
  H   H153      1.0  0.09296  0.60938  0.35113  1.0000
  C   C163      1.0  0.96520  0.41687  0.34043  1.0000
  C   C164      1.0  0.93230  0.41853  0.34903  1.0000
  C   C165      1.0  0.91684  0.44152  0.35486  1.0000
  C   C166      1.0  0.93516  0.46326  0.35094  1.0000
  C   C167      1.0  0.96824  0.46230  0.34271  1.0000
  C   C168      1.0  0.98288  0.43891  0.33819  1.0000
  H   H154      1.0  0.92426  0.48002  0.35441  1.0000
  H   H155      1.0  0.00668  0.43790  0.33039  1.0000
  H   H156      1.0  0.91932  0.40266  0.35052  1.0000
  C   C169      1.0  0.44192  0.49021  0.34740  1.0000
  C   C170      1.0  0.43501  0.46481  0.33951  1.0000
  C   C171      1.0  0.40378  0.45616  0.33529  1.0000
  C   C172      1.0  0.37913  0.47353  0.34065  1.0000
  C   C173      1.0  0.38506  0.49910  0.34890  1.0000
  C   C174      1.0  0.41668  0.50712  0.35098  1.0000
  H   H157      1.0  0.35644  0.46742  0.33902  1.0000
  H   H158      1.0  0.42138  0.52551  0.35781  1.0000
  H   H159      1.0  0.45304  0.45239  0.33727  1.0000
  C   C175      1.0  0.57018  0.52177  0.34941  1.0000
  C   C176      1.0  0.57709  0.54717  0.34105  1.0000
  C   C177      1.0  0.60830  0.55588  0.33642  1.0000
  C   C178      1.0  0.63300  0.53855  0.34165  1.0000
  C   C179      1.0  0.62715  0.51298  0.35020  1.0000
  C   C180      1.0  0.59555  0.50493  0.35281  1.0000
  H   H160      1.0  0.65567  0.54469  0.33960  1.0000
  H   H161      1.0  0.59093  0.48651  0.35911  1.0000
  H   H162      1.0  0.55906  0.55960  0.33902  1.0000
  C   C181      1.0  0.07014  0.99021  0.34341  1.0000
  C   C182      1.0  0.07705  0.96481  0.35130  1.0000
  C   C183      1.0  0.10829  0.95616  0.35553  1.0000
  C   C184      1.0  0.13294  0.97353  0.35018  1.0000
  C   C185      1.0  0.12700  0.99910  0.34194  1.0000
  C   C186      1.0  0.09538  0.00712  0.33985  1.0000
  H   H163      1.0  0.15562  0.96743  0.35182  1.0000
  H   H164      1.0  0.09068  0.02552  0.33302  1.0000
  H   H165      1.0  0.05902  0.95238  0.35354  1.0000
  C   C187      1.0  0.94188  0.02177  0.34138  1.0000
  C   C188      1.0  0.93497  0.04717  0.34976  1.0000
  C   C189      1.0  0.90377  0.05588  0.35439  1.0000
  C   C190      1.0  0.87906  0.03855  0.34917  1.0000
  C   C191      1.0  0.88491  0.01298  0.34062  1.0000
  C   C192      1.0  0.91651  0.00493  0.33798  1.0000
  H   H166      1.0  0.85639  0.04469  0.35123  1.0000
  H   H167      1.0  0.92113  0.98651  0.33172  1.0000
  H   H168      1.0  0.95300  0.05960  0.35179  1.0000
  C   C193      1.0  0.24295  0.11266  0.34955  1.0000
  C   C194      1.0  0.27479  0.10569  0.34482  1.0000
  C   C195      1.0  0.28387  0.08071  0.33748  1.0000
  C   C196      1.0  0.26015  0.06244  0.33576  1.0000
  C   C197      1.0  0.22795  0.06883  0.33958  1.0000
  C   C198      1.0  0.21982  0.09404  0.34657  1.0000
  H   H169      1.0  0.26636  0.04435  0.32832  1.0000
  H   H170      1.0  0.19667  0.09897  0.34843  1.0000
  H   H171      1.0  0.29167  0.11910  0.34572  1.0000
  C   C199      1.0  0.76909  0.89934  0.35015  1.0000
  C   C200      1.0  0.73724  0.90629  0.34547  1.0000
  C   C201      1.0  0.72813  0.93126  0.33810  1.0000
  C   C202      1.0  0.75182  0.94955  0.33643  1.0000
  C   C203      1.0  0.78403  0.94318  0.34019  1.0000
  C   C204      1.0  0.79220  0.91797  0.34717  1.0000
  H   H172      1.0  0.74559  0.96763  0.32878  1.0000
  H   H173      1.0  0.81535  0.91306  0.34890  1.0000
  H   H174      1.0  0.72037  0.89286  0.34633  1.0000
  C   C205      1.0  0.26913  0.61266  0.34125  1.0000
  C   C206      1.0  0.23729  0.60570  0.34592  1.0000
  C   C207      1.0  0.22820  0.58072  0.35328  1.0000
  C   C208      1.0  0.25191  0.56244  0.35493  1.0000
  C   C209      1.0  0.28411  0.56883  0.35127  1.0000
  C   C210      1.0  0.29225  0.59404  0.34427  1.0000
  H   H175      1.0  0.24570  0.54435  0.36250  1.0000
  H   H176      1.0  0.31540  0.59897  0.34245  1.0000
  H   H177      1.0  0.22040  0.61911  0.34505  1.0000
  C   C211      1.0  0.74298  0.39935  0.34066  1.0000
  C   C212      1.0  0.77483  0.40629  0.34528  1.0000
  C   C213      1.0  0.78394  0.43127  0.35266  1.0000
  C   C214      1.0  0.76024  0.44955  0.35443  1.0000
  C   C215      1.0  0.72804  0.44318  0.35067  1.0000
  C   C216      1.0  0.71987  0.41797  0.34368  1.0000
  H   H178      1.0  0.76647  0.46764  0.36203  1.0000
  H   H179      1.0  0.69672  0.41306  0.34194  1.0000
  H   H180      1.0  0.79170  0.39287  0.34443  1.0000
  C   C217      1.0  0.40514  0.31052  0.34438  1.0000
  C   C218      1.0  0.37474  0.30053  0.35010  1.0000
  C   C219      1.0  0.34796  0.31577  0.34988  1.0000
  C   C220      1.0  0.35198  0.34154  0.34134  1.0000
  C   C221      1.0  0.38226  0.35212  0.33432  1.0000
  C   C222      1.0  0.40866  0.33632  0.33681  1.0000
  H   H181      1.0  0.33268  0.35272  0.34089  1.0000
  H   H182      1.0  0.43072  0.34366  0.33341  1.0000
  H   H183      1.0  0.37209  0.28184  0.35668  1.0000
  C   C223      1.0  0.60688  0.70156  0.34418  1.0000
  C   C224      1.0  0.63729  0.71154  0.34994  1.0000
  C   C225      1.0  0.66406  0.69629  0.34973  1.0000
  C   C226      1.0  0.66001  0.67051  0.34124  1.0000
  C   C227      1.0  0.62974  0.65994  0.33421  1.0000
  C   C228      1.0  0.60334  0.67576  0.33665  1.0000
  H   H184      1.0  0.67931  0.65933  0.34085  1.0000
  H   H185      1.0  0.58128  0.66843  0.33330  1.0000
  H   H186      1.0  0.63995  0.73022  0.35648  1.0000
  C   C229      1.0  0.10694  0.81052  0.34633  1.0000
  C   C230      1.0  0.13734  0.80053  0.34059  1.0000
  C   C231      1.0  0.16412  0.81577  0.34083  1.0000
  C   C232      1.0  0.16008  0.84155  0.34941  1.0000
  C   C233      1.0  0.12981  0.85212  0.35645  1.0000
  C   C234      1.0  0.10341  0.83632  0.35395  1.0000
  H   H187      1.0  0.17938  0.85273  0.34988  1.0000
  H   H188      1.0  0.08135  0.84365  0.35737  1.0000
  H   H189      1.0  0.13999  0.78184  0.33403  1.0000
  C   C235      1.0  0.90518  0.20156  0.34655  1.0000
  C   C236      1.0  0.87477  0.21153  0.34081  1.0000
  C   C237      1.0  0.84800  0.19629  0.34101  1.0000
  C   C238      1.0  0.85205  0.17051  0.34953  1.0000
  C   C239      1.0  0.88233  0.15994  0.35658  1.0000
  C   C240      1.0  0.90872  0.17576  0.35412  1.0000
  H   H190      1.0  0.83275  0.15932  0.34993  1.0000
  H   H191      1.0  0.93078  0.16843  0.35749  1.0000
  H   H192      1.0  0.87210  0.23022  0.33427  1.0000
  C   C241      1.0  0.21613  0.21570  0.34703  1.0000
  C   C242      1.0  0.24183  0.23212  0.34676  1.0000
  C   C243      1.0  0.23734  0.25793  0.34837  1.0000
  C   C244      1.0  0.20648  0.26730  0.34882  1.0000
  C   C245      1.0  0.18032  0.25135  0.34891  1.0000
  C   C246      1.0  0.18547  0.22558  0.34748  1.0000
  H   H193      1.0  0.20303  0.28594  0.35320  1.0000
  H   H194      1.0  0.16668  0.21388  0.35015  1.0000
  H   H195      1.0  0.26414  0.22519  0.34923  1.0000
  C   C247      1.0  0.79594  0.79631  0.34717  1.0000
  C   C248      1.0  0.77024  0.77990  0.34688  1.0000
  C   C249      1.0  0.77472  0.75409  0.34841  1.0000
  C   C250      1.0  0.80558  0.74470  0.34869  1.0000
  C   C251      1.0  0.83174  0.76066  0.34893  1.0000
  C   C252      1.0  0.82660  0.78642  0.34759  1.0000
  H   H196      1.0  0.80903  0.72607  0.35318  1.0000
  H   H197      1.0  0.84539  0.79812  0.35032  1.0000
  H   H198      1.0  0.74794  0.78683  0.34940  1.0000
  C   C253      1.0  0.29594  0.71570  0.34386  1.0000
  C   C254      1.0  0.27024  0.73212  0.34420  1.0000
  C   C255      1.0  0.27473  0.75793  0.34250  1.0000
  C   C256      1.0  0.30559  0.76730  0.34215  1.0000
  C   C257      1.0  0.33175  0.75135  0.34195  1.0000
  C   C258      1.0  0.32660  0.72558  0.34336  1.0000
  H   H199      1.0  0.30904  0.78593  0.33759  1.0000
  H   H200      1.0  0.34539  0.71388  0.34063  1.0000
  H   H201      1.0  0.24794  0.72519  0.34157  1.0000
  C   C259      1.0  0.71613  0.29632  0.34368  1.0000
  C   C260      1.0  0.74184  0.27990  0.34408  1.0000
  C   C261      1.0  0.73735  0.25409  0.34244  1.0000
  C   C262      1.0  0.70649  0.24471  0.34207  1.0000
  C   C263      1.0  0.68033  0.26066  0.34188  1.0000
  C   C264      1.0  0.68547  0.28643  0.34319  1.0000
  H   H202      1.0  0.70304  0.22607  0.33764  1.0000
  H   H203      1.0  0.66668  0.29813  0.34050  1.0000
  H   H204      1.0  0.76414  0.28682  0.34144  1.0000
  C   C265      1.0  0.99992  0.27492  0.34261  1.0000
  C   C266      1.0  0.99110  0.29997  0.33813  1.0000
  C   C267      1.0  0.01381  0.31898  0.33875  1.0000
  C   C268      1.0  0.04581  0.31241  0.34650  1.0000
  C   C269      1.0  0.05514  0.28743  0.35253  1.0000
  C   C270      1.0  0.03195  0.26890  0.34964  1.0000
  H   H205      1.0  0.06251  0.32593  0.34724  1.0000
  H   H206      1.0  0.03846  0.25074  0.35260  1.0000
  H   H207      1.0  0.96788  0.30439  0.33206  1.0000
  C   C271      1.0  0.01216  0.73720  0.34242  1.0000
  C   C272      1.0  0.02101  0.71216  0.33792  1.0000
  C   C273      1.0  0.99833  0.69314  0.33864  1.0000
  C   C274      1.0  0.96632  0.69968  0.34640  1.0000
  C   C275      1.0  0.95695  0.72465  0.35241  1.0000
  C   C276      1.0  0.98013  0.74320  0.34949  1.0000
  H   H208      1.0  0.94964  0.68613  0.34722  1.0000
  H   H209      1.0  0.97359  0.76135  0.35246  1.0000
  H   H210      1.0  0.04424  0.70776  0.33189  1.0000
  C   C277      1.0  0.51215  0.77491  0.34820  1.0000
  C   C278      1.0  0.52096  0.79996  0.35274  1.0000
  C   C279      1.0  0.49827  0.81898  0.35210  1.0000
  C   C280      1.0  0.46626  0.81241  0.34433  1.0000
  C   C281      1.0  0.45692  0.78743  0.33827  1.0000
  C   C282      1.0  0.48011  0.76890  0.34115  1.0000
  H   H211      1.0  0.44957  0.82594  0.34357  1.0000
  H   H212      1.0  0.47360  0.75074  0.33817  1.0000
  H   H213      1.0  0.54419  0.80438  0.35878  1.0000
  C   C283      1.0  0.49991  0.23720  0.34838  1.0000
  C   C284      1.0  0.49106  0.21217  0.35290  1.0000
  C   C285      1.0  0.51374  0.19314  0.35221  1.0000
  C   C286      1.0  0.54575  0.19968  0.34444  1.0000
  C   C287      1.0  0.55512  0.22466  0.33841  1.0000
  C   C288      1.0  0.53195  0.24321  0.34133  1.0000
  H   H214      1.0  0.56243  0.18614  0.34362  1.0000
  H   H215      1.0  0.53847  0.26136  0.33835  1.0000
  H   H216      1.0  0.46783  0.20776  0.35893  1.0000
  C   C289      1.0  0.48676  0.02776  0.35685  1.0000
  C   C290      1.0  0.52544  0.98438  0.35512  1.0000
  C   C291      1.0  0.52309  0.99897  0.43522  1.0000
  C   C292      1.0  0.50360  0.02062  0.43621  1.0000
  C   C293      1.0  0.54037  0.99151  0.51897  1.0000
  H   H217      1.0  0.55438  0.97489  0.51197  1.0000
  H   H218      1.0  0.52381  0.98798  0.57346  1.0000
  H   H219      1.0  0.55627  0.00619  0.53938  1.0000
  C   C294      1.0  0.50028  0.03518  0.52167  1.0000
  H   H220      1.0  0.48376  0.05038  0.51765  1.0000
  H   H221      1.0  0.52290  0.04291  0.54075  1.0000
  H   H222      1.0  0.49189  0.02334  0.57594  1.0000
  C   C295      1.0  0.02290  0.51273  0.41137  1.0000
  C   C296      1.0  0.00412  0.49151  0.41211  1.0000
  H   H223      1.0  0.00302  0.48137  0.47031  1.0000
  H   H224      1.0  0.03456  0.51736  0.46934  1.0000
  C   C297      1.0  0.36544  0.06368  0.40280  1.0000
  C   C298      1.0  0.33271  0.06616  0.40317  1.0000
  H   H225      1.0  0.32092  0.06264  0.46198  1.0000
  H   H226      1.0  0.37629  0.05845  0.46139  1.0000
  C   C299      1.0  0.64652  0.94830  0.40305  1.0000
  C   C300      1.0  0.67924  0.94581  0.40362  1.0000
  H   H227      1.0  0.69100  0.94934  0.46247  1.0000
  H   H228      1.0  0.63562  0.95356  0.46154  1.0000
  C   C301      1.0  0.12873  0.56986  0.36478  1.0000
  C   C302      1.0  0.19562  0.57493  0.36397  1.0000
  C   C303      1.0  0.17822  0.58047  0.44393  1.0000
  C   C304      1.0  0.14469  0.57793  0.44433  1.0000
  C   C305      1.0  0.19481  0.58898  0.52750  1.0000
  H   H229      1.0  0.22020  0.58952  0.52164  1.0000
  H   H230      1.0  0.18968  0.57658  0.58342  1.0000
  H   H231      1.0  0.18707  0.60750  0.54511  1.0000
  C   C306      1.0  0.12658  0.58372  0.52839  1.0000
  H   H232      1.0  0.10153  0.58033  0.52319  1.0000
  H   H233      1.0  0.12963  0.60308  0.54596  1.0000
  H   H234      1.0  0.13487  0.57234  0.58408  1.0000
  C   C307      1.0  0.88340  0.44210  0.36461  1.0000
  C   C308      1.0  0.81652  0.43704  0.36349  1.0000
  C   C309      1.0  0.83387  0.43150  0.44354  1.0000
  C   C310      1.0  0.86740  0.43403  0.44409  1.0000
  C   C311      1.0  0.81723  0.42300  0.52704  1.0000
  H   H235      1.0  0.79184  0.42248  0.52107  1.0000
  H   H236      1.0  0.82234  0.43541  0.58296  1.0000
  H   H237      1.0  0.82494  0.40448  0.54472  1.0000
  C   C312      1.0  0.88546  0.42823  0.52823  1.0000
  H   H238      1.0  0.91052  0.43158  0.52310  1.0000
  H   H239      1.0  0.88237  0.40888  0.54581  1.0000
  H   H240      1.0  0.87717  0.43963  0.58386  1.0000
  C   C313      1.0  0.47950  0.11893  0.35972  1.0000
  C   C314      1.0  0.50406  0.16798  0.36091  1.0000
  C   C315      1.0  0.49019  0.15802  0.44084  1.0000
  C   C316      1.0  0.47772  0.13342  0.44011  1.0000
  C   C317      1.0  0.48896  0.17296  0.52586  1.0000
  H   H241      1.0  0.50035  0.19084  0.52118  1.0000
  H   H242      1.0  0.50074  0.16318  0.58039  1.0000
  H   H243      1.0  0.46464  0.17623  0.54489  1.0000
  C   C318      1.0  0.46311  0.12304  0.52391  1.0000
  H   H244      1.0  0.45490  0.10415  0.51735  1.0000
  H   H245      1.0  0.44299  0.13420  0.54343  1.0000
  H   H246      1.0  0.48009  0.12300  0.57883  1.0000
  C   C319      1.0  0.53235  0.89325  0.36002  1.0000
  C   C320      1.0  0.50791  0.84414  0.36094  1.0000
  C   C321      1.0  0.52182  0.85408  0.44084  1.0000
  C   C322      1.0  0.53425  0.87870  0.44024  1.0000
  C   C323      1.0  0.52315  0.83909  0.52576  1.0000
  H   H247      1.0  0.51178  0.82121  0.52102  1.0000
  H   H248      1.0  0.51139  0.84883  0.58042  1.0000
  H   H249      1.0  0.54748  0.83585  0.54461  1.0000
  C   C324      1.0  0.54894  0.88904  0.52397  1.0000
  H   H250      1.0  0.55706  0.90795  0.51754  1.0000
  H   H251      1.0  0.56912  0.87790  0.54314  1.0000
  H   H252      1.0  0.53203  0.88899  0.57910  1.0000
  C   C325      1.0  0.01775  0.62890  0.40788  1.0000
  C   C326      1.0  0.00575  0.65294  0.40732  1.0000
  H   H253      1.0  0.99631  0.65973  0.46579  1.0000
  H   H254      1.0  0.01658  0.61901  0.46666  1.0000
  C   C327      1.0  0.99461  0.38330  0.40753  1.0000
  C   C328      1.0  0.00656  0.35924  0.40711  1.0000
  H   H255      1.0  0.01603  0.35247  0.46558  1.0000
  H   H256      1.0  0.99585  0.39322  0.46623  1.0000
  C   C329      1.0  0.53821  0.51362  0.35594  1.0000
  C   C330      1.0  0.47381  0.49829  0.35523  1.0000
  C   C331      1.0  0.49212  0.49593  0.43559  1.0000
  C   C332      1.0  0.52430  0.50385  0.43619  1.0000
  C   C333      1.0  0.47772  0.48569  0.51993  1.0000
  H   H257      1.0  0.45329  0.48035  0.51320  1.0000
  H   H258      1.0  0.47858  0.49938  0.57367  1.0000
  H   H259      1.0  0.49054  0.46933  0.54129  1.0000
  C   C334      1.0  0.54280  0.50248  0.52201  1.0000
  H   H260      1.0  0.56623  0.51018  0.51744  1.0000
  H   H261      1.0  0.54523  0.48332  0.54291  1.0000
  H   H262      1.0  0.53096  0.51276  0.57520  1.0000
  C   C335      1.0  0.99271  0.01601  0.41265  1.0000
  C   C336      1.0  0.02417  0.00855  0.41300  1.0000
  H   H263      1.0  0.03669  0.01036  0.47162  1.0000
  H   H264      1.0  0.98349  0.02304  0.47104  1.0000
  C   C337      1.0  0.37996  0.39267  0.40308  1.0000
  C   C338      1.0  0.38533  0.41815  0.40340  1.0000
  H   H265      1.0  0.38100  0.42772  0.46166  1.0000
  H   H266      1.0  0.37197  0.38460  0.46118  1.0000
  C   C339      1.0  0.63213  0.61943  0.40330  1.0000
  C   C340      1.0  0.62678  0.59395  0.40392  1.0000
  H   H267      1.0  0.63121  0.58443  0.46222  1.0000
  H   H268      1.0  0.64019  0.62754  0.46123  1.0000
  C   C341      1.0  0.12564  0.87823  0.36463  1.0000
  C   C342      1.0  0.11463  0.93032  0.36396  1.0000
  C   C343      1.0  0.10855  0.91627  0.44372  1.0000
  C   C344      1.0  0.11410  0.89014  0.44407  1.0000
  C   C345      1.0  0.09704  0.92873  0.52771  1.0000
  H   H269      1.0  0.09443  0.94859  0.52188  1.0000
  H   H270      1.0  0.11347  0.92565  0.58288  1.0000
  H   H271      1.0  0.07422  0.92132  0.54648  1.0000
  C   C346      1.0  0.10842  0.87559  0.52852  1.0000
  H   H272      1.0  0.11440  0.85617  0.52343  1.0000
  H   H273      1.0  0.08375  0.87666  0.54702  1.0000
  H   H274      1.0  0.12254  0.88294  0.58359  1.0000
  C   C347      1.0  0.88650  0.13382  0.36449  1.0000
  C   C348      1.0  0.89749  0.08172  0.36318  1.0000
  C   C349      1.0  0.90367  0.09571  0.44300  1.0000
  C   C350      1.0  0.89813  0.12185  0.44369  1.0000
  C   C351      1.0  0.91529  0.08319  0.52674  1.0000
  H   H275      1.0  0.91791  0.06333  0.52065  1.0000
  H   H276      1.0  0.89893  0.08622  0.58211  1.0000
  H   H277      1.0  0.93813  0.09059  0.54536  1.0000
  C   C352      1.0  0.90390  0.13633  0.52825  1.0000
  H   H278      1.0  0.89792  0.15575  0.52341  1.0000
  H   H279      1.0  0.92860  0.13525  0.54650  1.0000
  H   H280      1.0  0.88985  0.12894  0.58336  1.0000
  C   C353      1.0  0.30836  0.55064  0.35897  1.0000
  C   C354      1.0  0.35956  0.51628  0.35711  1.0000
  C   C355      1.0  0.35249  0.52979  0.43750  1.0000
  C   C356      1.0  0.32699  0.54714  0.43820  1.0000
  C   C357      1.0  0.37101  0.52554  0.52204  1.0000
  H   H281      1.0  0.38886  0.51134  0.51651  1.0000
  H   H282      1.0  0.35551  0.51972  0.57646  1.0000
  H   H283      1.0  0.38281  0.54251  0.54182  1.0000
  C   C358      1.0  0.31968  0.56121  0.52272  1.0000
  H   H284      1.0  0.29963  0.57349  0.51741  1.0000
  H   H285      1.0  0.33976  0.57249  0.54171  1.0000
  H   H286      1.0  0.31438  0.54849  0.57753  1.0000
  C   C359      1.0  0.70381  0.46138  0.35872  1.0000
  C   C360      1.0  0.65271  0.49584  0.35792  1.0000
  C   C361      1.0  0.66013  0.48247  0.43836  1.0000
  C   C362      1.0  0.68551  0.46500  0.43847  1.0000
  C   C363      1.0  0.64209  0.48698  0.52354  1.0000
  H   H287      1.0  0.62469  0.50151  0.51853  1.0000
  H   H288      1.0  0.65794  0.49254  0.57749  1.0000
  H   H289      1.0  0.62990  0.47021  0.54364  1.0000
  C   C364      1.0  0.69301  0.45096  0.52291  1.0000
  H   H290      1.0  0.71280  0.43845  0.51695  1.0000
  H   H291      1.0  0.67284  0.43992  0.54295  1.0000
  H   H292      1.0  0.69881  0.46369  0.57727  1.0000
  C   C365      1.0  0.19672  0.03658  0.40934  1.0000
  C   C366      1.0  0.17173  0.01979  0.41018  1.0000
  H   H293      1.0  0.16726  0.01041  0.46876  1.0000
  H   H294      1.0  0.20943  0.03889  0.46737  1.0000
  C   C367      1.0  0.81549  0.97535  0.40962  1.0000
  C   C368      1.0  0.84046  0.99217  0.40997  1.0000
  H   H295      1.0  0.84516  0.00146  0.46857  1.0000
  H   H296      1.0  0.80302  0.97294  0.46800  1.0000
  C   C369      1.0  0.23458  0.13811  0.35503  1.0000
  C   C370      1.0  0.22135  0.18974  0.35379  1.0000
  C   C371      1.0  0.21806  0.17598  0.43557  1.0000
  C   C372      1.0  0.22444  0.14998  0.43602  1.0000
  C   C373      1.0  0.20891  0.18861  0.52157  1.0000
  H   H297      1.0  0.20599  0.20841  0.51555  1.0000
  H   H298      1.0  0.22689  0.18577  0.57274  1.0000
  H   H299      1.0  0.18676  0.18116  0.54601  1.0000
  C   C374      1.0  0.22129  0.13562  0.52198  1.0000
  H   H300      1.0  0.22670  0.11612  0.51577  1.0000
  H   H301      1.0  0.19731  0.13689  0.54682  1.0000
  H   H302      1.0  0.23716  0.14298  0.57291  1.0000
  C   C375      1.0  0.77749  0.87389  0.35550  1.0000
  C   C376      1.0  0.79073  0.82227  0.35404  1.0000
  C   C377      1.0  0.79403  0.83600  0.43586  1.0000
  C   C378      1.0  0.78764  0.86201  0.43643  1.0000
  C   C379      1.0  0.80318  0.82335  0.52182  1.0000
  H   H303      1.0  0.80608  0.80355  0.51573  1.0000
  H   H304      1.0  0.78520  0.82618  0.57301  1.0000
  H   H305      1.0  0.82532  0.83079  0.54627  1.0000
  C   C380      1.0  0.79081  0.87634  0.52243  1.0000
  H   H306      1.0  0.78541  0.89584  0.51630  1.0000
  H   H307      1.0  0.81479  0.87505  0.54725  1.0000
  H   H308      1.0  0.77494  0.86897  0.57336  1.0000
  C   C381      1.0  0.27406  0.65223  0.41509  1.0000
  C   C382      1.0  0.28062  0.67751  0.41579  1.0000
  H   H309      1.0  0.27778  0.68700  0.47500  1.0000
  H   H310      1.0  0.26663  0.64417  0.47384  1.0000
  C   C383      1.0  0.73803  0.35980  0.41466  1.0000
  C   C384      1.0  0.73146  0.33452  0.41547  1.0000
  H   H311      1.0  0.73431  0.32505  0.47470  1.0000
  H   H312      1.0  0.74547  0.36787  0.47337  1.0000
  C   C385      1.0  0.31795  0.30448  0.35989  1.0000
  C   C386      1.0  0.26345  0.27413  0.35764  1.0000
  C   C387      1.0  0.28105  0.27665  0.43916  1.0000
  C   C388      1.0  0.30853  0.29188  0.44017  1.0000
  C   C389      1.0  0.27105  0.26357  0.52352  1.0000
  H   H313      1.0  0.24950  0.25305  0.51698  1.0000
  H   H314      1.0  0.26697  0.27687  0.57736  1.0000
  H   H315      1.0  0.28929  0.25075  0.54466  1.0000
  C   C390      1.0  0.32714  0.29457  0.52545  1.0000
  H   H316      1.0  0.34663  0.30742  0.52055  1.0000
  H   H317      1.0  0.33675  0.27675  0.54516  1.0000
  H   H318      1.0  0.31223  0.30145  0.57956  1.0000
  C   C391      1.0  0.69407  0.70756  0.35980  1.0000
  C   C392      1.0  0.74861  0.73788  0.35764  1.0000
  C   C393      1.0  0.73100  0.73537  0.43914  1.0000
  C   C394      1.0  0.70350  0.72015  0.44009  1.0000
  C   C395      1.0  0.74099  0.74844  0.52353  1.0000
  H   H319      1.0  0.76256  0.75894  0.51702  1.0000
  H   H320      1.0  0.74506  0.73513  0.57736  1.0000
  H   H321      1.0  0.72276  0.76127  0.54465  1.0000
  C   C396      1.0  0.68488  0.71747  0.52534  1.0000
  H   H322      1.0  0.66538  0.70463  0.52041  1.0000
  H   H323      1.0  0.67529  0.73529  0.54506  1.0000
  H   H324      1.0  0.69977  0.71057  0.57946  1.0000
  C   C397      1.0  0.21267  0.80242  0.40919  1.0000
  C   C398      1.0  0.23951  0.78759  0.41022  1.0000
  H   H325      1.0  0.25165  0.78588  0.46953  1.0000
  H   H326      1.0  0.20590  0.81074  0.46812  1.0000
  C   C399      1.0  0.79943  0.20962  0.40927  1.0000
  C   C400      1.0  0.77257  0.22444  0.41024  1.0000
  H   H327      1.0  0.76042  0.22616  0.46954  1.0000
  H   H328      1.0  0.80619  0.20132  0.46823  1.0000
  C   C401      1.0  0.43126  0.29429  0.35013  1.0000
  C   C402      1.0  0.47714  0.25630  0.35358  1.0000
  C   C403      1.0  0.47020  0.26957  0.43441  1.0000
  C   C404      1.0  0.44691  0.28864  0.43279  1.0000
  C   C405      1.0  0.48647  0.26332  0.52109  1.0000
  H   H329      1.0  0.50324  0.24831  0.51591  1.0000
  H   H330      1.0  0.46934  0.25780  0.57176  1.0000
  H   H331      1.0  0.49929  0.27934  0.54565  1.0000
  C   C406      1.0  0.43874  0.30207  0.51799  1.0000
  H   H332      1.0  0.42101  0.31628  0.50989  1.0000
  H   H333      1.0  0.45950  0.31113  0.54502  1.0000
  H   H334      1.0  0.42978  0.28912  0.56796  1.0000
  C   C407      1.0  0.58078  0.71780  0.34994  1.0000
  C   C408      1.0  0.53493  0.75583  0.35341  1.0000
  C   C409      1.0  0.54185  0.74255  0.43422  1.0000
  C   C410      1.0  0.56513  0.72346  0.43260  1.0000
  C   C411      1.0  0.52559  0.74880  0.52092  1.0000
  H   H335      1.0  0.50883  0.76383  0.51574  1.0000
  H   H336      1.0  0.54272  0.75431  0.57160  1.0000
  H   H337      1.0  0.51274  0.73278  0.54544  1.0000
  C   C412      1.0  0.57328  0.71003  0.51779  1.0000
  H   H338      1.0  0.59100  0.69581  0.50969  1.0000
  H   H339      1.0  0.55251  0.70098  0.54482  1.0000
  H   H340      1.0  0.58225  0.72297  0.56778  1.0000
  C   C413      1.0  0.07337  0.78092  0.41931  1.0000
  C   C414      1.0  0.05073  0.76230  0.41773  1.0000
  H   H341      1.0  0.04608  0.75297  0.47634  1.0000
  H   H342      1.0  0.08486  0.78432  0.47874  1.0000
  C   C415      1.0  0.93872  0.23119  0.41948  1.0000
  C   C416      1.0  0.96134  0.24982  0.41790  1.0000
  H   H343      1.0  0.96598  0.25915  0.47650  1.0000
  H   H344      1.0  0.92723  0.22779  0.47892  1.0000
  C   C417      1.0  0.14945  0.26119  0.35768  1.0000
  C   C418      1.0  0.08723  0.28037  0.36064  1.0000
  C   C419      1.0  0.10025  0.26978  0.44061  1.0000
  C   C420      1.0  0.13168  0.26037  0.43939  1.0000
  C   C421      1.0  0.08146  0.26876  0.52604  1.0000
  H   H345      1.0  0.05827  0.27695  0.52101  1.0000
  H   H346      1.0  0.09353  0.27871  0.57960  1.0000
  H   H347      1.0  0.07829  0.24964  0.54664  1.0000
  C   C422      1.0  0.14572  0.25008  0.52409  1.0000
  H   H348      1.0  0.17008  0.24458  0.51767  1.0000
  H   H349      1.0  0.13255  0.23391  0.54561  1.0000
  H   H350      1.0  0.14511  0.26385  0.57757  1.0000
  C   C423      1.0  0.86261  0.75082  0.35768  1.0000
  C   C424      1.0  0.92486  0.73168  0.36057  1.0000
  C   C425      1.0  0.91184  0.74225  0.44055  1.0000
  C   C426      1.0  0.88040  0.75165  0.43937  1.0000
  C   C427      1.0  0.93064  0.74329  0.52596  1.0000
  H   H351      1.0  0.95384  0.73512  0.52090  1.0000
  H   H352      1.0  0.91859  0.73332  0.57954  1.0000
  H   H353      1.0  0.93379  0.76241  0.54657  1.0000
  C   C428      1.0  0.86636  0.76192  0.52410  1.0000
  H   H354      1.0  0.84199  0.76740  0.51772  1.0000
  H   H355      1.0  0.87950  0.77811  0.54561  1.0000
  H   H356      1.0  0.86701  0.74815  0.57758  1.0000
  C   C429      1.0  0.37582  0.77229  0.41030  1.0000
  C   C430      1.0  0.40636  0.78170  0.40886  1.0000
  H   H357      1.0  0.41541  0.78878  0.46740  1.0000
  H   H358      1.0  0.36352  0.77308  0.46960  1.0000
  C   C431      1.0  0.63627  0.23972  0.41029  1.0000
  C   C432      1.0  0.60571  0.23034  0.40892  1.0000
  H   H359      1.0  0.59667  0.22326  0.46748  1.0000
  H   H360      1.0  0.64858  0.23892  0.46956  1.0000
