data_image0
_chemical_formula_structural       C3HNO2CH2C3HNO2CH2C3HNO2CH2C3HNO2CH2C3HNO2CH2C3HNO2CH2C3HNO2CH2C3HNO2CH2C3HNO2CH2C3HNO2CH2C3HNO2CH2C3HNO2CH2C3HNO2CH2C3HNO2CH2C3HNO2CH2C3HNO2CH2C3HNO2CH2C3HNO2CH2C3HNO2CH2C3HNO2CH2C3HNO2CH2C3HNO2CH2C3HNO2CH2C3HNO2CH2C3HNO2CH2C3HNO2CH2C3HNO2CH2C3HNO2CH2C3HNO2CH2C3HNO2CH2CNCNCN2HNHNHCNCNCN2HNHNHCNCNCN2HNHNHCNCNCN2HNHNHCNCNCN2HNHNHCNCNCN2HNHNHCNCNCN2HNHNHCNCNCN2HNHNHCNCNCN2HNHNHCNCNCN2HNHNHCNCNCN2HNHNHCNCNCN2HNHNHCNCNCN2HNHNHCNCNCN2HNHNHCNCNCN2HNHNHCNCNCN2HNHNHCNCNCN2HNHNHCNCNCN2HNHNHCNCNCN2HNHNHCNCNCN2HNHNHC3HNO2CH2C3HNO2CH2C3HNO2CH2C3HNO2CH2C3HNO2CH2C3HNO2CH2C3HNO2CH2C3HNO2CH2C3HNO2CH2C3HNO2CH2C3HNO2CH2C3HNO2CH2C3HNO2CH2C3HNO2CH2C3HNO2CH2C3HNO2CH2C3HNO2CH2C3HNO2CH2C3HNO2CH2C3HNO2CH2C3HNO2CH2C3HNO2CH2C3HNO2CH2C3HNO2CH2C3HNO2CH2C3HNO2CH2C3HNO2CH2C3HNO2CH2C3HNO2CH2C3HNO2CH2
_chemical_formula_sum              "C300 H240 N180 O120"
_cell_length_a       64.9541
_cell_length_b       64.723
_cell_length_c       15.0106
_cell_angle_alpha    90
_cell_angle_beta     90
_cell_angle_gamma    90.0026

_space_group_name_H-M_alt    "P 1"
_space_group_IT_number       1

loop_
  _space_group_symop_operation_xyz
  'x, y, z'

loop_
  _atom_site_type_symbol
  _atom_site_label
  _atom_site_symmetry_multiplicity
  _atom_site_fract_x
  _atom_site_fract_y
  _atom_site_fract_z
  _atom_site_occupancy
  C   C1        1.0  0.35608  0.05262  0.31242  1.0000
  C   C2        1.0  0.34046  0.05725  0.24896  1.0000
  C   C3        1.0  0.31953  0.05401  0.27118  1.0000
  H   H1        1.0  0.30861  0.05713  0.22406  1.0000
  N   N1        1.0  0.34577  0.06486  0.16344  1.0000
  O   O1        1.0  0.34004  0.05286  0.10243  1.0000
  O   O2        1.0  0.33825  0.08247  0.14956  1.0000
  C   C4        1.0  0.37846  0.05520  0.29094  1.0000
  H   H2        1.0  0.38097  0.06043  0.22255  1.0000
  H   H3        1.0  0.38568  0.03999  0.29657  1.0000
  C   C5        1.0  0.63003  0.96517  0.26967  1.0000
  C   C6        1.0  0.64491  0.96345  0.20050  1.0000
  C   C7        1.0  0.66552  0.96947  0.21687  1.0000
  H   H4        1.0  0.67598  0.96805  0.16639  1.0000
  N   N2        1.0  0.63925  0.95550  0.11602  1.0000
  O   O3        1.0  0.64215  0.96847  0.05496  1.0000
  O   O4        1.0  0.64895  0.93925  0.09758  1.0000
  C   C8        1.0  0.60832  0.95802  0.25731  1.0000
  H   H5        1.0  0.60504  0.95312  0.18908  1.0000
  H   H6        1.0  0.59819  0.97114  0.27118  1.0000
  C   C9        1.0  0.95473  0.36181  0.29502  1.0000
  C   C10       1.0  0.94972  0.34610  0.23230  1.0000
  C   C11       1.0  0.95411  0.32518  0.25245  1.0000
  H   H7        1.0  0.95067  0.31419  0.20593  1.0000
  N   N3        1.0  0.94061  0.35132  0.14953  1.0000
  O   O5        1.0  0.95179  0.34617  0.08487  1.0000
  O   O6        1.0  0.92320  0.34311  0.14044  1.0000
  C   C12       1.0  0.95096  0.38419  0.27573  1.0000
  H   H8        1.0  0.94427  0.38677  0.20987  1.0000
  H   H9        1.0  0.96596  0.39188  0.27604  1.0000
  C   C13       1.0  0.04242  0.63482  0.27590  1.0000
  C   C14       1.0  0.04380  0.64959  0.20596  1.0000
  C   C15       1.0  0.03756  0.67023  0.22155  1.0000
  H   H10       1.0  0.03872  0.68061  0.17050  1.0000
  N   N4        1.0  0.05164  0.64379  0.12147  1.0000
  O   O7        1.0  0.03855  0.64636  0.06076  1.0000
  O   O8        1.0  0.06766  0.65369  0.10193  1.0000
  C   C16       1.0  0.04969  0.61306  0.26417  1.0000
  H   H11       1.0  0.05431  0.60961  0.19574  1.0000
  H   H12       1.0  0.03677  0.60283  0.27957  1.0000
  C   C17       1.0  0.19887  0.54782  0.32038  1.0000
  C   C18       1.0  0.18572  0.55297  0.24911  1.0000
  C   C19       1.0  0.16412  0.55475  0.25989  1.0000
  H   H13       1.0  0.19197  0.55559  0.18749  1.0000
  N   N5        1.0  0.15206  0.56077  0.18575  1.0000
  O   O9        1.0  0.15341  0.54816  0.12228  1.0000
  O   O10       1.0  0.15676  0.57849  0.15815  1.0000
  C   C20       1.0  0.22130  0.54514  0.30257  1.0000
  H   H14       1.0  0.22690  0.55846  0.26476  1.0000
  H   H15       1.0  0.22268  0.53156  0.25945  1.0000
  C   C21       1.0  0.81603  0.46468  0.34432  1.0000
  C   C22       1.0  0.82635  0.44921  0.29554  1.0000
  C   C23       1.0  0.84723  0.44428  0.31174  1.0000
  H   H16       1.0  0.81846  0.44101  0.24821  1.0000
  N   N6        1.0  0.85697  0.42821  0.26329  1.0000
  O   O11       1.0  0.85724  0.43193  0.18112  1.0000
  O   O12       1.0  0.84832  0.41109  0.27588  1.0000
  C   C24       1.0  0.79388  0.46870  0.32490  1.0000
  H   H17       1.0  0.78582  0.45382  0.32356  1.0000
  H   H18       1.0  0.79305  0.47539  0.25803  1.0000
  C   C25       1.0  0.54644  0.80808  0.33734  1.0000
  C   C26       1.0  0.55503  0.82045  0.26959  1.0000
  C   C27       1.0  0.55536  0.84231  0.27490  1.0000
  H   H19       1.0  0.56116  0.81343  0.21451  1.0000
  N   N7        1.0  0.56476  0.85366  0.20523  1.0000
  O   O13       1.0  0.55595  0.85079  0.13165  1.0000
  O   O14       1.0  0.58356  0.84944  0.19725  1.0000
  C   C28       1.0  0.54589  0.78520  0.32493  1.0000
  H   H20       1.0  0.56166  0.77955  0.31751  1.0000
  H   H21       1.0  0.53776  0.78230  0.26221  1.0000
  C   C29       1.0  0.44874  0.19667  0.30145  1.0000
  C   C30       1.0  0.44674  0.18261  0.23027  1.0000
  C   C31       1.0  0.44475  0.16105  0.24418  1.0000
  H   H22       1.0  0.44668  0.18815  0.16635  1.0000
  N   N8        1.0  0.44195  0.14797  0.16951  1.0000
  O   O15       1.0  0.45693  0.14877  0.11658  1.0000
  O   O16       1.0  0.42571  0.15212  0.12761  1.0000
  C   C32       1.0  0.45176  0.21904  0.28106  1.0000
  H   H23       1.0  0.43916  0.22434  0.23831  1.0000
  H   H24       1.0  0.46598  0.22009  0.24223  1.0000
  C   C33       1.0  0.20240  0.12488  0.35144  1.0000
  C   C34       1.0  0.20690  0.11063  0.28320  1.0000
  C   C35       1.0  0.20633  0.08902  0.29740  1.0000
  H   H25       1.0  0.20977  0.11605  0.22028  1.0000
  N   N9        1.0  0.20976  0.07577  0.22375  1.0000
  O   O17       1.0  0.22726  0.07838  0.18972  1.0000
  O   O18       1.0  0.19633  0.07801  0.16420  1.0000
  C   C36       1.0  0.20099  0.14724  0.32847  1.0000
  H   H26       1.0  0.19141  0.14833  0.26852  1.0000
  H   H27       1.0  0.21635  0.15294  0.31134  1.0000
  C   C37       1.0  0.79161  0.88003  0.35298  1.0000
  C   C38       1.0  0.77613  0.88989  0.30278  1.0000
  C   C39       1.0  0.76931  0.91008  0.32323  1.0000
  H   H28       1.0  0.76952  0.88223  0.25036  1.0000
  N   N10       1.0  0.75347  0.91940  0.27209  1.0000
  O   O19       1.0  0.73694  0.90935  0.27641  1.0000
  O   O20       1.0  0.75854  0.92130  0.19171  1.0000
  C   C40       1.0  0.79811  0.85879  0.32683  1.0000
  H   H29       1.0  0.80510  0.85991  0.26064  1.0000
  H   H30       1.0  0.78436  0.84906  0.32144  1.0000
  C   C41       1.0  0.88040  0.20443  0.35266  1.0000
  C   C42       1.0  0.89433  0.20972  0.28442  1.0000
  C   C43       1.0  0.91582  0.21093  0.29927  1.0000
  H   H31       1.0  0.88881  0.21219  0.22139  1.0000
  N   N11       1.0  0.92879  0.21592  0.22654  1.0000
  O   O21       1.0  0.92479  0.23341  0.19443  1.0000
  O   O22       1.0  0.92782  0.20266  0.16545  1.0000
  C   C44       1.0  0.85823  0.20178  0.32965  1.0000
  H   H32       1.0  0.85763  0.19165  0.27116  1.0000
  H   H33       1.0  0.85187  0.21679  0.31036  1.0000
  C   C45       1.0  0.12317  0.79879  0.34770  1.0000
  C   C46       1.0  0.11341  0.78271  0.30059  1.0000
  C   C47       1.0  0.09346  0.77579  0.32326  1.0000
  H   H34       1.0  0.12098  0.77568  0.24896  1.0000
  N   N12       1.0  0.08432  0.75928  0.27541  1.0000
  O   O23       1.0  0.09456  0.74289  0.28238  1.0000
  O   O24       1.0  0.08219  0.76353  0.19422  1.0000
  C   C48       1.0  0.14415  0.80523  0.31905  1.0000
  H   H35       1.0  0.14260  0.81208  0.25269  1.0000
  H   H36       1.0  0.15366  0.79131  0.31286  1.0000
  C   C49       1.0  0.30757  0.57497  0.30427  1.0000
  C   C50       1.0  0.29253  0.58582  0.25363  1.0000
  C   C51       1.0  0.28848  0.60686  0.27276  1.0000
  H   H37       1.0  0.27810  0.61474  0.23431  1.0000
  N   N13       1.0  0.28197  0.57577  0.18338  1.0000
  O   O25       1.0  0.26287  0.57548  0.19649  1.0000
  O   O26       1.0  0.28545  0.58420  0.10947  1.0000
  C   C52       1.0  0.31343  0.55318  0.28305  1.0000
  H   H38       1.0  0.33000  0.55311  0.26968  1.0000
  H   H39       1.0  0.30624  0.54731  0.22220  1.0000
  C   C53       1.0  0.71081  0.42573  0.26609  1.0000
  C   C54       1.0  0.69458  0.41608  0.21790  1.0000
  C   C55       1.0  0.68852  0.39570  0.24006  1.0000
  H   H40       1.0  0.67676  0.38906  0.20501  1.0000
  N   N14       1.0  0.68449  0.42683  0.14824  1.0000
  O   O27       1.0  0.68645  0.41772  0.07479  1.0000
  O   O28       1.0  0.66565  0.42921  0.16423  1.0000
  C   C56       1.0  0.71830  0.44694  0.24360  1.0000
  H   H41       1.0  0.71118  0.45330  0.18358  1.0000
  H   H42       1.0  0.73476  0.44563  0.22873  1.0000
  C   C57       1.0  0.57365  0.70472  0.26389  1.0000
  C   C58       1.0  0.58451  0.72160  0.22527  1.0000
  C   C59       1.0  0.60553  0.72472  0.24656  1.0000
  H   H43       1.0  0.61335  0.73658  0.21677  1.0000
  N   N15       1.0  0.57455  0.73481  0.16360  1.0000
  O   O29       1.0  0.57463  0.75327  0.18912  1.0000
  O   O30       1.0  0.58276  0.73387  0.08790  1.0000
  C   C60       1.0  0.55177  0.70012  0.24015  1.0000
  H   H44       1.0  0.55151  0.68455  0.21158  1.0000
  H   H45       1.0  0.54564  0.71023  0.18815  1.0000
  C   C61       1.0  0.42219  0.30789  0.29783  1.0000
  C   C62       1.0  0.41214  0.29398  0.23866  1.0000
  C   C63       1.0  0.39094  0.28967  0.25027  1.0000
  H   H46       1.0  0.38365  0.28018  0.20576  1.0000
  N   N16       1.0  0.42323  0.28470  0.16795  1.0000
  O   O31       1.0  0.42344  0.26534  0.17469  1.0000
  O   O32       1.0  0.41594  0.28953  0.09322  1.0000
  C   C64       1.0  0.44405  0.31433  0.28407  1.0000
  H   H47       1.0  0.44420  0.33122  0.27970  1.0000
  H   H48       1.0  0.45050  0.30896  0.22086  1.0000
  C   C65       1.0  0.22449  0.94877  0.28364  1.0000
  C   C66       1.0  0.23513  0.93044  0.25892  1.0000
  C   C67       1.0  0.22723  0.91104  0.28542  1.0000
  H   H49       1.0  0.23497  0.89790  0.26740  1.0000
  N   N17       1.0  0.25360  0.93159  0.20896  1.0000
  O   O33       1.0  0.25197  0.92248  0.13536  1.0000
  O   O34       1.0  0.26858  0.92407  0.25087  1.0000
  C   C68       1.0  0.23233  0.96963  0.25831  1.0000
  H   H50       1.0  0.21964  0.97807  0.22686  1.0000
  H   H51       1.0  0.24469  0.96909  0.20894  1.0000
  C   C69       1.0  0.78013  0.05935  0.30874  1.0000
  C   C70       1.0  0.77439  0.07602  0.25205  1.0000
  C   C71       1.0  0.77818  0.09657  0.27951  1.0000
  H   H52       1.0  0.77389  0.10848  0.23862  1.0000
  N   N18       1.0  0.76462  0.07216  0.16929  1.0000
  O   O35       1.0  0.77501  0.07897  0.10501  1.0000
  O   O36       1.0  0.74689  0.07991  0.16628  1.0000
  C   C72       1.0  0.77543  0.03743  0.28450  1.0000
  H   H53       1.0  0.78960  0.02840  0.29025  1.0000
  H   H54       1.0  0.77029  0.03587  0.21546  1.0000
  C   C73       1.0  0.05942  0.22557  0.30300  1.0000
  C   C74       1.0  0.07657  0.23338  0.25459  1.0000
  C   C75       1.0  0.09674  0.22932  0.28546  1.0000
  H   H55       1.0  0.10902  0.23484  0.24992  1.0000
  N   N19       1.0  0.07355  0.24514  0.17608  1.0000
  O   O37       1.0  0.08156  0.23663  0.10926  1.0000
  O   O38       1.0  0.08073  0.26309  0.18368  1.0000
  C   C76       1.0  0.03781  0.22939  0.27309  1.0000
  H   H56       1.0  0.03034  0.21435  0.26528  1.0000
  H   H57       1.0  0.03692  0.23704  0.20826  1.0000
  C   C77       1.0  0.94620  0.78461  0.29035  1.0000
  C   C78       1.0  0.92927  0.77790  0.23766  1.0000
  C   C79       1.0  0.90898  0.78241  0.26573  1.0000
  H   H58       1.0  0.89685  0.77729  0.22812  1.0000
  N   N20       1.0  0.93259  0.76639  0.15866  1.0000
  O   O39       1.0  0.92553  0.77551  0.09136  1.0000
  O   O40       1.0  0.92472  0.74868  0.16325  1.0000
  C   C80       1.0  0.96784  0.77896  0.26658  1.0000
  H   H59       1.0  0.97717  0.79304  0.26725  1.0000
  H   H60       1.0  0.96911  0.77256  0.19940  1.0000
  C   C81       1.0  0.29368  0.40419  0.31783  1.0000
  C   C82       1.0  0.30306  0.42182  0.28076  1.0000
  C   C83       1.0  0.29804  0.44191  0.31071  1.0000
  H   H61       1.0  0.31386  0.42012  0.23165  1.0000
  N   N21       1.0  0.30792  0.45941  0.27318  1.0000
  O   O41       1.0  0.30444  0.46092  0.19107  1.0000
  O   O42       1.0  0.32706  0.45895  0.28544  1.0000
  C   C84       1.0  0.29896  0.38305  0.28683  1.0000
  H   H62       1.0  0.30899  0.38349  0.22819  1.0000
  H   H63       1.0  0.28461  0.37551  0.26658  1.0000
  C   C85       1.0  0.70414  0.60601  0.31622  1.0000
  C   C86       1.0  0.69695  0.58969  0.26241  1.0000
  C   C87       1.0  0.70126  0.56883  0.28348  1.0000
  H   H64       1.0  0.68861  0.59294  0.20629  1.0000
  N   N22       1.0  0.69403  0.55269  0.22777  1.0000
  O   O43       1.0  0.70123  0.55410  0.15028  1.0000
  O   O44       1.0  0.67471  0.55251  0.22329  1.0000
  C   C88       1.0  0.70033  0.62799  0.29250  1.0000
  H   H65       1.0  0.69225  0.62925  0.22866  1.0000
  H   H66       1.0  0.71535  0.63543  0.28440  1.0000
  C   C89       1.0  0.40093  0.70916  0.32727  1.0000
  C   C90       1.0  0.41792  0.70163  0.27885  1.0000
  C   C91       1.0  0.43835  0.70603  0.30538  1.0000
  H   H67       1.0  0.41551  0.69265  0.22371  1.0000
  N   N23       1.0  0.45521  0.69809  0.25604  1.0000
  O   O45       1.0  0.45518  0.70460  0.17714  1.0000
  O   O46       1.0  0.45525  0.67868  0.25500  1.0000
  C   C92       1.0  0.37944  0.70437  0.30029  1.0000
  H   H68       1.0  0.37898  0.69626  0.23626  1.0000
  H   H69       1.0  0.37135  0.71906  0.29147  1.0000
  C   C93       1.0  0.59016  0.29562  0.30617  1.0000
  C   C94       1.0  0.57202  0.30633  0.28348  1.0000
  C   C95       1.0  0.55243  0.29896  0.30954  1.0000
  H   H70       1.0  0.57299  0.31985  0.24839  1.0000
  N   N24       1.0  0.53441  0.31012  0.28660  1.0000
  O   O47       1.0  0.53220  0.31140  0.20359  1.0000
  O   O48       1.0  0.53448  0.32802  0.31904  1.0000
  C   C96       1.0  0.61083  0.30373  0.28201  1.0000
  H   H71       1.0  0.60974  0.31797  0.24295  1.0000
  H   H72       1.0  0.61845  0.29212  0.24050  1.0000
  C   C97       1.0  0.24184  0.29630  0.29488  1.0000
  C   C98       1.0  0.24483  0.27722  0.25183  1.0000
  C   C99       1.0  0.23025  0.26105  0.25814  1.0000
  H   H73       1.0  0.25806  0.27488  0.21615  1.0000
  N   N25       1.0  0.23458  0.24207  0.21517  1.0000
  O   O49       1.0  0.25064  0.23368  0.24471  1.0000
  O   O50       1.0  0.23616  0.24414  0.13217  1.0000
  C   C100      1.0  0.25814  0.31234  0.29113  1.0000
  H   H74       1.0  0.25250  0.32713  0.31690  1.0000
  H   H75       1.0  0.26241  0.31476  0.22136  1.0000
  C   C101      1.0  0.75235  0.71907  0.32094  1.0000
  C   C102      1.0  0.75367  0.73560  0.26013  1.0000
  C   C103      1.0  0.76675  0.75268  0.27583  1.0000
  H   H76       1.0  0.74446  0.73563  0.20477  1.0000
  N   N26       1.0  0.76722  0.76936  0.21461  1.0000
  O   O51       1.0  0.74991  0.77785  0.20694  1.0000
  O   O52       1.0  0.77319  0.76361  0.13889  1.0000
  C   C104      1.0  0.73707  0.70222  0.30845  1.0000
  H   H77       1.0  0.74411  0.68732  0.32486  1.0000
  H   H78       1.0  0.73234  0.70148  0.23850  1.0000
  C   C105      1.0  0.71954  0.25890  0.31516  1.0000
  C   C106      1.0  0.73016  0.25000  0.24285  1.0000
  C   C107      1.0  0.74580  0.23502  0.25495  1.0000
  H   H79       1.0  0.72660  0.25465  0.17946  1.0000
  N   N27       1.0  0.75642  0.22748  0.17923  1.0000
  O   O53       1.0  0.76592  0.24158  0.13882  1.0000
  O   O54       1.0  0.74458  0.21853  0.12535  1.0000
  C   C108      1.0  0.70334  0.27466  0.29655  1.0000
  H   H80       1.0  0.69201  0.26777  0.25135  1.0000
  H   H81       1.0  0.71087  0.28740  0.26137  1.0000
  C   C109      1.0  0.27637  0.74664  0.30903  1.0000
  C   C110      1.0  0.26636  0.75509  0.23419  1.0000
  C   C111      1.0  0.25173  0.77121  0.24179  1.0000
  H   H82       1.0  0.26957  0.74924  0.17232  1.0000
  N   N28       1.0  0.24162  0.77821  0.16383  1.0000
  O   O55       1.0  0.23122  0.76418  0.12740  1.0000
  O   O56       1.0  0.25401  0.78554  0.10772  1.0000
  C   C112      1.0  0.29140  0.72953  0.29506  1.0000
  H   H83       1.0  0.30322  0.73493  0.24849  1.0000
  H   H84       1.0  0.28298  0.71690  0.26305  1.0000
  C   C113      1.0  0.51635  0.99171  0.34465  1.0000
  C   C114      1.0  0.51561  0.00974  0.29193  1.0000
  C   C115      1.0  0.50132  0.02576  0.30871  1.0000
  H   H85       1.0  0.52575  0.01139  0.24017  1.0000
  N   N29       1.0  0.50111  0.04372  0.25461  1.0000
  O   O57       1.0  0.49725  0.03946  0.17463  1.0000
  O   O58       1.0  0.51793  0.05327  0.25827  1.0000
  C   C116      1.0  0.53207  0.97568  0.32286  1.0000
  H   H86       1.0  0.54708  0.98340  0.32122  1.0000
  H   H87       1.0  0.52871  0.97012  0.25554  1.0000
  C   C117      1.0  0.01630  0.52158  0.36557  1.0000
  C   C118      1.0  0.99767  0.52116  0.31739  1.0000
  C   C119      1.0  0.98224  0.50628  0.33464  1.0000
  H   H88       1.0  0.99514  0.53194  0.26869  1.0000
  N   N30       1.0  0.96361  0.50641  0.28532  1.0000
  O   O59       1.0  0.96677  0.50373  0.20353  1.0000
  O   O60       1.0  0.95385  0.52300  0.29584  1.0000
  C   C120      1.0  0.03177  0.53777  0.34291  1.0000
  H   H89       1.0  0.02391  0.55274  0.34505  1.0000
  H   H90       1.0  0.03658  0.53498  0.27405  1.0000
  C   C121      1.0  0.22129  0.03309  0.33158  1.0000
  N   N31       1.0  0.22203  0.01216  0.33704  1.0000
  C   C122      1.0  0.24015  0.00186  0.33321  1.0000
  N   N32       1.0  0.25786  0.01276  0.32403  1.0000
  C   C123      1.0  0.25766  0.03373  0.31953  1.0000
  N   N33       1.0  0.23923  0.04371  0.32230  1.0000
  N   N34       1.0  0.23991  0.98018  0.33980  1.0000
  H   H91       1.0  0.25434  0.97472  0.35522  1.0000
  N   N35       1.0  0.27648  0.04430  0.30685  1.0000
  H   H92       1.0  0.27375  0.05979  0.29740  1.0000
  N   N36       1.0  0.20212  0.04345  0.33168  1.0000
  H   H93       1.0  0.19037  0.03280  0.33176  1.0000
  C   C124      1.0  0.76272  0.97281  0.32738  1.0000
  N   N37       1.0  0.76780  0.99288  0.34225  1.0000
  C   C125      1.0  0.75402  0.00826  0.32645  1.0000
  N   N38       1.0  0.73489  0.00327  0.29649  1.0000
  C   C126      1.0  0.72949  0.98333  0.28099  1.0000
  N   N39       1.0  0.74363  0.96829  0.29634  1.0000
  N   N40       1.0  0.75937  0.02896  0.34488  1.0000
  H   H94       1.0  0.74644  0.03808  0.34017  1.0000
  N   N41       1.0  0.70932  0.97844  0.25253  1.0000
  H   H95       1.0  0.70882  0.96299  0.23664  1.0000
  N   N42       1.0  0.77658  0.95639  0.34170  1.0000
  H   H96       1.0  0.79126  0.96186  0.35134  1.0000
  C   C127      1.0  0.97306  0.22655  0.32775  1.0000
  N   N43       1.0  0.99386  0.22598  0.33640  1.0000
  C   C128      1.0  0.00539  0.24333  0.32765  1.0000
  N   N44       1.0  0.99574  0.26154  0.31111  1.0000
  C   C129      1.0  0.97493  0.26264  0.30338  1.0000
  N   N45       1.0  0.96376  0.24495  0.31103  1.0000
  N   N46       1.0  0.02688  0.24222  0.34017  1.0000
  H   H97       1.0  0.03313  0.25681  0.33992  1.0000
  N   N47       1.0  0.96560  0.28196  0.28563  1.0000
  H   H98       1.0  0.95006  0.27991  0.27630  1.0000
  N   N48       1.0  0.96123  0.20828  0.33284  1.0000
  H   H99       1.0  0.97071  0.19555  0.33179  1.0000
  C   C130      1.0  0.03176  0.76818  0.32567  1.0000
  N   N49       1.0  0.01151  0.77286  0.33580  1.0000
  C   C131      1.0  0.99672  0.75856  0.31874  1.0000
  N   N50       1.0  0.00243  0.73930  0.29215  1.0000
  C   C132      1.0  0.02256  0.73430  0.28129  1.0000
  N   N51       1.0  0.03703  0.74896  0.29772  1.0000
  N   N52       1.0  0.97585  0.76371  0.33192  1.0000
  H   H100      1.0  0.96702  0.75054  0.32827  1.0000
  N   N53       1.0  0.02818  0.71408  0.25516  1.0000
  H   H101      1.0  0.04366  0.71395  0.24089  1.0000
  N   N54       1.0  0.04752  0.78275  0.34042  1.0000
  H   H102      1.0  0.04153  0.79736  0.34775  1.0000
  C   C133      1.0  0.28922  0.52990  0.35778  1.0000
  N   N55       1.0  0.28760  0.50913  0.34710  1.0000
  C   C134      1.0  0.26910  0.49946  0.34839  1.0000
  N   N56       1.0  0.25184  0.51100  0.35945  1.0000
  C   C135      1.0  0.25294  0.53182  0.36963  1.0000
  N   N57       1.0  0.27175  0.54114  0.36984  1.0000
  N   N58       1.0  0.26845  0.47786  0.33643  1.0000
  H   H103      1.0  0.25351  0.47298  0.32825  1.0000
  N   N59       1.0  0.23440  0.54273  0.38342  1.0000
  H   H104      1.0  0.23735  0.55704  0.41018  1.0000
  N   N60       1.0  0.30887  0.53930  0.35952  1.0000
  H   H105      1.0  0.32003  0.52804  0.36192  1.0000
  C   C136      1.0  0.72869  0.47737  0.32864  1.0000
  N   N61       1.0  0.72369  0.49754  0.31530  1.0000
  C   C137      1.0  0.73795  0.51272  0.32597  1.0000
  N   N62       1.0  0.75749  0.50745  0.34960  1.0000
  C   C138      1.0  0.76274  0.48745  0.36368  1.0000
  N   N63       1.0  0.74818  0.47258  0.35385  1.0000
  N   N64       1.0  0.73240  0.53355  0.31138  1.0000
  H   H106      1.0  0.74549  0.54250  0.31011  1.0000
  N   N65       1.0  0.78306  0.48259  0.38861  1.0000
  H   H107      1.0  0.78247  0.47563  0.45006  1.0000
  N   N66       1.0  0.71431  0.46117  0.31961  1.0000
  H   H108      1.0  0.69959  0.46690  0.31488  1.0000
  C   C139      1.0  0.52748  0.71941  0.33478  1.0000
  N   N67       1.0  0.50658  0.71942  0.33058  1.0000
  C   C140      1.0  0.49546  0.73667  0.34811  1.0000
  N   N68       1.0  0.50561  0.75430  0.36987  1.0000
  C   C141      1.0  0.52645  0.75472  0.37440  1.0000
  N   N69       1.0  0.53737  0.73722  0.35707  1.0000
  N   N70       1.0  0.47383  0.73590  0.34066  1.0000
  H   H109      1.0  0.46779  0.75056  0.34378  1.0000
  N   N71       1.0  0.53566  0.77360  0.39803  1.0000
  H   H110      1.0  0.54554  0.77137  0.45055  1.0000
  N   N72       1.0  0.53845  0.70082  0.32076  1.0000
  H   H111      1.0  0.52828  0.68865  0.31818  1.0000
  C   C142      1.0  0.46629  0.28794  0.34911  1.0000
  N   N73       1.0  0.48685  0.28633  0.33407  1.0000
  C   C143      1.0  0.49618  0.26769  0.32661  1.0000
  N   N74       1.0  0.48459  0.25033  0.33425  1.0000
  C   C144      1.0  0.46396  0.25143  0.34843  1.0000
  N   N75       1.0  0.45497  0.27035  0.35699  1.0000
  N   N76       1.0  0.51757  0.26712  0.31134  1.0000
  H   H112      1.0  0.52200  0.25262  0.29103  1.0000
  N   N77       1.0  0.45298  0.23280  0.36050  1.0000
  H   H113      1.0  0.43834  0.23578  0.38310  1.0000
  N   N78       1.0  0.45718  0.30761  0.35988  1.0000
  H   H114      1.0  0.46855  0.31846  0.36908  1.0000
  C   C145      1.0  0.18296  0.17888  0.36813  1.0000
  N   N79       1.0  0.19455  0.19467  0.33591  1.0000
  C   C146      1.0  0.18537  0.21187  0.30299  1.0000
  N   N80       1.0  0.16450  0.21310  0.30134  1.0000
  C   C147      1.0  0.15275  0.19743  0.33328  1.0000
  N   N81       1.0  0.16214  0.18027  0.36599  1.0000
  N   N82       1.0  0.19779  0.22807  0.27164  1.0000
  H   H115      1.0  0.19398  0.23086  0.20631  1.0000
  N   N83       1.0  0.13119  0.19893  0.32636  1.0000
  H   H116      1.0  0.12465  0.18455  0.33348  1.0000
  N   N84       1.0  0.19178  0.16043  0.39916  1.0000
  H   H117      1.0  0.20251  0.16383  0.44720  1.0000
  C   C148      1.0  0.82148  0.83020  0.35699  1.0000
  N   N85       1.0  0.80983  0.81315  0.34116  1.0000
  C   C149      1.0  0.81860  0.79507  0.31506  1.0000
  N   N86       1.0  0.83936  0.79445  0.30364  1.0000
  C   C150      1.0  0.85127  0.81135  0.31882  1.0000
  N   N87       1.0  0.84214  0.82918  0.34569  1.0000
  N   N88       1.0  0.80623  0.77744  0.29886  1.0000
  H   H118      1.0  0.81546  0.76495  0.28498  1.0000
  N   N89       1.0  0.87269  0.81008  0.30480  1.0000
  H   H119      1.0  0.87899  0.82465  0.30441  1.0000
  N   N90       1.0  0.81289  0.84872  0.38860  1.0000
  H   H120      1.0  0.80569  0.84560  0.44803  1.0000
  C   C151      1.0  0.82665  0.18411  0.37125  1.0000
  N   N91       1.0  0.81068  0.19619  0.34476  1.0000
  C   C152      1.0  0.79290  0.18762  0.31468  1.0000
  N   N92       1.0  0.79153  0.16668  0.30931  1.0000
  C   C153      1.0  0.80736  0.15437  0.33523  1.0000
  N   N93       1.0  0.82493  0.16329  0.36585  1.0000
  N   N94       1.0  0.77644  0.20056  0.28828  1.0000
  H   H121      1.0  0.76505  0.19165  0.26023  1.0000
  N   N95       1.0  0.80569  0.13278  0.32482  1.0000
  H   H122      1.0  0.81993  0.12604  0.33198  1.0000
  N   N96       1.0  0.84538  0.19246  0.40108  1.0000
  H   H123      1.0  0.84237  0.20314  0.45001  1.0000
  C   C154      1.0  0.17358  0.82744  0.34303  1.0000
  N   N97       1.0  0.18922  0.81438  0.32178  1.0000
  C   C155      1.0  0.20708  0.82156  0.28648  1.0000
  N   N98       1.0  0.20903  0.84218  0.27146  1.0000
  C   C156      1.0  0.19361  0.85541  0.29252  1.0000
  N   N99       1.0  0.17590  0.84799  0.32859  1.0000
  N   N100      1.0  0.22299  0.80755  0.26476  1.0000
  H   H124      1.0  0.23469  0.81543  0.23353  1.0000
  N   N101      1.0  0.19677  0.87654  0.27722  1.0000
  H   H125      1.0  0.18438  0.88243  0.24313  1.0000
  N   N102      1.0  0.15491  0.82011  0.37854  1.0000
  H   H126      1.0  0.15814  0.81303  0.43818  1.0000
  C   C157      1.0  0.31866  0.66944  0.31858  1.0000
  N   N103      1.0  0.30641  0.68608  0.33390  1.0000
  C   C158      1.0  0.31464  0.70439  0.36021  1.0000
  N   N104      1.0  0.33536  0.70576  0.37166  1.0000
  C   C159      1.0  0.34785  0.68934  0.35617  1.0000
  N   N105      1.0  0.33930  0.67117  0.32994  1.0000
  N   N106      1.0  0.30165  0.72147  0.37664  1.0000
  H   H127      1.0  0.31022  0.73322  0.40403  1.0000
  N   N107      1.0  0.36923  0.69154  0.36952  1.0000
  H   H128      1.0  0.37609  0.67722  0.37048  1.0000
  N   N108      1.0  0.31071  0.65035  0.29067  1.0000
  H   H129      1.0  0.30372  0.65221  0.22984  1.0000
  C   C160      1.0  0.67141  0.33283  0.30400  1.0000
  N   N109      1.0  0.68483  0.31731  0.32319  1.0000
  C   C161      1.0  0.67808  0.29885  0.35487  1.0000
  N   N110      1.0  0.65756  0.29619  0.36836  1.0000
  C   C162      1.0  0.64396  0.31141  0.34893  1.0000
  N   N111      1.0  0.65096  0.32974  0.31667  1.0000
  N   N112      1.0  0.69237  0.28310  0.37565  1.0000
  H   H130      1.0  0.68472  0.27115  0.40628  1.0000
  N   N113      1.0  0.62298  0.30757  0.36402  1.0000
  H   H131      1.0  0.61684  0.31962  0.39977  1.0000
  N   N114      1.0  0.67822  0.35214  0.27235  1.0000
  H   H132      1.0  0.68568  0.34970  0.21296  1.0000
  C   C163      1.0  0.66761  0.68930  0.30082  1.0000
  N   N115      1.0  0.68427  0.70146  0.31659  1.0000
  C   C164      1.0  0.70196  0.69311  0.34850  1.0000
  N   N116      1.0  0.70294  0.67245  0.36413  1.0000
  C   C165      1.0  0.68647  0.66008  0.34801  1.0000
  N   N117      1.0  0.66883  0.66870  0.31645  1.0000
  N   N118      1.0  0.71877  0.70620  0.36527  1.0000
  H   H133      1.0  0.72258  0.70479  0.43140  1.0000
  N   N119      1.0  0.68820  0.63862  0.36290  1.0000
  H   H134      1.0  0.67377  0.63213  0.36547  1.0000
  N   N120      1.0  0.64913  0.69716  0.26616  1.0000
  H   H135      1.0  0.65180  0.70265  0.20301  1.0000
  C   C166      1.0  0.32879  0.32043  0.29364  1.0000
  N   N121      1.0  0.31148  0.30888  0.30389  1.0000
  C   C167      1.0  0.29380  0.31772  0.33315  1.0000
  N   N122      1.0  0.29352  0.33823  0.35219  1.0000
  C   C168      1.0  0.31061  0.35001  0.34130  1.0000
  N   N123      1.0  0.32825  0.34094  0.31219  1.0000
  N   N124      1.0  0.27620  0.30538  0.34390  1.0000
  H   H136      1.0  0.27247  0.30533  0.41043  1.0000
  N   N125      1.0  0.30928  0.37133  0.35932  1.0000
  H   H137      1.0  0.32377  0.37728  0.36907  1.0000
  N   N126      1.0  0.34748  0.31183  0.26490  1.0000
  H   H138      1.0  0.34558  0.30583  0.20210  1.0000
  C   C169      1.0  0.40990  0.07287  0.33599  1.0000
  N   N127      1.0  0.41754  0.09191  0.31705  1.0000
  C   C170      1.0  0.43792  0.09498  0.30215  1.0000
  N   N128      1.0  0.45080  0.07840  0.30450  1.0000
  C   C171      1.0  0.44363  0.05919  0.32404  1.0000
  N   N129      1.0  0.42315  0.05666  0.33948  1.0000
  N   N130      1.0  0.44479  0.11511  0.28073  1.0000
  H   H139      1.0  0.45995  0.11463  0.26115  1.0000
  N   N131      1.0  0.45710  0.04206  0.32093  1.0000
  H   H140      1.0  0.44870  0.02860  0.31888  1.0000
  N   N132      1.0  0.38869  0.06989  0.35294  1.0000
  H   H141      1.0  0.38117  0.08386  0.34983  1.0000
  C   C172      1.0  0.58297  0.93457  0.32197  1.0000
  N   N133      1.0  0.57695  0.91509  0.30057  1.0000
  C   C173      1.0  0.55693  0.90933  0.30693  1.0000
  N   N134      1.0  0.54265  0.92331  0.33478  1.0000
  C   C174      1.0  0.54836  0.94287  0.35635  1.0000
  N   N135      1.0  0.56857  0.94819  0.35086  1.0000
  N   N136      1.0  0.55200  0.88874  0.28582  1.0000
  H   H142      1.0  0.54032  0.88865  0.23968  1.0000
  N   N137      1.0  0.53342  0.95744  0.38328  1.0000
  H   H143      1.0  0.53738  0.96231  0.44609  1.0000
  N   N138      1.0  0.60385  0.94059  0.31894  1.0000
  H   H144      1.0  0.61287  0.92818  0.30143  1.0000
  C   C175      1.0  0.93486  0.41524  0.33677  1.0000
  N   N139      1.0  0.91594  0.42400  0.32834  1.0000
  C   C176      1.0  0.91356  0.44483  0.32492  1.0000
  N   N140      1.0  0.93059  0.45702  0.32876  1.0000
  C   C177      1.0  0.94967  0.44870  0.33825  1.0000
  N   N141      1.0  0.95156  0.42780  0.34236  1.0000
  N   N142      1.0  0.89356  0.45319  0.31645  1.0000
  H   H145      1.0  0.89444  0.46882  0.30509  1.0000
  N   N143      1.0  0.96711  0.46171  0.33797  1.0000
  H   H146      1.0  0.98028  0.45302  0.33171  1.0000
  N   N144      1.0  0.93726  0.39360  0.34392  1.0000
  H   H147      1.0  0.92312  0.38649  0.34105  1.0000
  C   C178      1.0  0.07326  0.58798  0.32964  1.0000
  N   N145      1.0  0.09234  0.58152  0.30502  1.0000
  C   C179      1.0  0.09790  0.56141  0.31295  1.0000
  N   N146      1.0  0.08410  0.54747  0.34531  1.0000
  C   C180      1.0  0.06495  0.55362  0.37006  1.0000
  N   N147      1.0  0.05983  0.57391  0.36297  1.0000
  N   N148      1.0  0.11803  0.55585  0.28787  1.0000
  H   H148      1.0  0.11726  0.54303  0.24763  1.0000
  N   N149      1.0  0.05051  0.53890  0.40004  1.0000
  H   H149      1.0  0.04630  0.54295  0.46362  1.0000
  N   N150      1.0  0.06737  0.60894  0.32459  1.0000
  H   H150      1.0  0.07968  0.61779  0.30456  1.0000
  C   C181      1.0  0.31354  0.04646  0.35551  1.0000
  C   C182      1.0  0.32917  0.04229  0.41821  1.0000
  C   C183      1.0  0.35025  0.04500  0.39770  1.0000
  H   H151      1.0  0.32524  0.03662  0.47959  1.0000
  N   N151      1.0  0.36557  0.03991  0.46135  1.0000
  O   O61       1.0  0.36381  0.05054  0.53101  1.0000
  O   O62       1.0  0.36499  0.02110  0.48201  1.0000
  C   C184      1.0  0.29178  0.04180  0.38006  1.0000
  H   H152      1.0  0.28733  0.05158  0.43636  1.0000
  H   H153      1.0  0.29160  0.02576  0.40319  1.0000
  C   C185      1.0  0.67188  0.97698  0.30075  1.0000
  C   C186      1.0  0.65681  0.97920  0.36770  1.0000
  C   C187      1.0  0.63608  0.97345  0.35351  1.0000
  H   H154      1.0  0.66101  0.98480  0.42889  1.0000
  N   N152      1.0  0.62138  0.97570  0.42271  1.0000
  O   O63       1.0  0.62601  0.96511  0.48999  1.0000
  O   O64       1.0  0.61944  0.99425  0.44595  1.0000
  C   C188      1.0  0.69360  0.98244  0.32270  1.0000
  H   H155      1.0  0.69788  0.97383  0.38282  1.0000
  H   H156      1.0  0.69381  0.99892  0.33903  1.0000
  C   C189      1.0  0.96313  0.31931  0.33416  1.0000
  C   C190      1.0  0.96777  0.33503  0.39604  1.0000
  C   C191      1.0  0.96400  0.35610  0.37732  1.0000
  H   H157      1.0  0.97452  0.33119  0.45545  1.0000
  N   N153      1.0  0.96962  0.37151  0.43992  1.0000
  O   O65       1.0  0.96031  0.36925  0.51270  1.0000
  O   O66       1.0  0.98867  0.37157  0.45448  1.0000
  C   C192      1.0  0.96868  0.29760  0.35724  1.0000
  H   H158      1.0  0.95989  0.29301  0.41626  1.0000
  H   H159      1.0  0.98499  0.29783  0.37568  1.0000
  C   C193      1.0  0.03010  0.67672  0.30531  1.0000
  C   C194      1.0  0.02823  0.66175  0.37309  1.0000
  C   C195      1.0  0.03426  0.64100  0.35976  1.0000
  H   H160      1.0  0.02267  0.66604  0.43420  1.0000
  N   N154      1.0  0.03236  0.62640  0.42974  1.0000
  O   O67       1.0  0.04297  0.63138  0.49641  1.0000
  O   O68       1.0  0.01395  0.62423  0.45372  1.0000
  C   C196      1.0  0.02423  0.69848  0.32604  1.0000
  H   H161      1.0  0.03259  0.70311  0.38629  1.0000
  H   H162      1.0  0.00777  0.69845  0.34160  1.0000
  C   C197      1.0  0.15504  0.55074  0.34471  1.0000
  C   C198      1.0  0.16828  0.54570  0.41737  1.0000
  C   C199      1.0  0.18982  0.54427  0.40434  1.0000
  H   H163      1.0  0.19886  0.54022  0.45724  1.0000
  N   N155      1.0  0.15985  0.54201  0.50317  1.0000
  O   O69       1.0  0.16650  0.55465  0.55986  1.0000
  O   O70       1.0  0.16353  0.52397  0.52989  1.0000
  C   C200      1.0  0.13233  0.55204  0.36341  1.0000
  H   H164      1.0  0.13037  0.56454  0.41188  1.0000
  H   H165      1.0  0.12751  0.53762  0.39544  1.0000
  C   C201      1.0  0.85845  0.45539  0.37760  1.0000
  C   C202      1.0  0.84838  0.47141  0.42577  1.0000
  C   C203      1.0  0.82740  0.47580  0.40849  1.0000
  H   H166      1.0  0.82047  0.48740  0.44361  1.0000
  N   N156      1.0  0.85925  0.48294  0.49078  1.0000
  O   O71       1.0  0.85140  0.48100  0.56686  1.0000
  O   O72       1.0  0.85999  0.50181  0.47126  1.0000
  C   C204      1.0  0.88035  0.44960  0.39595  1.0000
  H   H167      1.0  0.88045  0.43324  0.41445  1.0000
  H   H168      1.0  0.88686  0.45800  0.45252  1.0000
  C   C205      1.0  0.54669  0.85244  0.35054  1.0000
  C   C206      1.0  0.53858  0.84000  0.42065  1.0000
  C   C207      1.0  0.53837  0.81821  0.41282  1.0000
  H   H169      1.0  0.53217  0.80976  0.46369  1.0000
  N   N157      1.0  0.53065  0.84947  0.49875  1.0000
  O   O73       1.0  0.54047  0.84411  0.56712  1.0000
  O   O74       1.0  0.51191  0.84542  0.51003  1.0000
  C   C208      1.0  0.54653  0.87549  0.36316  1.0000
  H   H170      1.0  0.55725  0.87871  0.41776  1.0000
  H   H171      1.0  0.53114  0.88022  0.38496  1.0000
  C   C209      1.0  0.44511  0.15297  0.33258  1.0000
  C   C210      1.0  0.44664  0.16714  0.40506  1.0000
  C   C211      1.0  0.44859  0.18858  0.38866  1.0000
  H   H172      1.0  0.45003  0.19830  0.44197  1.0000
  N   N158      1.0  0.44626  0.15976  0.49412  1.0000
  O   O75       1.0  0.43125  0.16690  0.53705  1.0000
  O   O76       1.0  0.46259  0.16400  0.53515  1.0000
  C   C212      1.0  0.44274  0.13042  0.35429  1.0000
  H   H173      1.0  0.42753  0.12888  0.38498  1.0000
  H   H174      1.0  0.45421  0.12622  0.40467  1.0000
  C   C213      1.0  0.20168  0.08116  0.38395  1.0000
  C   C214      1.0  0.19808  0.09550  0.45436  1.0000
  C   C215      1.0  0.19840  0.11698  0.43724  1.0000
  H   H175      1.0  0.19522  0.12686  0.48854  1.0000
  N   N159      1.0  0.19362  0.08827  0.54157  1.0000
  O   O77       1.0  0.20677  0.09431  0.59720  1.0000
  O   O78       1.0  0.17606  0.09382  0.56732  1.0000
  C   C216      1.0  0.19889  0.05864  0.40493  1.0000
  H   H176      1.0  0.18296  0.05696  0.42788  1.0000
  H   H177      1.0  0.20871  0.05466  0.46175  1.0000
  C   C217      1.0  0.77833  0.92102  0.39565  1.0000
  C   C218      1.0  0.79409  0.91135  0.44648  1.0000
  C   C219      1.0  0.80049  0.89109  0.42440  1.0000
  H   H178      1.0  0.81200  0.88452  0.46119  1.0000
  N   N160      1.0  0.80347  0.92199  0.51830  1.0000
  O   O79       1.0  0.80086  0.91270  0.59096  1.0000
  O   O80       1.0  0.82244  0.92448  0.50579  1.0000
  C   C220      1.0  0.77093  0.94234  0.41634  1.0000
  H   H179      1.0  0.77721  0.94852  0.47843  1.0000
  H   H180      1.0  0.75426  0.94143  0.42622  1.0000
  C   C221      1.0  0.92387  0.20708  0.38619  1.0000
  C   C222      1.0  0.90976  0.20280  0.45662  1.0000
  C   C223      1.0  0.88843  0.20132  0.43889  1.0000
  H   H181      1.0  0.87877  0.19774  0.49034  1.0000
  N   N161      1.0  0.91712  0.19963  0.54465  1.0000
  O   O81       1.0  0.90997  0.21275  0.59806  1.0000
  O   O82       1.0  0.91293  0.18184  0.57297  1.0000
  C   C224      1.0  0.94641  0.20691  0.40848  1.0000
  H   H182      1.0  0.94955  0.19233  0.44306  1.0000
  H   H183      1.0  0.94922  0.21923  0.45704  1.0000
  C   C225      1.0  0.08261  0.78543  0.39439  1.0000
  C   C226      1.0  0.09218  0.80183  0.44203  1.0000
  C   C227      1.0  0.11228  0.80824  0.41812  1.0000
  H   H184      1.0  0.11884  0.82019  0.45242  1.0000
  N   N162      1.0  0.08161  0.81181  0.51247  1.0000
  O   O83       1.0  0.09102  0.80999  0.58520  1.0000
  O   O84       1.0  0.07889  0.83068  0.49664  1.0000
  C   C228      1.0  0.06143  0.77807  0.41658  1.0000
  H   H185      1.0  0.05516  0.78505  0.47708  1.0000
  H   H186      1.0  0.06246  0.76147  0.43011  1.0000
  C   C229      1.0  0.29889  0.61734  0.34162  1.0000
  C   C230      1.0  0.31363  0.60640  0.39177  1.0000
  C   C231      1.0  0.31807  0.58542  0.37427  1.0000
  H   H187      1.0  0.32177  0.61393  0.44034  1.0000
  N   N163      1.0  0.33335  0.57500  0.42457  1.0000
  O   O85       1.0  0.32877  0.57432  0.50588  1.0000
  O   O86       1.0  0.35073  0.58332  0.41629  1.0000
  C   C232      1.0  0.29648  0.63996  0.35383  1.0000
  H   H188      1.0  0.30006  0.64403  0.42298  1.0000
  H   H189      1.0  0.28055  0.64471  0.34175  1.0000
  C   C233      1.0  0.69817  0.38454  0.30923  1.0000
  C   C234      1.0  0.71393  0.39446  0.35759  1.0000
  C   C235      1.0  0.72052  0.41470  0.33655  1.0000
  H   H190      1.0  0.72109  0.38673  0.40841  1.0000
  N   N164      1.0  0.73688  0.42392  0.38488  1.0000
  O   O87       1.0  0.75335  0.41391  0.37700  1.0000
  O   O88       1.0  0.73265  0.42568  0.46624  1.0000
  C   C236      1.0  0.69226  0.36310  0.33487  1.0000
  H   H191      1.0  0.68495  0.36402  0.40046  1.0000
  H   H192      1.0  0.70638  0.35397  0.34179  1.0000
  C   C237      1.0  0.61613  0.71126  0.30436  1.0000
  C   C238      1.0  0.60527  0.69458  0.34204  1.0000
  C   C239      1.0  0.58423  0.69118  0.32301  1.0000
  H   H193      1.0  0.61283  0.68446  0.38301  1.0000
  N   N165      1.0  0.57387  0.67401  0.36093  1.0000
  O   O89       1.0  0.57357  0.67501  0.44455  1.0000
  O   O90       1.0  0.58194  0.65716  0.33817  1.0000
  C   C240      1.0  0.63860  0.71319  0.32032  1.0000
  H   H194      1.0  0.64152  0.71116  0.39165  1.0000
  H   H195      1.0  0.64430  0.72855  0.30218  1.0000
  C   C241      1.0  0.37952  0.29866  0.32007  1.0000
  C   C242      1.0  0.38972  0.31207  0.37938  1.0000
  C   C243      1.0  0.41084  0.31675  0.36944  1.0000
  H   H196      1.0  0.38156  0.31913  0.42915  1.0000
  N   N166      1.0  0.42057  0.33066  0.42905  1.0000
  O   O91       1.0  0.42014  0.32406  0.50778  1.0000
  O   O92       1.0  0.41243  0.34828  0.42692  1.0000
  C   C244      1.0  0.35683  0.29618  0.32500  1.0000
  H   H197      1.0  0.35178  0.29827  0.39407  1.0000
  H   H198      1.0  0.35227  0.28055  0.30536  1.0000
  C   C245      1.0  0.20886  0.90935  0.33495  1.0000
  C   C246      1.0  0.19854  0.92759  0.35980  1.0000
  C   C247      1.0  0.20616  0.94725  0.33527  1.0000
  H   H199      1.0  0.18525  0.92668  0.39622  1.0000
  N   N167      1.0  0.19557  0.96542  0.36150  1.0000
  O   O93       1.0  0.19476  0.96712  0.44484  1.0000
  O   O94       1.0  0.17758  0.96596  0.33080  1.0000
  C   C248      1.0  0.20077  0.88865  0.35928  1.0000
  H   H200      1.0  0.18666  0.88976  0.39890  1.0000
  H   H201      1.0  0.21243  0.88100  0.40036  1.0000
  C   C249      1.0  0.78754  0.10105  0.36198  1.0000
  C   C250      1.0  0.79325  0.08445  0.41748  1.0000
  C   C251      1.0  0.78964  0.06372  0.39209  1.0000
  H   H202      1.0  0.80009  0.08740  0.47757  1.0000
  N   N168      1.0  0.79538  0.04726  0.44929  1.0000
  O   O95       1.0  0.78614  0.04820  0.52276  1.0000
  O   O96       1.0  0.81445  0.04709  0.46348  1.0000
  C   C252      1.0  0.79119  0.12288  0.38828  1.0000
  H   H203      1.0  0.79738  0.12397  0.45600  1.0000
  H   H204      1.0  0.77632  0.13082  0.38786  1.0000
  C   C253      1.0  0.10032  0.21784  0.36371  1.0000
  C   C254      1.0  0.08326  0.21027  0.41151  1.0000
  C   C255      1.0  0.06290  0.21390  0.38203  1.0000
  H   H205      1.0  0.08558  0.20169  0.46789  1.0000
  N   N169      1.0  0.04596  0.20581  0.43040  1.0000
  O   O97       1.0  0.04531  0.21284  0.50841  1.0000
  O   O98       1.0  0.04646  0.18642  0.43394  1.0000
  C   C256      1.0  0.12175  0.21325  0.39189  1.0000
  H   H206      1.0  0.12224  0.20631  0.45841  1.0000
  H   H207      1.0  0.13018  0.22788  0.39531  1.0000
  C   C257      1.0  0.90506  0.79348  0.34477  1.0000
  C   C258      1.0  0.92194  0.80025  0.39599  1.0000
  C   C259      1.0  0.94242  0.79589  0.37008  1.0000
  H   H208      1.0  0.91939  0.80827  0.45373  1.0000
  N   N170      1.0  0.95917  0.80256  0.42339  1.0000
  O   O99       1.0  0.95853  0.79478  0.50006  1.0000
  O   O100      1.0  0.95963  0.82191  0.43044  1.0000
  C   C260      1.0  0.88350  0.79745  0.37289  1.0000
  H   H209      1.0  0.88288  0.80533  0.43743  1.0000
  H   H210      1.0  0.87598  0.78243  0.38098  1.0000
  C   C261      1.0  0.28308  0.44456  0.37910  1.0000
  C   C262      1.0  0.27346  0.42684  0.41676  1.0000
  C   C263      1.0  0.27893  0.40694  0.38571  1.0000
  H   H211      1.0  0.27194  0.39426  0.41303  1.0000
  N   N171      1.0  0.25846  0.42905  0.48460  1.0000
  O   O101      1.0  0.26389  0.42028  0.55551  1.0000
  O   O102      1.0  0.24130  0.42197  0.46092  1.0000
  C   C264      1.0  0.27804  0.46591  0.41019  1.0000
  H   H212      1.0  0.29247  0.47299  0.43225  1.0000
  H   H213      1.0  0.26773  0.46614  0.46773  1.0000
  C   C265      1.0  0.71302  0.56402  0.36075  1.0000
  C   C266      1.0  0.72021  0.58039  0.41593  1.0000
  C   C267      1.0  0.71568  0.60110  0.39283  1.0000
  H   H214      1.0  0.72115  0.61279  0.43221  1.0000
  N   N172      1.0  0.73219  0.57611  0.49262  1.0000
  O   O103      1.0  0.72363  0.58250  0.56248  1.0000
  O   O104      1.0  0.74987  0.58391  0.48733  1.0000
  C   C268      1.0  0.71824  0.54195  0.38032  1.0000
  H   H215      1.0  0.70393  0.53304  0.38145  1.0000
  H   H216      1.0  0.72526  0.54007  0.44602  1.0000
  C   C269      1.0  0.44199  0.71839  0.38226  1.0000
  C   C270      1.0  0.42492  0.72617  0.43129  1.0000
  C   C271      1.0  0.40468  0.72142  0.40315  1.0000
  H   H217      1.0  0.39247  0.72707  0.43877  1.0000
  N   N173      1.0  0.42811  0.73872  0.50737  1.0000
  O   O105      1.0  0.42065  0.73067  0.57639  1.0000
  O   O106      1.0  0.42050  0.75643  0.49747  1.0000
  C   C272      1.0  0.46368  0.72288  0.40940  1.0000
  H   H218      1.0  0.47159  0.70806  0.41709  1.0000
  H   H219      1.0  0.46475  0.73066  0.47388  1.0000
  C   C273      1.0  0.55083  0.28040  0.35999  1.0000
  C   C274      1.0  0.56903  0.26929  0.38197  1.0000
  C   C275      1.0  0.58838  0.27700  0.35428  1.0000
  H   H220      1.0  0.60143  0.26900  0.37094  1.0000
  N   N174      1.0  0.56784  0.25067  0.43131  1.0000
  O   O107      1.0  0.57728  0.25201  0.50417  1.0000
  O   O108      1.0  0.57490  0.23561  0.38818  1.0000
  C   C276      1.0  0.53007  0.27327  0.38994  1.0000
  H   H221      1.0  0.52299  0.28609  0.42643  1.0000
  H   H222      1.0  0.53075  0.26033  0.43664  1.0000
  C   C277      1.0  0.21196  0.26397  0.30933  1.0000
  C   C278      1.0  0.20899  0.28324  0.35370  1.0000
  C   C279      1.0  0.22379  0.29914  0.34525  1.0000
  H   H223      1.0  0.22158  0.31274  0.37869  1.0000
  N   N175      1.0  0.19136  0.28638  0.40788  1.0000
  O   O109      1.0  0.19615  0.28964  0.48781  1.0000
  O   O110      1.0  0.18054  0.30116  0.38039  1.0000
  C   C280      1.0  0.19606  0.24749  0.32386  1.0000
  H   H224      1.0  0.18086  0.25411  0.30998  1.0000
  H   H225      1.0  0.19664  0.24364  0.39487  1.0000
  C   C281      1.0  0.77922  0.75323  0.35385  1.0000
  C   C282      1.0  0.77816  0.73646  0.41517  1.0000
  C   C283      1.0  0.76473  0.71971  0.39794  1.0000
  H   H226      1.0  0.76371  0.70797  0.44344  1.0000
  N   N176      1.0  0.78993  0.73674  0.49468  1.0000
  O   O111      1.0  0.77868  0.73680  0.56287  1.0000
  O   O112      1.0  0.80206  0.72164  0.49902  1.0000
  C   C284      1.0  0.79204  0.77195  0.37301  1.0000
  H   H227      1.0  0.80108  0.77030  0.43402  1.0000
  H   H228      1.0  0.78132  0.78473  0.38399  1.0000
  C   C285      1.0  0.75091  0.22826  0.34268  1.0000
  C   C286      1.0  0.74063  0.23759  0.41633  1.0000
  C   C287      1.0  0.72522  0.25266  0.40172  1.0000
  H   H229      1.0  0.71822  0.25914  0.45588  1.0000
  N   N177      1.0  0.74587  0.23185  0.50478  1.0000
  O   O113      1.0  0.75267  0.24689  0.54883  1.0000
  O   O114      1.0  0.73079  0.22418  0.54563  1.0000
  C   C288      1.0  0.76718  0.21246  0.36301  1.0000
  H   H230      1.0  0.76061  0.20116  0.40944  1.0000
  H   H231      1.0  0.77946  0.22072  0.39799  1.0000
  C   C289      1.0  0.24710  0.77960  0.32737  1.0000
  C   C290      1.0  0.25684  0.77083  0.40366  1.0000
  C   C291      1.0  0.27120  0.75458  0.39356  1.0000
  H   H232      1.0  0.27780  0.74852  0.44953  1.0000
  N   N178      1.0  0.25205  0.77829  0.49020  1.0000
  O   O115      1.0  0.24431  0.76446  0.53854  1.0000
  O   O116      1.0  0.26763  0.78557  0.52876  1.0000
  C   C292      1.0  0.23186  0.79665  0.34307  1.0000
  H   H233      1.0  0.23923  0.80839  0.38499  1.0000
  H   H234      1.0  0.21928  0.78978  0.38150  1.0000
  C   C293      1.0  0.48712  0.02385  0.38040  1.0000
  C   C294      1.0  0.48755  0.00566  0.43370  1.0000
  C   C295      1.0  0.50209  0.98991  0.41511  1.0000
  H   H235      1.0  0.50203  0.97691  0.45374  1.0000
  N   N179      1.0  0.47333  0.00318  0.50447  1.0000
  O   O117      1.0  0.48228  0.00137  0.57831  1.0000
  O   O118      1.0  0.46188  0.98777  0.49271  1.0000
  C   C296      1.0  0.47184  0.04080  0.39640  1.0000
  H   H236      1.0  0.48031  0.05533  0.40330  1.0000
  H   H237      1.0  0.46324  0.03870  0.45834  1.0000
  C   C297      1.0  0.98545  0.49110  0.40179  1.0000
  C   C298      1.0  0.00424  0.49124  0.45056  1.0000
  C   C299      1.0  0.01934  0.50643  0.43186  1.0000
  H   H238      1.0  0.03282  0.50616  0.46697  1.0000
  N   N180      1.0  0.00795  0.47610  0.51678  1.0000
  O   O119      1.0  0.01057  0.48410  0.59223  1.0000
  O   O120      1.0  0.02335  0.46515  0.49828  1.0000
  C   C300      1.0  0.96916  0.47516  0.41770  1.0000
  H   H239      1.0  0.95470  0.48324  0.43143  1.0000
  H   H240      1.0  0.97232  0.46552  0.47590  1.0000
