data_image0
_chemical_formula_structural       NC3H2C2OCH3NC3H2C2OCH5C2OCH3CNC2OCH3CNCH2C4H2CH2CH2C4H2CH2CNCOCH3CNCOCH3NC2OHNC2OCH3NC2OCH3C3HCHC6H3C6H3NC2OCH3NC2OCH3CNCOCH3CNCOCH3CNCOHCNCOCH3CNCOCH3NC2OHNC2OCH3NC2OCH3C3HCHC6H3C6H3NC2OCH3NC2OCH3CNCOCH3CNCOCH3CNCOHCNCOCH3CNCOCH3CNCOCH3NC2OCH3NC2OCH3NC2OCH3C6H3C6H3C6H3C6H3NC2OCH3NC2OCH2NC2OCH3CNCOCH3CNCOCH3CNCOCH3CNCOCH3CNCOCH3CNCOCH3NC2OCH3NC2OCH3NC2OCH3C6H3C6H3C6H3C6H3NC2OCH3NC2OCH2NC2OCH3CNCOCH3CNCOCH3CNCOCH3
_chemical_formula_sum              "N48 C240 H192 O48"
_cell_length_a       45.3398
_cell_length_b       45.361
_cell_length_c       14.8414
_cell_angle_alpha    90
_cell_angle_beta     90
_cell_angle_gamma    119.989

_space_group_name_H-M_alt    "P 1"
_space_group_IT_number       1

loop_
  _space_group_symop_operation_xyz
  'x, y, z'

loop_
  _atom_site_type_symbol
  _atom_site_label
  _atom_site_symmetry_multiplicity
  _atom_site_fract_x
  _atom_site_fract_y
  _atom_site_fract_z
  _atom_site_occupancy
  N   N1        1.0  0.09592  0.06784  0.29335  1.0000
  C   C1        1.0  0.04192  0.02144  0.34432  1.0000
  C   C2        1.0  0.02393  0.03957  0.34362  1.0000
  C   C3        1.0  0.02247  0.48538  0.34358  1.0000
  H   H1        1.0  0.03491  0.47179  0.34216  1.0000
  H   H2        1.0  0.03753  0.06559  0.34224  1.0000
  C   C4        1.0  0.09871  0.02997  0.39712  1.0000
  C   C5        1.0  0.07851  0.03936  0.34479  1.0000
  O   O1        1.0  0.08510  0.00277  0.45456  1.0000
  C   C6        1.0  0.08039  0.01153  0.54445  1.0000
  H   H3        1.0  0.06945  0.98850  0.58531  1.0000
  H   H4        1.0  0.06283  0.52146  0.54555  1.0000
  H   H5        1.0  0.10462  0.03014  0.57481  1.0000
  N   N2        1.0  0.09592  0.56784  0.29335  1.0000
  C   C7        1.0  0.04192  0.52144  0.34432  1.0000
  C   C8        1.0  0.02393  0.53956  0.34362  1.0000
  C   C9        1.0  0.02247  0.98538  0.34358  1.0000
  H   H6        1.0  0.03491  0.97179  0.34216  1.0000
  H   H7        1.0  0.03753  0.56559  0.34224  1.0000
  C   C10       1.0  0.09871  0.52997  0.39712  1.0000
  C   C11       1.0  0.07851  0.53936  0.34479  1.0000
  O   O2        1.0  0.08510  0.50277  0.45456  1.0000
  C   C12       1.0  0.08039  0.51153  0.54445  1.0000
  H   H8        1.0  0.06945  0.48850  0.58531  1.0000
  H   H9        1.0  0.06283  0.02146  0.54555  1.0000
  H   H10       1.0  0.10462  0.53014  0.57481  1.0000
  H   H11       1.0  0.02069  0.08320  0.58572  1.0000
  H   H12       1.0  0.02069  0.58320  0.58572  1.0000
  C   C13       1.0  0.15067  0.07768  0.34069  1.0000
  C   C14       1.0  0.13048  0.08704  0.28829  1.0000
  O   O3        1.0  0.14408  0.11432  0.23110  1.0000
  C   C15       1.0  0.14873  0.10565  0.14106  1.0000
  H   H13       1.0  0.15969  0.12872  0.10037  1.0000
  H   H14       1.0  0.12448  0.08709  0.11068  1.0000
  H   H15       1.0  0.16627  0.09569  0.13970  1.0000
  C   C16       1.0  0.18723  0.09593  0.34214  1.0000
  N   N3        1.0  0.13328  0.04920  0.39216  1.0000
  C   C17       1.0  0.15067  0.57768  0.34069  1.0000
  C   C18       1.0  0.13048  0.58704  0.28829  1.0000
  O   O4        1.0  0.14408  0.61432  0.23110  1.0000
  C   C19       1.0  0.14873  0.60565  0.14106  1.0000
  H   H16       1.0  0.15969  0.62872  0.10037  1.0000
  H   H17       1.0  0.12448  0.58709  0.11068  1.0000
  H   H18       1.0  0.16628  0.59569  0.13970  1.0000
  C   C20       1.0  0.18723  0.59593  0.34214  1.0000
  N   N4        1.0  0.13328  0.54920  0.39216  1.0000
  C   C21       1.0  0.24538  0.05292  0.13394  1.0000
  H   H19       1.0  0.23869  0.05959  0.06958  1.0000
  H   H20       1.0  0.22184  0.03728  0.17150  1.0000
  C   C22       1.0  0.24160  0.09553  0.34482  1.0000
  C   C23       1.0  0.24219  0.15008  0.34465  1.0000
  C   C24       1.0  0.20620  0.13215  0.34346  1.0000
  C   C25       1.0  0.20559  0.07806  0.34383  1.0000
  H   H21       1.0  0.19383  0.14579  0.34554  1.0000
  H   H22       1.0  0.19273  0.05201  0.34247  1.0000
  C   C26       1.0  0.24633  0.19587  0.55662  1.0000
  H   H23       1.0  0.23952  0.18234  0.62072  1.0000
  H   H24       1.0  0.22286  0.18811  0.51884  1.0000
  C   C27       1.0  0.24538  0.55292  0.13394  1.0000
  H   H25       1.0  0.23869  0.55959  0.06958  1.0000
  H   H26       1.0  0.22184  0.53728  0.17150  1.0000
  C   C28       1.0  0.24160  0.59553  0.34482  1.0000
  C   C29       1.0  0.24219  0.65008  0.34465  1.0000
  C   C30       1.0  0.20620  0.63215  0.34346  1.0000
  C   C31       1.0  0.20560  0.57806  0.34383  1.0000
  H   H27       1.0  0.19383  0.64579  0.34554  1.0000
  H   H28       1.0  0.19273  0.55201  0.34247  1.0000
  C   C32       1.0  0.24633  0.69587  0.55662  1.0000
  H   H29       1.0  0.23952  0.68234  0.62072  1.0000
  H   H30       1.0  0.22286  0.68811  0.51884  1.0000
  C   C33       1.0  0.43177  0.07561  0.34065  1.0000
  N   N5        1.0  0.44152  0.03066  0.29329  1.0000
  C   C34       1.0  0.42238  0.04608  0.28815  1.0000
  O   O5        1.0  0.39513  0.03250  0.23081  1.0000
  C   C35       1.0  0.40391  0.04588  0.14084  1.0000
  H   H31       1.0  0.38086  0.03383  0.10002  1.0000
  H   H32       1.0  0.42246  0.04016  0.11053  1.0000
  H   H33       1.0  0.41392  0.07337  0.13961  1.0000
  C   C36       1.0  0.43382  0.35869  0.34069  1.0000
  N   N6        1.0  0.47874  0.41341  0.29331  1.0000
  C   C37       1.0  0.46336  0.37886  0.28823  1.0000
  O   O6        1.0  0.47701  0.36525  0.23095  1.0000
  C   C38       1.0  0.46364  0.36061  0.14096  1.0000
  H   H34       1.0  0.47574  0.34964  0.10019  1.0000
  H   H35       1.0  0.46933  0.38485  0.11061  1.0000
  H   H36       1.0  0.43614  0.34309  0.13967  1.0000
  N   N7        1.0  0.30826  0.08013  0.26845  1.0000
  C   C39       1.0  0.27736  0.07812  0.26314  1.0000
  C   C40       1.0  0.26156  0.07945  0.34415  1.0000
  O   O7        1.0  0.26755  0.08391  0.18103  1.0000
  H   H37       1.0  0.25795  0.03815  0.12034  1.0000
  N   N8        1.0  0.42941  0.23074  0.26821  1.0000
  C   C41       1.0  0.43142  0.20186  0.26307  1.0000
  C   C42       1.0  0.43006  0.18475  0.34413  1.0000
  O   O8        1.0  0.42568  0.18625  0.18099  1.0000
  C   C43       1.0  0.45672  0.19508  0.13403  1.0000
  H   H38       1.0  0.45008  0.18172  0.06970  1.0000
  H   H39       1.0  0.47236  0.18722  0.17171  1.0000
  H   H40       1.0  0.47148  0.22241  0.12039  1.0000
  N   N9        1.0  0.27865  0.20120  0.26848  1.0000
  C   C44       1.0  0.30754  0.23208  0.26317  1.0000
  C   C45       1.0  0.32469  0.24787  0.34418  1.0000
  O   O9        1.0  0.32314  0.24189  0.18106  1.0000
  C   C46       1.0  0.31431  0.26407  0.13402  1.0000
  H   H41       1.0  0.32766  0.27075  0.06965  1.0000
  H   H42       1.0  0.32221  0.28760  0.17160  1.0000
  H   H43       1.0  0.28697  0.25152  0.12043  1.0000
  C   C47       1.0  0.48785  0.02295  0.34439  1.0000
  C   C48       1.0  0.46972  0.48686  0.34363  1.0000
  C   C49       1.0  0.48635  0.46741  0.34434  1.0000
  H   H44       1.0  0.44369  0.47443  0.34226  1.0000
  C   C50       1.0  0.25937  0.13140  0.34505  1.0000
  H   H45       1.0  0.28553  0.14428  0.34577  1.0000
  C   C51       1.0  0.41398  0.14872  0.34484  1.0000
  C   C52       1.0  0.37809  0.13063  0.34506  1.0000
  C   C53       1.0  0.35940  0.09478  0.34464  1.0000
  C   C54       1.0  0.37732  0.07672  0.34343  1.0000
  C   C55       1.0  0.41355  0.09395  0.34210  1.0000
  C   C56       1.0  0.43145  0.13018  0.34382  1.0000
  H   H46       1.0  0.36366  0.05072  0.34548  1.0000
  H   H47       1.0  0.45751  0.14334  0.34246  1.0000
  H   H48       1.0  0.36521  0.14391  0.34579  1.0000
  C   C57       1.0  0.36073  0.26781  0.34482  1.0000
  C   C58       1.0  0.37884  0.25003  0.34494  1.0000
  C   C59       1.0  0.41470  0.26719  0.34451  1.0000
  C   C60       1.0  0.43276  0.30316  0.34338  1.0000
  C   C61       1.0  0.41550  0.32214  0.34212  1.0000
  C   C62       1.0  0.37926  0.30380  0.34386  1.0000
  H   H49       1.0  0.45877  0.31551  0.34538  1.0000
  H   H50       1.0  0.36608  0.31668  0.34259  1.0000
  H   H51       1.0  0.36556  0.22389  0.34563  1.0000
  N   N10       1.0  0.46020  0.08661  0.39229  1.0000
  C   C63       1.0  0.47937  0.07120  0.39731  1.0000
  C   C64       1.0  0.46996  0.04164  0.34490  1.0000
  O   O10       1.0  0.50654  0.08471  0.45491  1.0000
  C   C65       1.0  0.49768  0.07119  0.54472  1.0000
  H   H52       1.0  0.52069  0.08320  0.58572  1.0000
  H   H53       1.0  0.98771  0.04370  0.54569  1.0000
  H   H54       1.0  0.47907  0.57683  0.57502  1.0000
  N   N11       1.0  0.42276  0.37610  0.39223  1.0000
  C   C66       1.0  0.43811  0.41065  0.39720  1.0000
  C   C67       1.0  0.46769  0.43083  0.34483  1.0000
  O   O11       1.0  0.42454  0.42428  0.45472  1.0000
  C   C68       1.0  0.43805  0.42897  0.54457  1.0000
  H   H55       1.0  0.42598  0.43992  0.58550  1.0000
  H   H56       1.0  0.46554  0.44651  0.54560  1.0000
  H   H57       1.0  0.93243  0.40474  0.57490  1.0000
  C   C69       1.0  0.32341  0.07919  0.34670  1.0000
  N   N12       1.0  0.27770  0.08045  0.42232  1.0000
  C   C70       1.0  0.30647  0.07824  0.42766  1.0000
  O   O12       1.0  0.32230  0.08406  0.50943  1.0000
  C   C71       1.0  0.31357  0.05310  0.55656  1.0000
  H   H58       1.0  0.32710  0.05981  0.62067  1.0000
  H   H59       1.0  0.32134  0.03741  0.51876  1.0000
  H   H60       1.0  0.28627  0.03837  0.57068  1.0000
  C   C72       1.0  0.43030  0.24679  0.34645  1.0000
  N   N13       1.0  0.42902  0.19989  0.42225  1.0000
  C   C73       1.0  0.43123  0.23086  0.42754  1.0000
  O   O13       1.0  0.42539  0.24088  0.50926  1.0000
  C   C74       1.0  0.45635  0.26311  0.55643  1.0000
  H   H61       1.0  0.44962  0.26994  0.62049  1.0000
  H   H62       1.0  0.47207  0.28655  0.51861  1.0000
  H   H63       1.0  0.47107  0.25053  0.57064  1.0000
  C   C75       1.0  0.26256  0.18605  0.34672  1.0000
  N   N14       1.0  0.30955  0.23173  0.42234  1.0000
  C   C76       1.0  0.27857  0.20298  0.42769  1.0000
  O   O14       1.0  0.26857  0.18715  0.50946  1.0000
  H   H64       1.0  0.25889  0.22316  0.57075  1.0000
  C   C77       1.0  0.43177  0.57561  0.34065  1.0000
  N   N15       1.0  0.44152  0.53065  0.29329  1.0000
  C   C78       1.0  0.42238  0.54608  0.28815  1.0000
  O   O15       1.0  0.39513  0.53249  0.23081  1.0000
  C   C79       1.0  0.40391  0.54588  0.14084  1.0000
  H   H65       1.0  0.38086  0.53383  0.10002  1.0000
  H   H66       1.0  0.42246  0.54017  0.11053  1.0000
  H   H67       1.0  0.41392  0.57337  0.13961  1.0000
  C   C80       1.0  0.43382  0.85869  0.34069  1.0000
  N   N16       1.0  0.47874  0.91341  0.29331  1.0000
  C   C81       1.0  0.46336  0.87886  0.28823  1.0000
  O   O16       1.0  0.47701  0.86525  0.23095  1.0000
  C   C82       1.0  0.46364  0.86061  0.14096  1.0000
  H   H68       1.0  0.47574  0.84964  0.10019  1.0000
  H   H69       1.0  0.46933  0.88486  0.11061  1.0000
  H   H70       1.0  0.43614  0.84309  0.13967  1.0000
  N   N17       1.0  0.30826  0.58013  0.26845  1.0000
  C   C83       1.0  0.27736  0.57812  0.26314  1.0000
  C   C84       1.0  0.26156  0.57945  0.34415  1.0000
  O   O17       1.0  0.26755  0.58391  0.18103  1.0000
  H   H71       1.0  0.25795  0.53816  0.12034  1.0000
  N   N18       1.0  0.42941  0.73074  0.26821  1.0000
  C   C85       1.0  0.43142  0.70186  0.26307  1.0000
  C   C86       1.0  0.43006  0.68475  0.34413  1.0000
  O   O18       1.0  0.42568  0.68625  0.18099  1.0000
  C   C87       1.0  0.45672  0.69508  0.13403  1.0000
  H   H72       1.0  0.45008  0.68172  0.06970  1.0000
  H   H73       1.0  0.47236  0.68722  0.17171  1.0000
  H   H74       1.0  0.47148  0.72241  0.12039  1.0000
  N   N19       1.0  0.27865  0.70120  0.26848  1.0000
  C   C88       1.0  0.30754  0.73208  0.26317  1.0000
  C   C89       1.0  0.32469  0.74787  0.34418  1.0000
  O   O19       1.0  0.32314  0.74189  0.18106  1.0000
  C   C90       1.0  0.31431  0.76407  0.13402  1.0000
  H   H75       1.0  0.32766  0.77075  0.06965  1.0000
  H   H76       1.0  0.32221  0.78760  0.17160  1.0000
  H   H77       1.0  0.28697  0.75153  0.12043  1.0000
  C   C91       1.0  0.48786  0.52295  0.34439  1.0000
  C   C92       1.0  0.46973  0.98686  0.34363  1.0000
  C   C93       1.0  0.48635  0.96740  0.34434  1.0000
  H   H78       1.0  0.44369  0.97443  0.34226  1.0000
  C   C94       1.0  0.25937  0.63140  0.34505  1.0000
  H   H79       1.0  0.28553  0.64428  0.34577  1.0000
  C   C95       1.0  0.41398  0.64872  0.34484  1.0000
  C   C96       1.0  0.37809  0.63063  0.34506  1.0000
  C   C97       1.0  0.35940  0.59478  0.34464  1.0000
  C   C98       1.0  0.37732  0.57672  0.34343  1.0000
  C   C99       1.0  0.41355  0.59395  0.34210  1.0000
  C   C100      1.0  0.43145  0.63018  0.34382  1.0000
  H   H80       1.0  0.36366  0.55071  0.34548  1.0000
  H   H81       1.0  0.45751  0.64334  0.34246  1.0000
  H   H82       1.0  0.36521  0.64391  0.34579  1.0000
  C   C101      1.0  0.36073  0.76781  0.34482  1.0000
  C   C102      1.0  0.37884  0.75003  0.34494  1.0000
  C   C103      1.0  0.41470  0.76719  0.34451  1.0000
  C   C104      1.0  0.43276  0.80316  0.34338  1.0000
  C   C105      1.0  0.41550  0.82214  0.34212  1.0000
  C   C106      1.0  0.37926  0.80380  0.34386  1.0000
  H   H83       1.0  0.45877  0.81551  0.34538  1.0000
  H   H84       1.0  0.36608  0.81668  0.34259  1.0000
  H   H85       1.0  0.36556  0.72389  0.34563  1.0000
  N   N20       1.0  0.46020  0.58661  0.39229  1.0000
  C   C107      1.0  0.47937  0.57120  0.39731  1.0000
  C   C108      1.0  0.46996  0.54164  0.34490  1.0000
  O   O20       1.0  0.50654  0.58471  0.45491  1.0000
  C   C109      1.0  0.49768  0.57119  0.54472  1.0000
  H   H86       1.0  0.52069  0.58320  0.58572  1.0000
  H   H87       1.0  0.98771  0.54370  0.54569  1.0000
  H   H88       1.0  0.47907  0.07683  0.57502  1.0000
  N   N21       1.0  0.42276  0.87610  0.39223  1.0000
  C   C110      1.0  0.43811  0.91065  0.39720  1.0000
  C   C111      1.0  0.46769  0.93083  0.34483  1.0000
  O   O21       1.0  0.42454  0.92427  0.45472  1.0000
  C   C112      1.0  0.43805  0.92897  0.54457  1.0000
  H   H89       1.0  0.42598  0.93992  0.58550  1.0000
  H   H90       1.0  0.46554  0.94651  0.54560  1.0000
  H   H91       1.0  0.93243  0.90474  0.57490  1.0000
  C   C113      1.0  0.32341  0.57919  0.34670  1.0000
  N   N22       1.0  0.27770  0.58045  0.42232  1.0000
  C   C114      1.0  0.30647  0.57824  0.42766  1.0000
  O   O22       1.0  0.32230  0.58406  0.50943  1.0000
  C   C115      1.0  0.31358  0.55310  0.55656  1.0000
  H   H92       1.0  0.32710  0.55981  0.62067  1.0000
  H   H93       1.0  0.32134  0.53741  0.51876  1.0000
  H   H94       1.0  0.28627  0.53837  0.57068  1.0000
  C   C116      1.0  0.43031  0.74679  0.34645  1.0000
  N   N23       1.0  0.42903  0.69990  0.42225  1.0000
  C   C117      1.0  0.43123  0.73086  0.42754  1.0000
  O   O23       1.0  0.42539  0.74089  0.50926  1.0000
  C   C118      1.0  0.45635  0.76311  0.55643  1.0000
  H   H95       1.0  0.44962  0.76994  0.62049  1.0000
  H   H96       1.0  0.47207  0.78655  0.51861  1.0000
  H   H97       1.0  0.47107  0.75053  0.57064  1.0000
  C   C119      1.0  0.26256  0.68605  0.34672  1.0000
  N   N24       1.0  0.30955  0.73173  0.42234  1.0000
  C   C120      1.0  0.27857  0.70298  0.42769  1.0000
  O   O24       1.0  0.26857  0.68715  0.50946  1.0000
  H   H98       1.0  0.25889  0.72316  0.57075  1.0000
  C   C121      1.0  0.65067  0.07768  0.34069  1.0000
  N   N25       1.0  0.59592  0.06784  0.29335  1.0000
  C   C122      1.0  0.63048  0.08704  0.28829  1.0000
  O   O25       1.0  0.64408  0.11432  0.23110  1.0000
  C   C123      1.0  0.64873  0.10565  0.14106  1.0000
  H   H99       1.0  0.65969  0.12872  0.10037  1.0000
  H   H100      1.0  0.62448  0.08709  0.11068  1.0000
  H   H101      1.0  0.66627  0.09569  0.13970  1.0000
  C   C124      1.0  0.93177  0.07561  0.34065  1.0000
  N   N26       1.0  0.94152  0.03066  0.29329  1.0000
  C   C125      1.0  0.92238  0.04608  0.28815  1.0000
  O   O26       1.0  0.89514  0.03250  0.23081  1.0000
  C   C126      1.0  0.90391  0.04588  0.14084  1.0000
  H   H102      1.0  0.88086  0.03383  0.10002  1.0000
  H   H103      1.0  0.92246  0.04016  0.11053  1.0000
  H   H104      1.0  0.91392  0.07337  0.13961  1.0000
  C   C127      1.0  0.93382  0.35869  0.34069  1.0000
  N   N27       1.0  0.97874  0.41341  0.29331  1.0000
  C   C128      1.0  0.96336  0.37886  0.28823  1.0000
  O   O27       1.0  0.97701  0.36525  0.23095  1.0000
  C   C129      1.0  0.96364  0.36061  0.14096  1.0000
  H   H105      1.0  0.97574  0.34964  0.10019  1.0000
  H   H106      1.0  0.96933  0.38485  0.11061  1.0000
  H   H107      1.0  0.93614  0.34309  0.13967  1.0000
  N   N28       1.0  0.80826  0.08013  0.26845  1.0000
  C   C130      1.0  0.77736  0.07812  0.26314  1.0000
  C   C131      1.0  0.76156  0.07945  0.34415  1.0000
  O   O28       1.0  0.76755  0.08391  0.18103  1.0000
  C   C132      1.0  0.74537  0.05292  0.13394  1.0000
  H   H108      1.0  0.73870  0.05959  0.06958  1.0000
  H   H109      1.0  0.72184  0.03728  0.17150  1.0000
  H   H110      1.0  0.75795  0.03815  0.12034  1.0000
  N   N29       1.0  0.92941  0.23074  0.26821  1.0000
  C   C133      1.0  0.93142  0.20186  0.26307  1.0000
  C   C134      1.0  0.93006  0.18475  0.34413  1.0000
  O   O29       1.0  0.92568  0.18625  0.18099  1.0000
  C   C135      1.0  0.95672  0.19508  0.13403  1.0000
  H   H111      1.0  0.95008  0.18172  0.06970  1.0000
  H   H112      1.0  0.97236  0.18722  0.17171  1.0000
  H   H113      1.0  0.97148  0.22241  0.12039  1.0000
  N   N30       1.0  0.77865  0.20120  0.26848  1.0000
  C   C136      1.0  0.80754  0.23208  0.26317  1.0000
  C   C137      1.0  0.82468  0.24787  0.34418  1.0000
  O   O30       1.0  0.82314  0.24189  0.18106  1.0000
  C   C138      1.0  0.81431  0.26407  0.13402  1.0000
  H   H114      1.0  0.82766  0.27075  0.06965  1.0000
  H   H115      1.0  0.82221  0.28760  0.17160  1.0000
  H   H116      1.0  0.78697  0.25152  0.12043  1.0000
  C   C139      1.0  0.54192  0.02144  0.34432  1.0000
  C   C140      1.0  0.52393  0.03957  0.34362  1.0000
  C   C141      1.0  0.98785  0.02295  0.34439  1.0000
  C   C142      1.0  0.96972  0.48686  0.34363  1.0000
  C   C143      1.0  0.98635  0.46741  0.34434  1.0000
  C   C144      1.0  0.52247  0.48538  0.34358  1.0000
  H   H117      1.0  0.94369  0.47443  0.34226  1.0000
  H   H118      1.0  0.53491  0.47179  0.34216  1.0000
  H   H119      1.0  0.53753  0.06559  0.34224  1.0000
  C   C145      1.0  0.74160  0.09553  0.34482  1.0000
  C   C146      1.0  0.75937  0.13140  0.34505  1.0000
  C   C147      1.0  0.74219  0.15008  0.34465  1.0000
  C   C148      1.0  0.70620  0.13215  0.34346  1.0000
  C   C149      1.0  0.68723  0.09593  0.34214  1.0000
  C   C150      1.0  0.70560  0.07806  0.34383  1.0000
  H   H120      1.0  0.69383  0.14579  0.34554  1.0000
  H   H121      1.0  0.69273  0.05201  0.34247  1.0000
  H   H122      1.0  0.78553  0.14428  0.34577  1.0000
  C   C151      1.0  0.91398  0.14872  0.34484  1.0000
  C   C152      1.0  0.87809  0.13063  0.34506  1.0000
  C   C153      1.0  0.85940  0.09478  0.34464  1.0000
  C   C154      1.0  0.87732  0.07672  0.34343  1.0000
  C   C155      1.0  0.91355  0.09395  0.34210  1.0000
  C   C156      1.0  0.93145  0.13018  0.34382  1.0000
  H   H123      1.0  0.86366  0.05072  0.34548  1.0000
  H   H124      1.0  0.95751  0.14334  0.34246  1.0000
  H   H125      1.0  0.86521  0.14391  0.34579  1.0000
  C   C157      1.0  0.86073  0.26781  0.34482  1.0000
  C   C158      1.0  0.87884  0.25003  0.34494  1.0000
  C   C159      1.0  0.91470  0.26719  0.34451  1.0000
  C   C160      1.0  0.93276  0.30316  0.34338  1.0000
  C   C161      1.0  0.91551  0.32214  0.34212  1.0000
  C   C162      1.0  0.87926  0.30380  0.34386  1.0000
  H   H126      1.0  0.95877  0.31551  0.34538  1.0000
  H   H127      1.0  0.86608  0.31668  0.34259  1.0000
  H   H128      1.0  0.86556  0.22389  0.34563  1.0000
  N   N31       1.0  0.63328  0.04920  0.39216  1.0000
  C   C163      1.0  0.59871  0.02997  0.39712  1.0000
  C   C164      1.0  0.57851  0.03936  0.34479  1.0000
  O   O31       1.0  0.58510  0.00277  0.45456  1.0000
  C   C165      1.0  0.58039  0.01153  0.54445  1.0000
  H   H129      1.0  0.56945  0.98850  0.58531  1.0000
  H   H130      1.0  0.56283  0.52146  0.54555  1.0000
  H   H131      1.0  0.60462  0.03014  0.57481  1.0000
  N   N32       1.0  0.96020  0.08661  0.39229  1.0000
  C   C166      1.0  0.97937  0.07120  0.39731  1.0000
  C   C167      1.0  0.96996  0.04164  0.34490  1.0000
  O   O32       1.0  0.00654  0.08471  0.45491  1.0000
  C   C168      1.0  0.99768  0.07119  0.54472  1.0000
  H   H132      1.0  0.48771  0.04370  0.54569  1.0000
  H   H133      1.0  0.97907  0.57683  0.57502  1.0000
  N   N33       1.0  0.92276  0.37610  0.39223  1.0000
  C   C169      1.0  0.93811  0.41065  0.39720  1.0000
  C   C170      1.0  0.96769  0.43083  0.34483  1.0000
  O   O33       1.0  0.92454  0.42428  0.45472  1.0000
  C   C171      1.0  0.93804  0.42897  0.54457  1.0000
  H   H134      1.0  0.92598  0.43992  0.58550  1.0000
  H   H135      1.0  0.96554  0.44651  0.54560  1.0000
  H   H136      1.0  0.43243  0.40474  0.57490  1.0000
  C   C172      1.0  0.82341  0.07919  0.34670  1.0000
  N   N34       1.0  0.77770  0.08045  0.42232  1.0000
  C   C173      1.0  0.80647  0.07824  0.42766  1.0000
  O   O34       1.0  0.82230  0.08406  0.50943  1.0000
  C   C174      1.0  0.81357  0.05310  0.55656  1.0000
  H   H137      1.0  0.82710  0.05981  0.62067  1.0000
  H   H138      1.0  0.82134  0.03741  0.51876  1.0000
  H   H139      1.0  0.78627  0.03837  0.57068  1.0000
  C   C175      1.0  0.93031  0.24679  0.34645  1.0000
  N   N35       1.0  0.92902  0.19989  0.42225  1.0000
  C   C176      1.0  0.93123  0.23086  0.42754  1.0000
  O   O35       1.0  0.92539  0.24088  0.50926  1.0000
  C   C177      1.0  0.95635  0.26311  0.55643  1.0000
  H   H140      1.0  0.94962  0.26994  0.62049  1.0000
  H   H141      1.0  0.97207  0.28655  0.51861  1.0000
  H   H142      1.0  0.97107  0.25053  0.57064  1.0000
  C   C178      1.0  0.76256  0.18605  0.34672  1.0000
  N   N36       1.0  0.80955  0.23173  0.42234  1.0000
  C   C179      1.0  0.77857  0.20298  0.42769  1.0000
  O   O36       1.0  0.76857  0.18715  0.50946  1.0000
  C   C180      1.0  0.74633  0.19587  0.55662  1.0000
  H   H143      1.0  0.73952  0.18234  0.62072  1.0000
  H   H144      1.0  0.72286  0.18811  0.51884  1.0000
  H   H145      1.0  0.75889  0.22316  0.57075  1.0000
  C   C181      1.0  0.65067  0.57768  0.34069  1.0000
  N   N37       1.0  0.59592  0.56784  0.29335  1.0000
  C   C182      1.0  0.63048  0.58704  0.28829  1.0000
  O   O37       1.0  0.64408  0.61432  0.23110  1.0000
  C   C183      1.0  0.64873  0.60565  0.14106  1.0000
  H   H146      1.0  0.65969  0.62872  0.10037  1.0000
  H   H147      1.0  0.62448  0.58709  0.11068  1.0000
  H   H148      1.0  0.66628  0.59569  0.13970  1.0000
  C   C184      1.0  0.93177  0.57561  0.34065  1.0000
  N   N38       1.0  0.94151  0.53065  0.29329  1.0000
  C   C185      1.0  0.92238  0.54608  0.28815  1.0000
  O   O38       1.0  0.89514  0.53249  0.23081  1.0000
  C   C186      1.0  0.90391  0.54588  0.14084  1.0000
  H   H149      1.0  0.88086  0.53383  0.10002  1.0000
  H   H150      1.0  0.92246  0.54017  0.11053  1.0000
  H   H151      1.0  0.91392  0.57337  0.13961  1.0000
  C   C187      1.0  0.93382  0.85869  0.34069  1.0000
  N   N39       1.0  0.97874  0.91341  0.29331  1.0000
  C   C188      1.0  0.96336  0.87886  0.28823  1.0000
  O   O39       1.0  0.97701  0.86525  0.23095  1.0000
  C   C189      1.0  0.96364  0.86061  0.14096  1.0000
  H   H152      1.0  0.97574  0.84964  0.10019  1.0000
  H   H153      1.0  0.96933  0.88486  0.11061  1.0000
  H   H154      1.0  0.93614  0.84309  0.13967  1.0000
  N   N40       1.0  0.80826  0.58013  0.26845  1.0000
  C   C190      1.0  0.77736  0.57812  0.26314  1.0000
  C   C191      1.0  0.76156  0.57945  0.34415  1.0000
  O   O40       1.0  0.76755  0.58391  0.18103  1.0000
  C   C192      1.0  0.74537  0.55292  0.13394  1.0000
  H   H155      1.0  0.73870  0.55959  0.06958  1.0000
  H   H156      1.0  0.72184  0.53728  0.17150  1.0000
  H   H157      1.0  0.75795  0.53816  0.12034  1.0000
  N   N41       1.0  0.92941  0.73074  0.26821  1.0000
  C   C193      1.0  0.93142  0.70186  0.26307  1.0000
  C   C194      1.0  0.93006  0.68475  0.34413  1.0000
  O   O41       1.0  0.92568  0.68625  0.18099  1.0000
  C   C195      1.0  0.95672  0.69508  0.13403  1.0000
  H   H158      1.0  0.95008  0.68172  0.06970  1.0000
  H   H159      1.0  0.97236  0.68722  0.17171  1.0000
  H   H160      1.0  0.97148  0.72241  0.12039  1.0000
  N   N42       1.0  0.77865  0.70120  0.26848  1.0000
  C   C196      1.0  0.80754  0.73208  0.26317  1.0000
  C   C197      1.0  0.82469  0.74787  0.34418  1.0000
  O   O42       1.0  0.82314  0.74189  0.18106  1.0000
  C   C198      1.0  0.81431  0.76407  0.13402  1.0000
  H   H161      1.0  0.82766  0.77075  0.06965  1.0000
  H   H162      1.0  0.82221  0.78760  0.17160  1.0000
  H   H163      1.0  0.78697  0.75153  0.12043  1.0000
  C   C199      1.0  0.54192  0.52144  0.34432  1.0000
  C   C200      1.0  0.52393  0.53956  0.34362  1.0000
  C   C201      1.0  0.98786  0.52295  0.34439  1.0000
  C   C202      1.0  0.96973  0.98686  0.34363  1.0000
  C   C203      1.0  0.98635  0.96740  0.34434  1.0000
  C   C204      1.0  0.52247  0.98538  0.34358  1.0000
  H   H164      1.0  0.94369  0.97443  0.34226  1.0000
  H   H165      1.0  0.53491  0.97179  0.34216  1.0000
  H   H166      1.0  0.53753  0.56559  0.34224  1.0000
  C   C205      1.0  0.74160  0.59553  0.34482  1.0000
  C   C206      1.0  0.75937  0.63140  0.34505  1.0000
  C   C207      1.0  0.74219  0.65008  0.34465  1.0000
  C   C208      1.0  0.70620  0.63215  0.34346  1.0000
  C   C209      1.0  0.68723  0.59593  0.34214  1.0000
  C   C210      1.0  0.70560  0.57806  0.34383  1.0000
  H   H167      1.0  0.69383  0.64579  0.34554  1.0000
  H   H168      1.0  0.69273  0.55201  0.34247  1.0000
  H   H169      1.0  0.78553  0.64428  0.34577  1.0000
  C   C211      1.0  0.91398  0.64872  0.34484  1.0000
  C   C212      1.0  0.87809  0.63063  0.34506  1.0000
  C   C213      1.0  0.85940  0.59478  0.34464  1.0000
  C   C214      1.0  0.87732  0.57672  0.34343  1.0000
  C   C215      1.0  0.91355  0.59395  0.34210  1.0000
  C   C216      1.0  0.93145  0.63018  0.34382  1.0000
  H   H170      1.0  0.86366  0.55071  0.34548  1.0000
  H   H171      1.0  0.95751  0.64334  0.34246  1.0000
  H   H172      1.0  0.86522  0.64391  0.34579  1.0000
  C   C217      1.0  0.86073  0.76781  0.34482  1.0000
  C   C218      1.0  0.87884  0.75003  0.34494  1.0000
  C   C219      1.0  0.91470  0.76719  0.34451  1.0000
  C   C220      1.0  0.93276  0.80316  0.34338  1.0000
  C   C221      1.0  0.91550  0.82214  0.34212  1.0000
  C   C222      1.0  0.87926  0.80380  0.34386  1.0000
  H   H173      1.0  0.95877  0.81551  0.34538  1.0000
  H   H174      1.0  0.86608  0.81668  0.34259  1.0000
  H   H175      1.0  0.86556  0.72389  0.34563  1.0000
  N   N43       1.0  0.63328  0.54920  0.39216  1.0000
  C   C223      1.0  0.59871  0.52997  0.39712  1.0000
  C   C224      1.0  0.57851  0.53936  0.34479  1.0000
  O   O43       1.0  0.58510  0.50277  0.45456  1.0000
  C   C225      1.0  0.58039  0.51153  0.54445  1.0000
  H   H176      1.0  0.56945  0.48850  0.58531  1.0000
  H   H177      1.0  0.56283  0.02146  0.54555  1.0000
  H   H178      1.0  0.60463  0.53014  0.57481  1.0000
  N   N44       1.0  0.96020  0.58661  0.39229  1.0000
  C   C226      1.0  0.97937  0.57120  0.39731  1.0000
  C   C227      1.0  0.96996  0.54164  0.34490  1.0000
  O   O44       1.0  0.00654  0.58471  0.45491  1.0000
  C   C228      1.0  0.99769  0.57119  0.54472  1.0000
  H   H179      1.0  0.48771  0.54370  0.54569  1.0000
  H   H180      1.0  0.97908  0.07683  0.57502  1.0000
  N   N45       1.0  0.92276  0.87610  0.39223  1.0000
  C   C229      1.0  0.93812  0.91065  0.39720  1.0000
  C   C230      1.0  0.96769  0.93083  0.34483  1.0000
  O   O45       1.0  0.92454  0.92427  0.45472  1.0000
  C   C231      1.0  0.93804  0.92897  0.54457  1.0000
  H   H181      1.0  0.92598  0.93992  0.58550  1.0000
  H   H182      1.0  0.96554  0.94651  0.54560  1.0000
  H   H183      1.0  0.43243  0.90474  0.57490  1.0000
  C   C232      1.0  0.82341  0.57919  0.34670  1.0000
  N   N46       1.0  0.77770  0.58045  0.42232  1.0000
  C   C233      1.0  0.80647  0.57824  0.42766  1.0000
  O   O46       1.0  0.82230  0.58406  0.50943  1.0000
  C   C234      1.0  0.81358  0.55310  0.55656  1.0000
  H   H184      1.0  0.82710  0.55981  0.62067  1.0000
  H   H185      1.0  0.82134  0.53741  0.51876  1.0000
  H   H186      1.0  0.78627  0.53837  0.57068  1.0000
  C   C235      1.0  0.93031  0.74679  0.34645  1.0000
  N   N47       1.0  0.92903  0.69990  0.42225  1.0000
  C   C236      1.0  0.93122  0.73086  0.42754  1.0000
  O   O47       1.0  0.92539  0.74089  0.50926  1.0000
  C   C237      1.0  0.95635  0.76311  0.55643  1.0000
  H   H187      1.0  0.94963  0.76994  0.62049  1.0000
  H   H188      1.0  0.97207  0.78655  0.51861  1.0000
  H   H189      1.0  0.97107  0.75053  0.57064  1.0000
  C   C238      1.0  0.76256  0.68605  0.34672  1.0000
  N   N48       1.0  0.80955  0.73173  0.42234  1.0000
  C   C239      1.0  0.77857  0.70298  0.42769  1.0000
  O   O48       1.0  0.76857  0.68715  0.50946  1.0000
  C   C240      1.0  0.74633  0.69587  0.55662  1.0000
  H   H190      1.0  0.73952  0.68234  0.62072  1.0000
  H   H191      1.0  0.72286  0.68811  0.51884  1.0000
  H   H192      1.0  0.75889  0.72316  0.57075  1.0000
