data_image0
_chemical_formula_structural       N12C4HC2H3OC4HC2H3OC4HC2H3OC4HC2H3OC4HC2H3OC4HC2H3OC4HC2H3OC4HC2H3OC4HC2H3OC4HC2H3OC4HC2H3OC4HC2H3OCNCNCNC18H12CNCNCNC18H12CNCNCNC18H12CNCNCNC18H12CNCNCNC18H12CNCNCNC18H12CNCNCNC18H12CNCNCNC18H12CNCNCNC18H12CNCNCNC18H12CNCNCNC18H12CNCNCNC18H12C4HC2H3OC4HC2H3OC4HC2H3OC4HC2H3OC4HC2H3OC4HC2H3ON24
_chemical_formula_sum              "N72 C360 H216 O18"
_cell_length_a       74.2527
_cell_length_b       74.2526
_cell_length_c       15.0022
_cell_angle_alpha    90
_cell_angle_beta     90
_cell_angle_gamma    120

_space_group_name_H-M_alt    "P 1"
_space_group_IT_number       1

loop_
  _space_group_symop_operation_xyz
  'x, y, z'

loop_
  _atom_site_type_symbol
  _atom_site_label
  _atom_site_symmetry_multiplicity
  _atom_site_fract_x
  _atom_site_fract_y
  _atom_site_fract_z
  _atom_site_occupancy
  N   N1        1.0  0.19576  0.37549  0.30672  1.0000
  N   N2        1.0  0.20571  0.39580  0.30379  1.0000
  N   N3        1.0  0.61087  0.80686  0.30683  1.0000
  N   N4        1.0  0.59056  0.79650  0.30386  1.0000
  N   N5        1.0  0.17958  0.79068  0.30675  1.0000
  N   N6        1.0  0.18994  0.78073  0.30379  1.0000
  N   N7        1.0  0.79510  0.60653  0.30669  1.0000
  N   N8        1.0  0.78516  0.58622  0.30376  1.0000
  N   N9        1.0  0.37996  0.17516  0.30690  1.0000
  N   N10       1.0  0.40026  0.18552  0.30399  1.0000
  N   N11       1.0  0.81127  0.19133  0.30675  1.0000
  N   N12       1.0  0.80091  0.20128  0.30381  1.0000
  C   C1        1.0  0.20527  0.17764  0.30395  1.0000
  C   C2        1.0  0.20960  0.19256  0.23658  1.0000
  C   C3        1.0  0.19905  0.20400  0.23494  1.0000
  C   C4        1.0  0.18417  0.20005  0.30285  1.0000
  H   H1        1.0  0.22007  0.19475  0.18737  1.0000
  C   C5        1.0  0.20235  0.21764  0.16521  1.0000
  C   C6        1.0  0.19006  0.20922  0.08490  1.0000
  H   H2        1.0  0.19515  0.19985  0.04811  1.0000
  H   H3        1.0  0.19170  0.22181  0.04182  1.0000
  H   H4        1.0  0.17358  0.19952  0.10111  1.0000
  O   O1        1.0  0.22035  0.23144  0.15301  1.0000
  C   C7        1.0  0.80875  0.01418  0.30392  1.0000
  C   C8        1.0  0.79383  0.00359  0.23658  1.0000
  C   C9        1.0  0.78237  0.98160  0.23502  1.0000
  C   C10       1.0  0.78631  0.97068  0.30299  1.0000
  H   H5        1.0  0.79165  0.01186  0.18731  1.0000
  C   C11       1.0  0.76872  0.97123  0.16519  1.0000
  C   C12       1.0  0.77731  0.96757  0.08499  1.0000
  H   H6        1.0  0.78670  0.98210  0.04875  1.0000
  H   H7        1.0  0.76478  0.95669  0.04145  1.0000
  H   H8        1.0  0.78701  0.96078  0.10112  1.0000
  O   O2        1.0  0.75484  0.97536  0.15427  1.0000
  C   C13       1.0  0.97223  0.78121  0.30394  1.0000
  C   C14       1.0  0.98282  0.77691  0.23648  1.0000
  C   C15       1.0  0.00481  0.78742  0.23500  1.0000
  C   C16       1.0  0.01573  0.80229  0.30297  1.0000
  H   H9        1.0  0.97454  0.76647  0.18719  1.0000
  C   C17       1.0  0.01516  0.78419  0.16506  1.0000
  C   C18       1.0  0.01887  0.79621  0.08420  1.0000
  H   H10       1.0  0.00438  0.79087  0.04741  1.0000
  H   H11       1.0  0.02990  0.79459  0.04155  1.0000
  H   H12       1.0  0.02549  0.81271  0.09962  1.0000
  O   O3        1.0  0.01119  0.76620  0.15501  1.0000
  C   C19       1.0  0.78555  0.80436  0.30396  1.0000
  C   C20       1.0  0.78123  0.78944  0.23659  1.0000
  C   C21       1.0  0.79177  0.77799  0.23498  1.0000
  C   C22       1.0  0.80665  0.78195  0.30290  1.0000
  H   H13       1.0  0.77076  0.78726  0.18737  1.0000
  C   C23       1.0  0.78848  0.76436  0.16522  1.0000
  C   C24       1.0  0.80078  0.77280  0.08495  1.0000
  H   H14       1.0  0.79570  0.78217  0.04817  1.0000
  H   H15       1.0  0.79915  0.76022  0.04184  1.0000
  H   H16       1.0  0.81725  0.78250  0.10120  1.0000
  O   O4        1.0  0.77049  0.75056  0.15296  1.0000
  C   C25       1.0  0.18209  0.96782  0.30409  1.0000
  C   C26       1.0  0.19698  0.97841  0.23664  1.0000
  C   C27       1.0  0.20845  0.00040  0.23508  1.0000
  C   C28       1.0  0.20451  0.01133  0.30304  1.0000
  H   H17       1.0  0.19913  0.97013  0.18730  1.0000
  C   C29       1.0  0.22202  0.01074  0.16512  1.0000
  C   C30       1.0  0.21370  0.01445  0.08427  1.0000
  H   H18       1.0  0.20454  0.99995  0.04750  1.0000
  H   H19       1.0  0.22634  0.02547  0.04159  1.0000
  H   H20       1.0  0.20382  0.02107  0.09970  1.0000
  O   O5        1.0  0.23605  0.00677  0.15503  1.0000
  C   C31       1.0  0.01862  0.20082  0.30401  1.0000
  C   C32       1.0  0.00803  0.20512  0.23653  1.0000
  C   C33       1.0  0.98604  0.19460  0.23499  1.0000
  C   C34       1.0  0.97511  0.17974  0.30297  1.0000
  H   H21       1.0  0.01631  0.21557  0.18726  1.0000
  C   C35       1.0  0.97570  0.19785  0.16508  1.0000
  C   C36       1.0  0.97199  0.18584  0.08417  1.0000
  H   H22       1.0  0.98649  0.19119  0.04739  1.0000
  H   H23       1.0  0.96096  0.18748  0.04154  1.0000
  H   H24       1.0  0.96537  0.16934  0.09952  1.0000
  O   O6        1.0  0.97967  0.21584  0.15510  1.0000
  C   C37       1.0  0.21560  0.58310  0.33418  1.0000
  C   C38       1.0  0.20851  0.58639  0.25162  1.0000
  C   C39       1.0  0.20804  0.60499  0.23642  1.0000
  C   C40       1.0  0.21378  0.61944  0.30757  1.0000
  H   H25       1.0  0.20557  0.57627  0.19998  1.0000
  C   C41       1.0  0.20236  0.60913  0.15396  1.0000
  C   C42       1.0  0.21526  0.61182  0.07682  1.0000
  H   H26       1.0  0.23172  0.62175  0.09262  1.0000
  H   H27       1.0  0.21142  0.61922  0.02299  1.0000
  H   H28       1.0  0.21274  0.59682  0.05316  1.0000
  O   O7        1.0  0.18360  0.60015  0.14078  1.0000
  C   C43       1.0  0.40341  0.61896  0.33393  1.0000
  C   C44       1.0  0.40005  0.60861  0.25125  1.0000
  C   C45       1.0  0.38148  0.58950  0.23632  1.0000
  C   C46       1.0  0.36714  0.58071  0.30782  1.0000
  H   H29       1.0  0.41008  0.61583  0.19941  1.0000
  C   C47       1.0  0.37721  0.57977  0.15374  1.0000
  C   C48       1.0  0.37466  0.58988  0.07607  1.0000
  H   H30       1.0  0.36494  0.59668  0.09159  1.0000
  H   H31       1.0  0.36707  0.57854  0.02273  1.0000
  H   H32       1.0  0.38972  0.60216  0.05197  1.0000
  O   O8        1.0  0.38599  0.56976  0.14075  1.0000
  C   C49       1.0  0.36744  0.77105  0.33434  1.0000
  C   C50       1.0  0.37788  0.77815  0.25189  1.0000
  C   C51       1.0  0.39700  0.77871  0.23708  1.0000
  C   C52       1.0  0.40574  0.77306  0.30843  1.0000
  H   H33       1.0  0.37073  0.78109  0.20016  1.0000
  C   C53       1.0  0.40683  0.78434  0.15479  1.0000
  C   C54       1.0  0.39682  0.77140  0.07747  1.0000
  H   H34       1.0  0.39038  0.75497  0.09348  1.0000
  H   H35       1.0  0.40815  0.77529  0.02394  1.0000
  H   H36       1.0  0.38428  0.77378  0.05329  1.0000
  O   O9        1.0  0.41643  0.80306  0.14026  1.0000
  C   C55       1.0  0.77530  0.39893  0.33442  1.0000
  C   C56       1.0  0.78238  0.39563  0.25186  1.0000
  C   C57       1.0  0.78285  0.37703  0.23674  1.0000
  C   C58       1.0  0.77712  0.36259  0.30797  1.0000
  H   H37       1.0  0.78531  0.40573  0.20018  1.0000
  C   C59       1.0  0.78849  0.37285  0.15428  1.0000
  C   C60       1.0  0.77556  0.37012  0.07723  1.0000
  H   H38       1.0  0.75911  0.36019  0.09316  1.0000
  H   H39       1.0  0.77938  0.36271  0.02340  1.0000
  H   H40       1.0  0.77805  0.38511  0.05350  1.0000
  O   O10       1.0  0.80725  0.38184  0.14094  1.0000
  C   C61       1.0  0.58748  0.36298  0.33396  1.0000
  C   C62       1.0  0.59086  0.37332  0.25123  1.0000
  C   C63       1.0  0.60940  0.39245  0.23634  1.0000
  C   C64       1.0  0.62377  0.40127  0.30772  1.0000
  H   H41       1.0  0.58077  0.36613  0.19951  1.0000
  C   C65       1.0  0.61363  0.40220  0.15379  1.0000
  C   C66       1.0  0.61619  0.39210  0.07602  1.0000
  H   H42       1.0  0.62592  0.38533  0.09139  1.0000
  H   H43       1.0  0.62374  0.40346  0.02268  1.0000
  H   H44       1.0  0.60113  0.37981  0.05197  1.0000
  O   O11       1.0  0.60482  0.41218  0.14095  1.0000
  C   C67       1.0  0.62342  0.21102  0.33412  1.0000
  C   C68       1.0  0.61304  0.20396  0.25153  1.0000
  C   C69       1.0  0.59393  0.20340  0.23656  1.0000
  C   C70       1.0  0.58516  0.20902  0.30793  1.0000
  H   H45       1.0  0.62022  0.20104  0.19985  1.0000
  C   C71       1.0  0.58413  0.19779  0.15419  1.0000
  C   C72       1.0  0.59422  0.21066  0.07680  1.0000
  H   H46       1.0  0.60078  0.22712  0.09269  1.0000
  H   H47       1.0  0.58291  0.20684  0.02325  1.0000
  H   H48       1.0  0.60667  0.20815  0.05271  1.0000
  O   O12       1.0  0.57442  0.17906  0.13983  1.0000
  C   C73       1.0  0.13930  0.24365  0.33396  1.0000
  N   N13       1.0  0.14936  0.26478  0.33969  1.0000
  C   C74       1.0  0.13922  0.27576  0.34218  1.0000
  N   N14       1.0  0.11813  0.26468  0.33789  1.0000
  C   C75       1.0  0.10716  0.24361  0.33201  1.0000
  N   N15       1.0  0.11816  0.23349  0.33020  1.0000
  C   C76       1.0  0.15001  0.29788  0.34871  1.0000
  C   C77       1.0  0.17201  0.30977  0.34493  1.0000
  C   C78       1.0  0.18255  0.33160  0.35182  1.0000
  C   C79       1.0  0.17144  0.34225  0.36445  1.0000
  C   C80       1.0  0.14950  0.33054  0.36687  1.0000
  C   C81       1.0  0.13900  0.30878  0.35921  1.0000
  C   C82       1.0  0.15050  0.23271  0.32917  1.0000
  C   C83       1.0  0.17249  0.24353  0.32282  1.0000
  C   C84       1.0  0.18355  0.23282  0.31461  1.0000
  C   C85       1.0  0.17302  0.21086  0.31241  1.0000
  C   C86       1.0  0.15116  0.19992  0.32157  1.0000
  C   C87       1.0  0.14010  0.21067  0.32903  1.0000
  C   C88       1.0  0.08508  0.23285  0.32578  1.0000
  C   C89       1.0  0.07302  0.21124  0.34286  1.0000
  C   C90       1.0  0.05117  0.20075  0.33668  1.0000
  C   C91       1.0  0.04066  0.21138  0.31078  1.0000
  C   C92       1.0  0.05268  0.23297  0.29384  1.0000
  C   C93       1.0  0.07444  0.24351  0.30179  1.0000
  H   H49       1.0  0.19943  0.24125  0.31069  1.0000
  H   H50       1.0  0.18081  0.25943  0.32294  1.0000
  H   H51       1.0  0.14305  0.18400  0.32045  1.0000
  H   H52       1.0  0.12425  0.20209  0.33390  1.0000
  H   H53       1.0  0.07998  0.20290  0.36119  1.0000
  H   H54       1.0  0.04303  0.18511  0.34942  1.0000
  H   H55       1.0  0.08242  0.25912  0.28843  1.0000
  H   H56       1.0  0.04570  0.24140  0.27725  1.0000
  H   H57       1.0  0.12310  0.30101  0.36186  1.0000
  H   H58       1.0  0.14091  0.33778  0.37325  1.0000
  H   H59       1.0  0.19847  0.33964  0.34937  1.0000
  H   H60       1.0  0.18069  0.30268  0.33682  1.0000
  C   C94       1.0  0.74271  0.88220  0.33404  1.0000
  N   N16       1.0  0.72158  0.87114  0.33976  1.0000
  C   C95       1.0  0.71060  0.85001  0.34220  1.0000
  N   N17       1.0  0.72168  0.84001  0.33788  1.0000
  C   C96       1.0  0.74275  0.85009  0.33199  1.0000
  N   N18       1.0  0.75287  0.87122  0.33023  1.0000
  C   C97       1.0  0.68848  0.83868  0.34872  1.0000
  C   C98       1.0  0.67659  0.84879  0.34510  1.0000
  C   C99       1.0  0.65476  0.83750  0.35197  1.0000
  C   C100      1.0  0.64410  0.81573  0.36444  1.0000
  C   C101      1.0  0.65581  0.80550  0.36670  1.0000
  C   C102      1.0  0.67758  0.81677  0.35905  1.0000
  C   C103      1.0  0.75365  0.90435  0.32927  1.0000
  C   C104      1.0  0.74283  0.91551  0.32296  1.0000
  C   C105      1.0  0.75354  0.93729  0.31481  1.0000
  C   C106      1.0  0.77550  0.94871  0.31256  1.0000
  C   C107      1.0  0.78645  0.93780  0.32165  1.0000
  C   C108      1.0  0.77569  0.91598  0.32910  1.0000
  C   C109      1.0  0.75351  0.83878  0.32574  1.0000
  C   C110      1.0  0.77513  0.84834  0.34270  1.0000
  C   C111      1.0  0.78562  0.83699  0.33650  1.0000
  C   C112      1.0  0.77498  0.81583  0.31073  1.0000
  C   C113      1.0  0.75339  0.80626  0.29385  1.0000
  C   C114      1.0  0.74285  0.81748  0.30184  1.0000
  H   H61       1.0  0.74511  0.94473  0.31092  1.0000
  H   H62       1.0  0.72693  0.90793  0.32315  1.0000
  H   H63       1.0  0.80236  0.94560  0.32049  1.0000
  H   H64       1.0  0.78427  0.90871  0.33393  1.0000
  H   H65       1.0  0.78347  0.86365  0.36097  1.0000
  H   H66       1.0  0.80126  0.84449  0.34920  1.0000
  H   H67       1.0  0.72724  0.80985  0.28859  1.0000
  H   H68       1.0  0.74496  0.79084  0.27741  1.0000
  H   H69       1.0  0.68535  0.80864  0.36158  1.0000
  H   H70       1.0  0.64858  0.78967  0.37294  1.0000
  H   H71       1.0  0.64673  0.84538  0.34963  1.0000
  H   H72       1.0  0.68368  0.86457  0.33710  1.0000
  C   C115      1.0  0.10421  0.84715  0.33405  1.0000
  N   N19       1.0  0.11527  0.83708  0.33980  1.0000
  C   C116      1.0  0.13639  0.84722  0.34226  1.0000
  N   N20       1.0  0.14640  0.86831  0.33796  1.0000
  C   C117      1.0  0.13632  0.87929  0.33206  1.0000
  N   N21       1.0  0.11519  0.86829  0.33027  1.0000
  C   C118      1.0  0.14772  0.83643  0.34880  1.0000
  C   C119      1.0  0.13761  0.81443  0.34502  1.0000
  C   C120      1.0  0.14890  0.80388  0.35191  1.0000
  C   C121      1.0  0.17066  0.81500  0.36453  1.0000
  C   C122      1.0  0.18089  0.83693  0.36696  1.0000
  C   C123      1.0  0.16962  0.84744  0.35931  1.0000
  C   C124      1.0  0.08206  0.83595  0.32928  1.0000
  C   C125      1.0  0.07089  0.81396  0.32287  1.0000
  C   C126      1.0  0.04912  0.80290  0.31467  1.0000
  C   C127      1.0  0.03770  0.81344  0.31253  1.0000
  C   C128      1.0  0.04861  0.83529  0.32173  1.0000
  C   C129      1.0  0.07043  0.84635  0.32919  1.0000
  C   C130      1.0  0.14763  0.90136  0.32582  1.0000
  C   C131      1.0  0.13810  0.91343  0.34291  1.0000
  C   C132      1.0  0.14945  0.93528  0.33674  1.0000
  C   C133      1.0  0.17060  0.94578  0.31082  1.0000
  C   C134      1.0  0.18016  0.93375  0.29386  1.0000
  C   C135      1.0  0.16893  0.91199  0.30181  1.0000
  H   H73       1.0  0.04168  0.78702  0.31071  1.0000
  H   H74       1.0  0.07847  0.80564  0.32295  1.0000
  H   H75       1.0  0.04081  0.84341  0.32067  1.0000
  H   H76       1.0  0.07770  0.86220  0.33412  1.0000
  H   H77       1.0  0.12279  0.90647  0.36125  1.0000
  H   H78       1.0  0.14196  0.94342  0.34949  1.0000
  H   H79       1.0  0.17655  0.90401  0.28844  1.0000
  H   H80       1.0  0.19557  0.94073  0.27727  1.0000
  H   H81       1.0  0.17776  0.86333  0.36196  1.0000
  H   H82       1.0  0.19672  0.84553  0.37334  1.0000
  H   H83       1.0  0.14102  0.78797  0.34945  1.0000
  H   H84       1.0  0.12183  0.80574  0.33691  1.0000
  C   C136      1.0  0.85154  0.73837  0.33395  1.0000
  N   N22       1.0  0.84148  0.71724  0.33968  1.0000
  C   C137      1.0  0.85163  0.70627  0.34214  1.0000
  N   N23       1.0  0.87271  0.71735  0.33781  1.0000
  C   C138      1.0  0.88369  0.73841  0.33191  1.0000
  N   N24       1.0  0.87268  0.74853  0.33014  1.0000
  C   C139      1.0  0.84084  0.68415  0.34868  1.0000
  C   C140      1.0  0.81884  0.67225  0.34494  1.0000
  C   C141      1.0  0.80831  0.65041  0.35183  1.0000
  C   C142      1.0  0.81943  0.63977  0.36443  1.0000
  C   C143      1.0  0.84136  0.65148  0.36681  1.0000
  C   C144      1.0  0.85186  0.67325  0.35914  1.0000
  C   C145      1.0  0.84033  0.74931  0.32918  1.0000
  C   C146      1.0  0.81835  0.73848  0.32279  1.0000
  C   C147      1.0  0.80728  0.74919  0.31463  1.0000
  C   C148      1.0  0.81781  0.77114  0.31245  1.0000
  C   C149      1.0  0.83966  0.78209  0.32161  1.0000
  C   C150      1.0  0.85073  0.77134  0.32907  1.0000
  C   C151      1.0  0.90576  0.74918  0.32564  1.0000
  C   C152      1.0  0.91783  0.77079  0.34272  1.0000
  C   C153      1.0  0.93967  0.78128  0.33656  1.0000
  C   C154      1.0  0.95018  0.77065  0.31067  1.0000
  C   C155      1.0  0.93816  0.74906  0.29364  1.0000
  C   C156      1.0  0.91640  0.73852  0.30160  1.0000
  H   H85       1.0  0.79140  0.74075  0.31069  1.0000
  H   H86       1.0  0.81003  0.72258  0.32293  1.0000
  H   H87       1.0  0.84777  0.79801  0.32051  1.0000
  H   H88       1.0  0.86658  0.77993  0.33396  1.0000
  H   H89       1.0  0.91086  0.77912  0.36113  1.0000
  H   H90       1.0  0.94781  0.79691  0.34938  1.0000
  H   H91       1.0  0.90842  0.72291  0.28828  1.0000
  H   H92       1.0  0.94515  0.74063  0.27712  1.0000
  H   H93       1.0  0.86776  0.68102  0.36175  1.0000
  H   H94       1.0  0.84996  0.64425  0.37314  1.0000
  H   H95       1.0  0.79239  0.64238  0.34941  1.0000
  H   H96       1.0  0.81016  0.67933  0.33686  1.0000
  C   C157      1.0  0.24812  0.09981  0.33403  1.0000
  N   N25       1.0  0.26924  0.11087  0.33976  1.0000
  C   C158      1.0  0.28022  0.13200  0.34223  1.0000
  N   N26       1.0  0.26914  0.14200  0.33792  1.0000
  C   C159      1.0  0.24807  0.13191  0.33203  1.0000
  N   N27       1.0  0.23795  0.11078  0.33024  1.0000
  C   C160      1.0  0.30234  0.14333  0.34875  1.0000
  C   C161      1.0  0.31423  0.13322  0.34514  1.0000
  C   C162      1.0  0.33607  0.14451  0.35203  1.0000
  C   C163      1.0  0.34672  0.16628  0.36451  1.0000
  C   C164      1.0  0.33501  0.17651  0.36675  1.0000
  C   C165      1.0  0.31324  0.16524  0.35909  1.0000
  C   C166      1.0  0.23717  0.07766  0.32926  1.0000
  C   C167      1.0  0.24800  0.06650  0.32284  1.0000
  C   C168      1.0  0.23729  0.04473  0.31465  1.0000
  C   C169      1.0  0.21533  0.03330  0.31257  1.0000
  C   C170      1.0  0.20438  0.04421  0.32179  1.0000
  C   C171      1.0  0.21514  0.06602  0.32922  1.0000
  C   C172      1.0  0.23731  0.14322  0.32578  1.0000
  C   C173      1.0  0.21569  0.13366  0.34272  1.0000
  C   C174      1.0  0.20520  0.14501  0.33652  1.0000
  C   C175      1.0  0.21584  0.16617  0.31073  1.0000
  C   C176      1.0  0.23743  0.17574  0.29394  1.0000
  C   C177      1.0  0.24798  0.16453  0.30190  1.0000
  H   H97       1.0  0.24572  0.03728  0.31068  1.0000
  H   H98       1.0  0.26390  0.07408  0.32288  1.0000
  H   H99       1.0  0.18846  0.03640  0.32075  1.0000
  H   H100      1.0  0.20656  0.07329  0.33416  1.0000
  H   H101      1.0  0.20735  0.11835  0.36095  1.0000
  H   H102      1.0  0.18956  0.13751  0.34915  1.0000
  H   H103      1.0  0.26359  0.17216  0.28867  1.0000
  H   H104      1.0  0.24586  0.19116  0.27746  1.0000
  H   H105      1.0  0.30548  0.17337  0.36162  1.0000
  H   H106      1.0  0.34224  0.19234  0.37300  1.0000
  H   H107      1.0  0.34410  0.13664  0.34971  1.0000
  H   H108      1.0  0.30715  0.11744  0.33715  1.0000
  C   C178      1.0  0.88663  0.13486  0.33390  1.0000
  N   N28       1.0  0.87557  0.14492  0.33966  1.0000
  C   C179      1.0  0.85445  0.13478  0.34212  1.0000
  N   N29       1.0  0.84444  0.11370  0.33777  1.0000
  C   C180      1.0  0.85453  0.10272  0.33184  1.0000
  N   N30       1.0  0.87565  0.11372  0.33007  1.0000
  C   C181      1.0  0.84312  0.14557  0.34869  1.0000
  C   C182      1.0  0.85323  0.16758  0.34496  1.0000
  C   C183      1.0  0.84194  0.17812  0.35187  1.0000
  C   C184      1.0  0.82017  0.16700  0.36448  1.0000
  C   C185      1.0  0.80995  0.14506  0.36685  1.0000
  C   C186      1.0  0.82121  0.13456  0.35917  1.0000
  C   C187      1.0  0.90878  0.14606  0.32914  1.0000
  C   C188      1.0  0.91995  0.16805  0.32275  1.0000
  C   C189      1.0  0.94172  0.17911  0.31462  1.0000
  C   C190      1.0  0.95314  0.16858  0.31247  1.0000
  C   C191      1.0  0.94223  0.14673  0.32163  1.0000
  C   C192      1.0  0.92042  0.13566  0.32906  1.0000
  C   C193      1.0  0.84321  0.08064  0.32557  1.0000
  C   C194      1.0  0.85276  0.06857  0.34256  1.0000
  C   C195      1.0  0.84140  0.04673  0.33640  1.0000
  C   C196      1.0  0.82024  0.03622  0.31062  1.0000
  C   C197      1.0  0.81068  0.04825  0.29370  1.0000
  C   C198      1.0  0.82191  0.07001  0.30164  1.0000
  H   H109      1.0  0.94916  0.19499  0.31069  1.0000
  H   H110      1.0  0.91236  0.17637  0.32288  1.0000
  H   H111      1.0  0.95004  0.13861  0.32055  1.0000
  H   H112      1.0  0.91315  0.11981  0.33394  1.0000
  H   H113      1.0  0.86806  0.07554  0.36086  1.0000
  H   H114      1.0  0.84889  0.03859  0.34913  1.0000
  H   H115      1.0  0.81428  0.07800  0.28840  1.0000
  H   H116      1.0  0.79526  0.04127  0.27727  1.0000
  H   H117      1.0  0.81308  0.11867  0.36177  1.0000
  H   H118      1.0  0.79411  0.13647  0.37319  1.0000
  H   H119      1.0  0.84982  0.19403  0.34944  1.0000
  H   H120      1.0  0.86900  0.17626  0.33686  1.0000
  C   C199      1.0  0.24862  0.52873  0.33673  1.0000
  N   N31       1.0  0.23813  0.50763  0.34027  1.0000
  C   C200      1.0  0.24799  0.49635  0.33278  1.0000
  N   N32       1.0  0.26902  0.50696  0.32081  1.0000
  C   C201      1.0  0.28003  0.52804  0.31500  1.0000
  N   N33       1.0  0.26947  0.53846  0.32381  1.0000
  C   C202      1.0  0.23673  0.47425  0.33926  1.0000
  C   C203      1.0  0.21598  0.46357  0.37095  1.0000
  C   C204      1.0  0.20502  0.44181  0.37987  1.0000
  C   C205      1.0  0.21427  0.42980  0.35659  1.0000
  C   C206      1.0  0.23479  0.44034  0.32275  1.0000
  C   C207      1.0  0.24588  0.46216  0.31517  1.0000
  C   C208      1.0  0.23877  0.54078  0.34564  1.0000
  C   C209      1.0  0.21885  0.53422  0.30932  1.0000
  C   C210      1.0  0.21065  0.54773  0.30799  1.0000
  C   C211      1.0  0.22176  0.56789  0.34570  1.0000
  C   C212      1.0  0.24106  0.57380  0.38710  1.0000
  C   C213      1.0  0.24951  0.56060  0.38618  1.0000
  C   C214      1.0  0.30189  0.53946  0.30325  1.0000
  C   C215      1.0  0.31113  0.55864  0.25709  1.0000
  C   C216      1.0  0.33281  0.57146  0.25376  1.0000
  C   C217      1.0  0.34593  0.56555  0.29718  1.0000
  C   C218      1.0  0.33688  0.54630  0.34238  1.0000
  C   C219      1.0  0.31510  0.53316  0.34357  1.0000
  H   H121      1.0  0.19669  0.54290  0.27701  1.0000
  H   H122      1.0  0.21081  0.52015  0.27783  1.0000
  H   H123      1.0  0.24996  0.58840  0.41315  1.0000
  H   H124      1.0  0.26394  0.56594  0.41353  1.0000
  H   H125      1.0  0.30215  0.56386  0.22767  1.0000
  H   H126      1.0  0.33884  0.58576  0.22426  1.0000
  H   H127      1.0  0.30896  0.51972  0.37998  1.0000
  H   H128      1.0  0.34603  0.54206  0.37726  1.0000
  H   H129      1.0  0.26076  0.46908  0.29122  1.0000
  H   H130      1.0  0.24210  0.43227  0.30527  1.0000
  H   H131      1.0  0.19000  0.43482  0.40233  1.0000
  H   H132      1.0  0.20862  0.47152  0.38929  1.0000
  C   C220      1.0  0.45765  0.70637  0.33664  1.0000
  N   N34       1.0  0.47875  0.71700  0.34004  1.0000
  C   C221      1.0  0.49000  0.73813  0.33260  1.0000
  N   N35       1.0  0.47938  0.74853  0.32083  1.0000
  C   C222      1.0  0.45829  0.73846  0.31519  1.0000
  N   N36       1.0  0.44789  0.71747  0.32394  1.0000
  C   C223      1.0  0.51211  0.74899  0.33902  1.0000
  C   C224      1.0  0.52280  0.73891  0.37036  1.0000
  C   C225      1.0  0.54456  0.74971  0.37932  1.0000
  C   C226      1.0  0.55656  0.77099  0.35639  1.0000
  C   C227      1.0  0.54600  0.78098  0.32283  1.0000
  C   C228      1.0  0.52419  0.77025  0.31525  1.0000
  C   C229      1.0  0.44562  0.68446  0.34542  1.0000
  C   C230      1.0  0.45219  0.67114  0.30886  1.0000
  C   C231      1.0  0.43873  0.64941  0.30761  1.0000
  C   C232      1.0  0.41859  0.64032  0.34550  1.0000
  C   C233      1.0  0.41263  0.65368  0.38686  1.0000
  C   C234      1.0  0.42579  0.67534  0.38600  1.0000
  C   C235      1.0  0.44685  0.74889  0.30359  1.0000
  C   C236      1.0  0.42751  0.73883  0.25856  1.0000
  C   C237      1.0  0.41471  0.74771  0.25545  1.0000
  C   C238      1.0  0.42081  0.76691  0.29771  1.0000
  C   C239      1.0  0.44022  0.77724  0.34164  1.0000
  C   C240      1.0  0.45332  0.76855  0.34276  1.0000
  H   H133      1.0  0.44358  0.64031  0.27665  1.0000
  H   H134      1.0  0.46629  0.67719  0.27756  1.0000
  H   H135      1.0  0.39803  0.64795  0.41293  1.0000
  H   H136      1.0  0.42043  0.68441  0.41335  1.0000
  H   H137      1.0  0.42217  0.72453  0.22991  1.0000
  H   H138      1.0  0.40032  0.73937  0.22675  1.0000
  H   H139      1.0  0.46687  0.77594  0.37838  1.0000
  H   H140      1.0  0.44459  0.79074  0.37580  1.0000
  H   H141      1.0  0.51725  0.77822  0.29158  1.0000
  H   H142      1.0  0.55407  0.79638  0.30564  1.0000
  H   H143      1.0  0.55156  0.74168  0.40157  1.0000
  H   H144      1.0  0.51486  0.72357  0.38851  1.0000
  C   C241      1.0  0.28003  0.73791  0.33621  1.0000
  N   N37       1.0  0.26940  0.74838  0.33986  1.0000
  C   C242      1.0  0.24827  0.73852  0.33234  1.0000
  N   N38       1.0  0.23787  0.71749  0.32023  1.0000
  C   C243      1.0  0.24795  0.70650  0.31429  1.0000
  N   N39       1.0  0.26893  0.71707  0.32315  1.0000
  C   C244      1.0  0.23741  0.74976  0.33896  1.0000
  C   C245      1.0  0.24746  0.77049  0.37074  1.0000
  C   C246      1.0  0.23666  0.78145  0.37977  1.0000
  C   C247      1.0  0.21540  0.77219  0.35651  1.0000
  C   C248      1.0  0.20543  0.75167  0.32259  1.0000
  C   C249      1.0  0.21617  0.74060  0.31490  1.0000
  C   C250      1.0  0.30193  0.74778  0.34520  1.0000
  C   C251      1.0  0.31529  0.76771  0.30907  1.0000
  C   C252      1.0  0.33701  0.77594  0.30789  1.0000
  C   C253      1.0  0.34606  0.76484  0.34561  1.0000
  C   C254      1.0  0.33267  0.74551  0.38680  1.0000
  C   C255      1.0  0.31102  0.73703  0.38570  1.0000
  C   C256      1.0  0.23753  0.68464  0.30245  1.0000
  C   C257      1.0  0.24750  0.67543  0.25626  1.0000
  C   C258      1.0  0.23869  0.65376  0.25304  1.0000
  C   C259      1.0  0.21968  0.64060  0.29650  1.0000
  C   C260      1.0  0.20946  0.64962  0.34175  1.0000
  C   C261      1.0  0.21804  0.67140  0.34280  1.0000
  H   H145      1.0  0.34614  0.78992  0.27707  1.0000
  H   H146      1.0  0.30926  0.77576  0.27762  1.0000
  H   H147      1.0  0.33837  0.73661  0.41283  1.0000
  H   H148      1.0  0.30192  0.72259  0.41292  1.0000
  H   H149      1.0  0.26170  0.68444  0.22685  1.0000
  H   H150      1.0  0.24702  0.64777  0.22365  1.0000
  H   H151      1.0  0.21074  0.67751  0.37941  1.0000
  H   H152      1.0  0.19612  0.64046  0.37682  1.0000
  H   H153      1.0  0.20822  0.72572  0.29089  1.0000
  H   H154      1.0  0.19005  0.74436  0.30512  1.0000
  H   H155      1.0  0.24468  0.79646  0.40229  1.0000
  H   H156      1.0  0.26279  0.77787  0.38907  1.0000
  C   C262      1.0  0.74227  0.45330  0.33666  1.0000
  N   N40       1.0  0.75276  0.47440  0.34019  1.0000
  C   C263      1.0  0.74290  0.48567  0.33269  1.0000
  N   N41       1.0  0.72187  0.47506  0.32073  1.0000
  C   C264      1.0  0.71087  0.45398  0.31493  1.0000
  N   N42       1.0  0.72142  0.44356  0.32374  1.0000
  C   C265      1.0  0.75416  0.50778  0.33917  1.0000
  C   C266      1.0  0.77491  0.51846  0.37080  1.0000
  C   C267      1.0  0.78587  0.54022  0.37976  1.0000
  C   C268      1.0  0.77661  0.55222  0.35652  1.0000
  C   C269      1.0  0.75609  0.54168  0.32269  1.0000
  C   C270      1.0  0.74500  0.51986  0.31511  1.0000
  C   C271      1.0  0.75213  0.44125  0.34558  1.0000
  C   C272      1.0  0.77203  0.44779  0.30915  1.0000
  C   C273      1.0  0.78026  0.43430  0.30802  1.0000
  C   C274      1.0  0.76917  0.41416  0.34588  1.0000
  C   C275      1.0  0.74985  0.40824  0.38715  1.0000
  C   C276      1.0  0.74140  0.42143  0.38619  1.0000
  C   C277      1.0  0.68900  0.44256  0.30315  1.0000
  C   C278      1.0  0.67977  0.42340  0.25679  1.0000
  C   C279      1.0  0.65809  0.41056  0.25355  1.0000
  C   C280      1.0  0.64497  0.41645  0.29708  1.0000
  C   C281      1.0  0.65401  0.43568  0.34240  1.0000
  C   C282      1.0  0.67579  0.44883  0.34360  1.0000
  H   H157      1.0  0.79423  0.43914  0.27716  1.0000
  H   H158      1.0  0.78010  0.46189  0.27786  1.0000
  H   H159      1.0  0.74095  0.39364  0.41322  1.0000
  H   H160      1.0  0.72696  0.41609  0.41347  1.0000
  H   H161      1.0  0.68876  0.41820  0.22729  1.0000
  H   H162      1.0  0.65208  0.39628  0.22385  1.0000
  H   H163      1.0  0.68193  0.46224  0.38023  1.0000
  H   H164      1.0  0.64486  0.43988  0.37750  1.0000
  H   H165      1.0  0.73011  0.51294  0.29120  1.0000
  H   H166      1.0  0.74878  0.54975  0.30527  1.0000
  H   H167      1.0  0.80088  0.54721  0.40221  1.0000
  H   H168      1.0  0.78228  0.51051  0.38916  1.0000
  C   C283      1.0  0.53319  0.27558  0.33666  1.0000
  N   N43       1.0  0.51209  0.26497  0.34020  1.0000
  C   C284      1.0  0.50082  0.24384  0.33276  1.0000
  N   N44       1.0  0.51143  0.23342  0.32081  1.0000
  C   C285      1.0  0.53251  0.24349  0.31499  1.0000
  N   N45       1.0  0.54293  0.26448  0.32377  1.0000
  C   C286      1.0  0.47871  0.23298  0.33927  1.0000
  C   C287      1.0  0.46803  0.24306  0.37079  1.0000
  C   C288      1.0  0.44627  0.23227  0.37974  1.0000
  C   C289      1.0  0.43426  0.21100  0.35665  1.0000
  C   C290      1.0  0.44481  0.20101  0.32299  1.0000
  C   C291      1.0  0.46663  0.21173  0.31538  1.0000
  C   C292      1.0  0.54523  0.29749  0.34548  1.0000
  C   C293      1.0  0.53865  0.31083  0.30907  1.0000
  C   C294      1.0  0.55215  0.33255  0.30769  1.0000
  C   C295      1.0  0.57230  0.34162  0.34553  1.0000
  C   C296      1.0  0.57823  0.32825  0.38696  1.0000
  C   C297      1.0  0.56505  0.30660  0.38605  1.0000
  C   C298      1.0  0.54394  0.23305  0.30326  1.0000
  C   C299      1.0  0.56318  0.24304  0.25749  1.0000
  C   C300      1.0  0.57598  0.23417  0.25419  1.0000
  C   C301      1.0  0.57001  0.21507  0.29714  1.0000
  C   C302      1.0  0.55071  0.20483  0.34195  1.0000
  C   C303      1.0  0.53758  0.21349  0.34316  1.0000
  H   H169      1.0  0.54731  0.34166  0.27663  1.0000
  H   H170      1.0  0.52459  0.30478  0.27753  1.0000
  H   H171      1.0  0.59283  0.33397  0.41304  1.0000
  H   H172      1.0  0.57039  0.29752  0.41345  1.0000
  H   H173      1.0  0.56844  0.25728  0.22838  1.0000
  H   H174      1.0  0.59032  0.24248  0.22504  1.0000
  H   H175      1.0  0.52410  0.20615  0.37930  1.0000
  H   H176      1.0  0.54643  0.19141  0.37657  1.0000
  H   H177      1.0  0.47355  0.20376  0.29157  1.0000
  H   H178      1.0  0.43674  0.18562  0.30566  1.0000
  H   H179      1.0  0.43928  0.24030  0.40207  1.0000
  H   H180      1.0  0.47598  0.25839  0.38898  1.0000
  C   C304      1.0  0.71082  0.24410  0.33646  1.0000
  N   N46       1.0  0.72145  0.23363  0.34003  1.0000
  C   C305      1.0  0.74258  0.24350  0.33254  1.0000
  N   N47       1.0  0.75298  0.26453  0.32053  1.0000
  C   C306      1.0  0.74290  0.27552  0.31468  1.0000
  N   N48       1.0  0.72192  0.26495  0.32350  1.0000
  C   C307      1.0  0.75344  0.23225  0.33908  1.0000
  C   C308      1.0  0.74338  0.21151  0.37074  1.0000
  C   C309      1.0  0.75418  0.20056  0.37975  1.0000
  C   C310      1.0  0.77545  0.20982  0.35655  1.0000
  C   C311      1.0  0.78542  0.23034  0.32269  1.0000
  C   C312      1.0  0.77468  0.24142  0.31506  1.0000
  C   C313      1.0  0.68891  0.23423  0.34535  1.0000
  C   C314      1.0  0.67557  0.21433  0.30894  1.0000
  C   C315      1.0  0.65384  0.20609  0.30775  1.0000
  C   C316      1.0  0.64479  0.21718  0.34552  1.0000
  C   C317      1.0  0.65817  0.23650  0.38682  1.0000
  C   C318      1.0  0.67982  0.24496  0.38590  1.0000
  C   C319      1.0  0.75332  0.29739  0.30288  1.0000
  C   C320      1.0  0.74331  0.30660  0.25692  1.0000
  C   C321      1.0  0.75212  0.32828  0.25381  1.0000
  C   C322      1.0  0.77118  0.34142  0.29696  1.0000
  C   C323      1.0  0.78145  0.33240  0.34186  1.0000
  C   C324      1.0  0.77283  0.31062  0.34305  1.0000
  H   H181      1.0  0.64472  0.19212  0.27692  1.0000
  H   H182      1.0  0.68160  0.20626  0.27770  1.0000
  H   H183      1.0  0.65247  0.24540  0.41285  1.0000
  H   H184      1.0  0.68891  0.25940  0.41318  1.0000
  H   H185      1.0  0.72910  0.29760  0.22768  1.0000
  H   H186      1.0  0.74379  0.33427  0.22453  1.0000
  H   H187      1.0  0.78017  0.30449  0.37929  1.0000
  H   H188      1.0  0.79483  0.34156  0.37674  1.0000
  H   H189      1.0  0.78264  0.25631  0.29114  1.0000
  H   H190      1.0  0.80080  0.23766  0.30529  1.0000
  H   H191      1.0  0.74616  0.18554  0.40221  1.0000
  H   H192      1.0  0.72805  0.20414  0.38908  1.0000
  C   C325      1.0  0.20321  0.40777  0.36551  1.0000
  C   C326      1.0  0.18947  0.39731  0.43682  1.0000
  C   C327      1.0  0.17858  0.37534  0.44101  1.0000
  C   C328      1.0  0.18197  0.36426  0.37194  1.0000
  H   H193      1.0  0.18774  0.40569  0.48697  1.0000
  C   C329      1.0  0.16612  0.36518  0.51422  1.0000
  C   C330      1.0  0.17580  0.36240  0.59280  1.0000
  H   H194      1.0  0.18588  0.35616  0.57485  1.0000
  H   H195      1.0  0.16393  0.35141  0.63850  1.0000
  H   H196      1.0  0.18507  0.37720  0.62732  1.0000
  O   O13       1.0  0.15187  0.36865  0.52784  1.0000
  C   C331      1.0  0.57859  0.78197  0.36537  1.0000
  C   C332      1.0  0.58904  0.77863  0.43652  1.0000
  C   C333      1.0  0.61101  0.78974  0.44083  1.0000
  C   C334      1.0  0.62209  0.80425  0.37190  1.0000
  H   H197      1.0  0.58065  0.76848  0.48653  1.0000
  C   C335      1.0  0.62116  0.78734  0.51381  1.0000
  C   C336      1.0  0.62411  0.80006  0.59187  1.0000
  H   H198      1.0  0.63053  0.81636  0.57323  1.0000
  H   H199      1.0  0.63501  0.79914  0.63795  1.0000
  H   H200      1.0  0.60934  0.79478  0.62635  1.0000
  O   O14       1.0  0.61744  0.76961  0.52943  1.0000
  C   C337      1.0  0.20442  0.78324  0.36549  1.0000
  C   C338      1.0  0.20771  0.79698  0.43679  1.0000
  C   C339      1.0  0.19661  0.80786  0.44105  1.0000
  C   C340      1.0  0.18214  0.80447  0.37200  1.0000
  H   H201      1.0  0.21780  0.79869  0.48697  1.0000
  C   C341      1.0  0.19891  0.82031  0.51428  1.0000
  C   C342      1.0  0.18644  0.81062  0.59285  1.0000
  H   H202      1.0  0.17013  0.80054  0.57489  1.0000
  H   H203      1.0  0.18732  0.82248  0.63858  1.0000
  H   H204      1.0  0.19198  0.80135  0.62735  1.0000
  O   O15       1.0  0.21663  0.83456  0.52792  1.0000
  C   C343      1.0  0.78766  0.57425  0.36545  1.0000
  C   C344      1.0  0.80141  0.58471  0.43675  1.0000
  C   C345      1.0  0.81229  0.60669  0.44097  1.0000
  C   C346      1.0  0.80890  0.61776  0.37189  1.0000
  H   H205      1.0  0.80314  0.57633  0.48688  1.0000
  C   C347      1.0  0.82477  0.61684  0.51412  1.0000
  C   C348      1.0  0.81511  0.61963  0.59277  1.0000
  H   H206      1.0  0.80503  0.62587  0.57489  1.0000
  H   H207      1.0  0.82699  0.63061  0.63843  1.0000
  H   H208      1.0  0.80585  0.60483  0.62731  1.0000
  O   O16       1.0  0.83903  0.61337  0.52765  1.0000
  C   C349      1.0  0.41224  0.20003  0.36557  1.0000
  C   C350      1.0  0.40178  0.20336  0.43672  1.0000
  C   C351      1.0  0.37980  0.19225  0.44101  1.0000
  C   C352      1.0  0.36873  0.17777  0.37198  1.0000
  H   H209      1.0  0.41015  0.21349  0.48683  1.0000
  C   C353      1.0  0.36963  0.19463  0.51408  1.0000
  C   C354      1.0  0.36688  0.18195  0.59198  1.0000
  H   H210      1.0  0.36045  0.16564  0.57341  1.0000
  H   H211      1.0  0.35605  0.18287  0.63851  1.0000
  H   H212      1.0  0.38172  0.18729  0.62591  1.0000
  O   O17       1.0  0.37328  0.21237  0.52848  1.0000
  C   C355      1.0  0.78643  0.19877  0.36549  1.0000
  C   C356      1.0  0.78312  0.18501  0.43675  1.0000
  C   C357      1.0  0.79422  0.17413  0.44099  1.0000
  C   C358      1.0  0.80869  0.17753  0.37194  1.0000
  H   H213      1.0  0.77302  0.18329  0.48692  1.0000
  C   C359      1.0  0.79191  0.16166  0.51418  1.0000
  C   C360      1.0  0.80437  0.17134  0.59279  1.0000
  H   H214      1.0  0.82069  0.18142  0.57486  1.0000
  H   H215      1.0  0.80348  0.15947  0.63848  1.0000
  H   H216      1.0  0.79883  0.18060  0.62731  1.0000
  O   O18       1.0  0.77418  0.14741  0.52777  1.0000
  N   N49       1.0  0.18061  0.18512  0.36409  1.0000
  N   N50       1.0  0.19044  0.17463  0.36462  1.0000
  N   N51       1.0  0.80125  0.98204  0.36419  1.0000
  N   N52       1.0  0.81175  0.00236  0.36464  1.0000
  N   N53       1.0  0.00436  0.80582  0.36427  1.0000
  N   N54       1.0  0.98405  0.79601  0.36475  1.0000
  N   N55       1.0  0.81021  0.79688  0.36413  1.0000
  N   N56       1.0  0.80038  0.80736  0.36464  1.0000
  N   N57       1.0  0.18961  0.99996  0.36435  1.0000
  N   N58       1.0  0.17911  0.97965  0.36486  1.0000
  N   N59       1.0  0.98648  0.17620  0.36427  1.0000
  N   N60       1.0  0.00679  0.18602  0.36478  1.0000
  N   N61       1.0  0.21984  0.61485  0.38554  1.0000
  N   N62       1.0  0.22069  0.59791  0.39781  1.0000
  N   N63       1.0  0.37177  0.59137  0.38580  1.0000
  N   N64       1.0  0.38869  0.60920  0.39787  1.0000
  N   N65       1.0  0.39496  0.76685  0.38610  1.0000
  N   N66       1.0  0.37712  0.76594  0.39809  1.0000
  N   N67       1.0  0.77108  0.36721  0.38595  1.0000
  N   N68       1.0  0.77024  0.38415  0.39817  1.0000
  N   N69       1.0  0.61914  0.39057  0.38564  1.0000
  N   N70       1.0  0.60223  0.37274  0.39779  1.0000
  N   N71       1.0  0.59586  0.21514  0.38581  1.0000
  N   N72       1.0  0.61369  0.21605  0.39793  1.0000
