data_image0
_chemical_formula_structural       C2HC3N2HC2HC3N2HC2HC3N2HC2HC3N2HC2NC2HNCHC2NC2HNCHC2NC2HNCHC2NC2HNCHC2NC2HNCHC2NC2HNCHC2NC2HNCHC2NC2HNCHC2HC3N2HC2HC3N2HC2HC3N2HC2HC3N2HC2HC3N2HC2HC3N2HC2HC3N2HC2HC3N2HC2NC2HNCHC2NC2HNCHC2NC2HNCHC2NC2HNCHC2NC2HNCHC2NC2HNCHC2NC2HNCHC2NC2HNCHC2NC2HNCHC2NC2HNCHCNCNCNCNCNCNCNCNCNCNCNCNCNCNCNCNCNCNCNCNCNCNCNCNCNCNCNCNCNCNCNCNCNCNCNCNCNCNCNCNCNCNCNCNCNCNCNCNCNCNCNCNCNCNCNCNCNCNCNCNC2NC2HNCHC2NC2HNCHC2NC2HNCHC2NC2HNCHC2HC3N2HC2HC3N2HC2HC3N2HC2HC3N2HC2HC3N2HC2HC3N2HC2HC3N2HC2HC3N2HC2NC2HNCHC2NC2HNCHC2NC2HNCHC2NC2HNCHC2NC2HNCHC2NC2HNCHC2NC2HNCHC2NC2HNCHC2HC3N2HC2HC3N2HC2HC3N2HC2HC3N2HC2HC3N2HC2HC3N2HC2HC3N2HC2HC3N2HC2HC3N2HC2HC3N2H
_chemical_formula_sum              "C360 H120 N180"
_cell_length_a       65.4112
_cell_length_b       65.4112
_cell_length_c       14.9705
_cell_angle_alpha    90
_cell_angle_beta     90
_cell_angle_gamma    90

_space_group_name_H-M_alt    "P 1"
_space_group_IT_number       1

loop_
  _space_group_symop_operation_xyz
  'x, y, z'

loop_
  _atom_site_type_symbol
  _atom_site_label
  _atom_site_symmetry_multiplicity
  _atom_site_fract_x
  _atom_site_fract_y
  _atom_site_fract_z
  _atom_site_occupancy
  C   C1        1.0  0.31522  0.05745  0.30238  1.0000
  C   C2        1.0  0.29428  0.05282  0.30161  1.0000
  H   H1        1.0  0.28410  0.06456  0.29329  1.0000
  C   C3        1.0  0.39208  0.05776  0.32914  1.0000
  C   C4        1.0  0.37686  0.07279  0.31434  1.0000
  C   C5        1.0  0.35614  0.06737  0.30930  1.0000
  N   N1        1.0  0.34139  0.08165  0.29614  1.0000
  N   N2        1.0  0.32198  0.07695  0.29296  1.0000
  H   H2        1.0  0.38068  0.08787  0.30693  1.0000
  C   C6        1.0  0.68704  0.94421  0.29490  1.0000
  C   C7        1.0  0.70798  0.94882  0.29672  1.0000
  H   H3        1.0  0.71820  0.93705  0.29070  1.0000
  C   C8        1.0  0.61009  0.94418  0.31470  1.0000
  C   C9        1.0  0.62528  0.92904  0.30168  1.0000
  C   C10       1.0  0.64604  0.93439  0.29747  1.0000
  N   N3        1.0  0.66084  0.92002  0.28739  1.0000
  N   N4        1.0  0.68028  0.92468  0.28620  1.0000
  H   H4        1.0  0.62141  0.91392  0.29644  1.0000
  C   C11       1.0  0.94414  0.31476  0.29447  1.0000
  C   C12       1.0  0.94876  0.29382  0.29618  1.0000
  H   H5        1.0  0.93698  0.28360  0.29049  1.0000
  C   C13       1.0  0.94409  0.39170  0.31510  1.0000
  C   C14       1.0  0.92894  0.37651  0.30226  1.0000
  C   C15       1.0  0.93430  0.35575  0.29763  1.0000
  N   N5        1.0  0.91993  0.34095  0.28779  1.0000
  N   N6        1.0  0.92460  0.32151  0.28632  1.0000
  H   H6        1.0  0.91381  0.38037  0.29743  1.0000
  C   C16       1.0  0.05745  0.68679  0.30304  1.0000
  C   C17       1.0  0.05280  0.70772  0.30216  1.0000
  H   H7        1.0  0.06450  0.71791  0.29335  1.0000
  C   C18       1.0  0.05790  0.60994  0.33002  1.0000
  C   C19       1.0  0.07290  0.62518  0.31477  1.0000
  C   C20       1.0  0.06743  0.64589  0.30990  1.0000
  N   N7        1.0  0.08168  0.66065  0.29618  1.0000
  N   N8        1.0  0.07694  0.68005  0.29304  1.0000
  H   H8        1.0  0.08796  0.62138  0.30683  1.0000
  C   C21       1.0  0.21501  0.53275  0.35481  1.0000
  C   C22       1.0  0.19994  0.51741  0.34398  1.0000
  N   N9        1.0  0.17978  0.52234  0.34248  1.0000
  C   C23       1.0  0.17289  0.54180  0.35256  1.0000
  C   C24       1.0  0.15199  0.54687  0.34886  1.0000
  H   H9        1.0  0.20390  0.50247  0.33413  1.0000
  N   N10       1.0  0.13722  0.53264  0.33505  1.0000
  C   C25       1.0  0.11706  0.53741  0.33063  1.0000
  H   H10       1.0  0.10693  0.52578  0.31988  1.0000
  C   C26       1.0  0.78763  0.46907  0.36111  1.0000
  C   C27       1.0  0.80279  0.48444  0.35341  1.0000
  N   N11       1.0  0.82296  0.47950  0.35471  1.0000
  C   C28       1.0  0.82977  0.46002  0.36477  1.0000
  C   C29       1.0  0.85070  0.45493  0.36342  1.0000
  H   H11       1.0  0.79891  0.49941  0.34385  1.0000
  N   N12       1.0  0.86556  0.46917  0.35193  1.0000
  C   C30       1.0  0.88573  0.46435  0.34828  1.0000
  H   H12       1.0  0.89590  0.47597  0.33809  1.0000
  C   C31       1.0  0.53298  0.78763  0.36008  1.0000
  C   C32       1.0  0.51758  0.80277  0.35283  1.0000
  N   N13       1.0  0.52248  0.82295  0.35413  1.0000
  C   C33       1.0  0.54196  0.82980  0.36384  1.0000
  C   C34       1.0  0.54700  0.85074  0.36275  1.0000
  H   H13       1.0  0.50261  0.79887  0.34350  1.0000
  N   N14       1.0  0.53272  0.86559  0.35183  1.0000
  C   C35       1.0  0.53750  0.88577  0.34847  1.0000
  H   H14       1.0  0.52585  0.89593  0.33873  1.0000
  C   C36       1.0  0.46933  0.21480  0.35602  1.0000
  C   C37       1.0  0.48468  0.19973  0.34513  1.0000
  N   N15       1.0  0.47975  0.17956  0.34373  1.0000
  C   C38       1.0  0.46030  0.17268  0.35408  1.0000
  C   C39       1.0  0.45522  0.15178  0.35025  1.0000
  H   H15       1.0  0.49961  0.20369  0.33495  1.0000
  N   N16       1.0  0.46944  0.13702  0.33603  1.0000
  C   C40       1.0  0.46466  0.11686  0.33123  1.0000
  H   H16       1.0  0.47628  0.10674  0.32011  1.0000
  C   C41       1.0  0.22046  0.05804  0.36306  1.0000
  C   C42       1.0  0.20092  0.06146  0.32539  1.0000
  N   N17       1.0  0.19224  0.08043  0.32831  1.0000
  C   C43       1.0  0.20115  0.09684  0.36880  1.0000
  C   C44       1.0  0.19297  0.11688  0.36701  1.0000
  H   H17       1.0  0.19379  0.05027  0.28938  1.0000
  N   N18       1.0  0.17496  0.12168  0.32676  1.0000
  C   C45       1.0  0.16748  0.14109  0.32251  1.0000
  H   H18       1.0  0.15397  0.14341  0.28972  1.0000
  C   C46       1.0  0.78158  0.94385  0.36320  1.0000
  C   C47       1.0  0.80115  0.94041  0.32584  1.0000
  N   N19       1.0  0.80982  0.92144  0.32904  1.0000
  C   C48       1.0  0.80085  0.90505  0.36939  1.0000
  C   C49       1.0  0.80900  0.88500  0.36759  1.0000
  H   H19       1.0  0.80834  0.95161  0.29009  1.0000
  N   N20       1.0  0.82703  0.88020  0.32749  1.0000
  C   C50       1.0  0.83448  0.86078  0.32314  1.0000
  H   H20       1.0  0.84799  0.85845  0.29047  1.0000
  C   C51       1.0  0.94388  0.22024  0.36308  1.0000
  C   C52       1.0  0.94044  0.20066  0.32584  1.0000
  N   N21       1.0  0.92146  0.19201  0.32895  1.0000
  C   C53       1.0  0.90507  0.20098  0.36933  1.0000
  C   C54       1.0  0.88502  0.19284  0.36759  1.0000
  H   H21       1.0  0.95161  0.19350  0.28977  1.0000
  N   N22       1.0  0.88021  0.17482  0.32744  1.0000
  C   C55       1.0  0.86079  0.16737  0.32310  1.0000
  H   H22       1.0  0.85845  0.15385  0.29047  1.0000
  C   C56       1.0  0.05804  0.78152  0.36323  1.0000
  C   C57       1.0  0.06148  0.80104  0.32537  1.0000
  N   N23       1.0  0.08046  0.80971  0.32825  1.0000
  C   C58       1.0  0.09687  0.80079  0.36873  1.0000
  C   C59       1.0  0.11692  0.80895  0.36687  1.0000
  H   H23       1.0  0.05027  0.80818  0.28954  1.0000
  N   N24       1.0  0.12172  0.82696  0.32659  1.0000
  C   C60       1.0  0.14113  0.83443  0.32233  1.0000
  H   H24       1.0  0.14347  0.84793  0.28948  1.0000
  C   C61       1.0  0.28210  0.59443  0.26313  1.0000
  C   C62       1.0  0.27291  0.57508  0.26349  1.0000
  H   H25       1.0  0.25879  0.57364  0.23456  1.0000
  C   C63       1.0  0.32349  0.65819  0.32063  1.0000
  C   C64       1.0  0.30479  0.65370  0.27743  1.0000
  C   C65       1.0  0.29774  0.63346  0.27101  1.0000
  N   N25       1.0  0.27968  0.62921  0.23060  1.0000
  N   N26       1.0  0.27228  0.61070  0.22680  1.0000
  H   H26       1.0  0.29612  0.66515  0.25022  1.0000
  C   C66       1.0  0.72063  0.40752  0.26370  1.0000
  C   C67       1.0  0.72991  0.42683  0.26446  1.0000
  H   H27       1.0  0.74414  0.42819  0.23651  1.0000
  C   C68       1.0  0.67887  0.34393  0.31990  1.0000
  C   C69       1.0  0.69766  0.34834  0.27736  1.0000
  C   C70       1.0  0.70480  0.36855  0.27105  1.0000
  N   N27       1.0  0.72297  0.37271  0.23147  1.0000
  N   N28       1.0  0.73046  0.39119  0.22794  1.0000
  H   H28       1.0  0.70636  0.33685  0.25065  1.0000
  C   C71       1.0  0.59455  0.72048  0.26375  1.0000
  C   C72       1.0  0.57526  0.72980  0.26453  1.0000
  H   H29       1.0  0.57390  0.74400  0.23632  1.0000
  C   C73       1.0  0.65809  0.67864  0.31997  1.0000
  C   C74       1.0  0.65369  0.69742  0.27727  1.0000
  C   C75       1.0  0.63349  0.70459  0.27103  1.0000
  N   N29       1.0  0.62935  0.72275  0.23128  1.0000
  N   N30       1.0  0.61088  0.73027  0.22778  1.0000
  H   H30       1.0  0.66519  0.70609  0.25041  1.0000
  C   C76       1.0  0.40763  0.28180  0.26317  1.0000
  C   C77       1.0  0.42698  0.27261  0.26361  1.0000
  H   H31       1.0  0.42842  0.25846  0.23490  1.0000
  C   C78       1.0  0.34387  0.32320  0.32049  1.0000
  C   C79       1.0  0.34836  0.30448  0.27743  1.0000
  C   C80       1.0  0.36859  0.29743  0.27099  1.0000
  N   N31       1.0  0.37284  0.27935  0.23074  1.0000
  N   N32       1.0  0.39135  0.27196  0.22696  1.0000
  H   H32       1.0  0.33690  0.29580  0.25033  1.0000
  C   C81       1.0  0.24083  0.94733  0.29439  1.0000
  C   C82       1.0  0.24627  0.96808  0.29345  1.0000
  H   H33       1.0  0.26101  0.97168  0.27684  1.0000
  C   C83       1.0  0.20729  0.87811  0.32795  1.0000
  C   C84       1.0  0.22701  0.88516  0.30396  1.0000
  C   C85       1.0  0.23134  0.90621  0.29983  1.0000
  N   N33       1.0  0.25023  0.91309  0.27741  1.0000
  N   N34       1.0  0.25471  0.93256  0.27479  1.0000
  H   H34       1.0  0.23843  0.87501  0.28923  1.0000
  C   C86       1.0  0.76113  0.05453  0.29441  1.0000
  C   C87       1.0  0.75573  0.03377  0.29327  1.0000
  H   H35       1.0  0.74099  0.03017  0.27659  1.0000
  C   C88       1.0  0.79463  0.12377  0.32831  1.0000
  C   C89       1.0  0.77491  0.11671  0.30423  1.0000
  C   C90       1.0  0.77059  0.09566  0.30004  1.0000
  N   N35       1.0  0.75172  0.08877  0.27749  1.0000
  N   N36       1.0  0.74725  0.06930  0.27478  1.0000
  H   H36       1.0  0.76349  0.12686  0.28944  1.0000
  C   C91       1.0  0.05455  0.24075  0.29454  1.0000
  C   C92       1.0  0.03378  0.24615  0.29336  1.0000
  H   H37       1.0  0.03019  0.26089  0.27674  1.0000
  C   C93       1.0  0.12379  0.20725  0.32818  1.0000
  C   C94       1.0  0.11674  0.22698  0.30429  1.0000
  C   C95       1.0  0.09568  0.23130  0.30016  1.0000
  N   N37       1.0  0.08879  0.25018  0.27775  1.0000
  N   N38       1.0  0.06932  0.25465  0.27505  1.0000
  H   H38       1.0  0.12688  0.23840  0.28960  1.0000
  C   C96       1.0  0.94733  0.76114  0.29432  1.0000
  C   C97       1.0  0.96809  0.75572  0.29345  1.0000
  H   H39       1.0  0.97169  0.74098  0.27678  1.0000
  C   C98       1.0  0.87810  0.79464  0.32809  1.0000
  C   C99       1.0  0.88515  0.77493  0.30393  1.0000
  C   C100      1.0  0.90621  0.77062  0.29975  1.0000
  N   N39       1.0  0.91310  0.75174  0.27719  1.0000
  N   N40       1.0  0.93257  0.74727  0.27458  1.0000
  H   H40       1.0  0.87501  0.76351  0.28912  1.0000
  C   C101      1.0  0.27025  0.48380  0.35343  1.0000
  C   C102      1.0  0.29022  0.47706  0.33162  1.0000
  N   N41       1.0  0.29500  0.45677  0.33172  1.0000
  C   C103      1.0  0.28137  0.44181  0.35303  1.0000
  C   C104      1.0  0.28610  0.42072  0.35136  1.0000
  H   H41       1.0  0.30129  0.48725  0.31329  1.0000
  N   N42       1.0  0.30488  0.41348  0.32908  1.0000
  C   C105      1.0  0.30944  0.39321  0.32656  1.0000
  H   H42       1.0  0.32394  0.38917  0.30839  1.0000
  C   C106      1.0  0.73240  0.51812  0.35342  1.0000
  C   C107      1.0  0.71238  0.52475  0.33167  1.0000
  N   N43       1.0  0.70749  0.54501  0.33166  1.0000
  C   C108      1.0  0.72105  0.56006  0.35272  1.0000
  C   C109      1.0  0.71619  0.58113  0.35109  1.0000
  H   H43       1.0  0.70135  0.51450  0.31369  1.0000
  N   N44       1.0  0.69736  0.58827  0.32907  1.0000
  C   C110      1.0  0.69269  0.60853  0.32662  1.0000
  H   H44       1.0  0.67816  0.61251  0.30863  1.0000
  C   C111      1.0  0.48395  0.73240  0.35340  1.0000
  C   C112      1.0  0.47729  0.71239  0.33182  1.0000
  N   N45       1.0  0.45702  0.70753  0.33182  1.0000
  C   C113      1.0  0.44199  0.72111  0.35281  1.0000
  C   C114      1.0  0.42092  0.71628  0.35121  1.0000
  H   H45       1.0  0.48753  0.70134  0.31378  1.0000
  N   N46       1.0  0.41375  0.69745  0.32926  1.0000
  C   C115      1.0  0.39350  0.69281  0.32682  1.0000
  H   H46       1.0  0.38950  0.67828  0.30894  1.0000
  C   C116      1.0  0.51825  0.27009  0.35337  1.0000
  C   C117      1.0  0.52495  0.29007  0.33155  1.0000
  N   N47       1.0  0.54522  0.29490  0.33161  1.0000
  C   C118      1.0  0.56021  0.28130  0.35291  1.0000
  C   C119      1.0  0.58130  0.28608  0.35124  1.0000
  H   H47       1.0  0.51473  0.30112  0.31322  1.0000
  N   N48       1.0  0.58850  0.30487  0.32896  1.0000
  C   C120      1.0  0.60876  0.30947  0.32644  1.0000
  H   H48       1.0  0.61279  0.32397  0.30822  1.0000
  C   C121      1.0  0.27181  0.30683  0.34083  1.0000
  C   C122      1.0  0.25078  0.31197  0.33516  1.0000
  N   N49       1.0  0.23604  0.29725  0.33607  1.0000
  C   C123      1.0  0.24019  0.27694  0.34308  1.0000
  C   C124      1.0  0.22489  0.26161  0.34370  1.0000
  H   H49       1.0  0.24624  0.32685  0.32923  1.0000
  N   N50       1.0  0.20456  0.26570  0.33666  1.0000
  C   C125      1.0  0.18988  0.25092  0.33670  1.0000
  H   H50       1.0  0.17498  0.25543  0.33087  1.0000
  C   C126      1.0  0.73013  0.69500  0.34081  1.0000
  C   C127      1.0  0.75116  0.68987  0.33519  1.0000
  N   N51       1.0  0.76590  0.70460  0.33612  1.0000
  C   C128      1.0  0.76173  0.72491  0.34313  1.0000
  C   C129      1.0  0.77702  0.74025  0.34376  1.0000
  H   H51       1.0  0.75571  0.67499  0.32926  1.0000
  N   N52       1.0  0.79735  0.73617  0.33674  1.0000
  C   C130      1.0  0.81203  0.75094  0.33680  1.0000
  H   H52       1.0  0.82693  0.74644  0.33099  1.0000
  C   C131      1.0  0.69514  0.27186  0.34075  1.0000
  C   C132      1.0  0.68999  0.25083  0.33512  1.0000
  N   N53       1.0  0.70469  0.23608  0.33605  1.0000
  C   C133      1.0  0.72501  0.24022  0.34309  1.0000
  C   C134      1.0  0.74033  0.22491  0.34374  1.0000
  H   H53       1.0  0.67510  0.24631  0.32912  1.0000
  N   N54       1.0  0.73622  0.20458  0.33670  1.0000
  C   C135      1.0  0.75098  0.18988  0.33678  1.0000
  H   H54       1.0  0.74646  0.17500  0.33098  1.0000
  C   C136      1.0  0.30700  0.73022  0.34093  1.0000
  C   C137      1.0  0.31211  0.75126  0.33528  1.0000
  N   N55       1.0  0.29737  0.76597  0.33616  1.0000
  C   C138      1.0  0.27706  0.76179  0.34312  1.0000
  C   C139      1.0  0.26171  0.77707  0.34370  1.0000
  H   H55       1.0  0.32698  0.75582  0.32938  1.0000
  N   N56       1.0  0.26577  0.79740  0.33668  1.0000
  C   C140      1.0  0.25098  0.81207  0.33669  1.0000
  H   H56       1.0  0.25547  0.82696  0.33089  1.0000
  C   C141      1.0  0.53929  0.96366  0.33883  1.0000
  C   C142      1.0  0.53986  0.98003  0.27722  1.0000
  N   N57       1.0  0.52509  0.99455  0.27838  1.0000
  C   C143      1.0  0.50954  0.99445  0.33840  1.0000
  C   C144      1.0  0.49432  0.00960  0.33825  1.0000
  H   H57       1.0  0.55100  0.98094  0.22951  1.0000
  N   N58       1.0  0.49443  0.02516  0.27824  1.0000
  C   C145      1.0  0.47986  0.03988  0.27687  1.0000
  H   H58       1.0  0.48077  0.05110  0.22945  1.0000
  C   C146      1.0  0.03929  0.53850  0.33970  1.0000
  C   C147      1.0  0.04147  0.52053  0.28805  1.0000
  N   N59       1.0  0.02672  0.50599  0.28926  1.0000
  C   C148      1.0  0.00963  0.50762  0.34021  1.0000
  C   C149      1.0  0.99447  0.49240  0.34030  1.0000
  H   H59       1.0  0.05386  0.51838  0.24748  1.0000
  N   N60       1.0  0.99608  0.47536  0.28910  1.0000
  C   C150      1.0  0.98157  0.46059  0.28793  1.0000
  H   H60       1.0  0.98373  0.44828  0.24691  1.0000
  C   C151      1.0  0.23229  0.04017  0.34572  1.0000
  N   N61       1.0  0.22518  0.02059  0.33765  1.0000
  C   C152      1.0  0.23821  0.00456  0.32164  1.0000
  N   N62       1.0  0.25851  0.00889  0.31387  1.0000
  C   C153      1.0  0.26620  0.02803  0.31943  1.0000
  N   N63       1.0  0.25266  0.04315  0.33565  1.0000
  C   C154      1.0  0.76978  0.96169  0.34530  1.0000
  N   N64       1.0  0.77686  0.98129  0.33783  1.0000
  C   C155      1.0  0.76384  0.99728  0.32095  1.0000
  N   N65       1.0  0.74360  0.99287  0.31146  1.0000
  C   C156      1.0  0.73595  0.97370  0.31636  1.0000
  N   N66       1.0  0.74946  0.95863  0.33360  1.0000
  C   C157      1.0  0.96170  0.23205  0.34496  1.0000
  N   N67       1.0  0.98131  0.22499  0.33767  1.0000
  C   C158      1.0  0.99729  0.23800  0.32065  1.0000
  N   N68       1.0  0.99286  0.25824  0.31083  1.0000
  C   C159      1.0  0.97368  0.26587  0.31559  1.0000
  N   N69       1.0  0.95862  0.25235  0.33298  1.0000
  C   C160      1.0  0.04016  0.76970  0.34609  1.0000
  N   N70       1.0  0.02058  0.77681  0.33789  1.0000
  C   C161      1.0  0.00454  0.76377  0.32207  1.0000
  N   N71       1.0  0.00887  0.74346  0.31461  1.0000
  C   C162      1.0  0.02801  0.73577  0.32035  1.0000
  N   N72       1.0  0.04312  0.74932  0.33632  1.0000
  C   C163      1.0  0.27019  0.54042  0.32501  1.0000
  N   N73       1.0  0.27725  0.52082  0.33311  1.0000
  C   C164      1.0  0.26417  0.50479  0.34832  1.0000
  N   N74       1.0  0.24386  0.50914  0.35531  1.0000
  C   C165      1.0  0.23620  0.52829  0.34972  1.0000
  N   N75       1.0  0.24979  0.54339  0.33437  1.0000
  C   C166      1.0  0.73258  0.46148  0.32602  1.0000
  N   N76       1.0  0.72550  0.48110  0.33315  1.0000
  C   C167      1.0  0.73854  0.49713  0.34908  1.0000
  N   N77       1.0  0.75881  0.49275  0.35805  1.0000
  C   C168      1.0  0.76647  0.47357  0.35347  1.0000
  N   N78       1.0  0.75292  0.45848  0.33720  1.0000
  C   C169      1.0  0.54058  0.73254  0.32595  1.0000
  N   N79       1.0  0.52097  0.72548  0.33320  1.0000
  C   C170      1.0  0.50494  0.73853  0.34889  1.0000
  N   N80       1.0  0.50933  0.75880  0.35748  1.0000
  C   C171      1.0  0.52850  0.76646  0.35268  1.0000
  N   N81       1.0  0.54360  0.75289  0.33670  1.0000
  C   C172      1.0  0.46163  0.26994  0.32523  1.0000
  N   N82       1.0  0.48122  0.27703  0.33308  1.0000
  C   C173      1.0  0.49727  0.26397  0.34843  1.0000
  N   N83       1.0  0.49293  0.24366  0.35585  1.0000
  C   C174      1.0  0.47378  0.23599  0.35049  1.0000
  N   N84       1.0  0.45867  0.24955  0.33497  1.0000
  C   C175      1.0  0.17188  0.17835  0.35034  1.0000
  N   N85       1.0  0.15178  0.18315  0.34179  1.0000
  C   C176      1.0  0.14511  0.20280  0.33453  1.0000
  N   N86       1.0  0.15953  0.21790  0.33546  1.0000
  C   C177      1.0  0.17993  0.21405  0.34363  1.0000
  N   N87       1.0  0.18548  0.19408  0.35125  1.0000
  C   C178      1.0  0.83001  0.82352  0.35062  1.0000
  N   N88       1.0  0.85011  0.81872  0.34197  1.0000
  C   C179      1.0  0.85678  0.79907  0.33457  1.0000
  N   N89       1.0  0.84236  0.78397  0.33547  1.0000
  C   C180      1.0  0.82197  0.78782  0.34376  1.0000
  N   N90       1.0  0.81641  0.80779  0.35150  1.0000
  C   C181      1.0  0.82354  0.17184  0.35073  1.0000
  N   N91       1.0  0.81872  0.15174  0.34212  1.0000
  C   C182      1.0  0.79907  0.14509  0.33473  1.0000
  N   N92       1.0  0.78398  0.15951  0.33560  1.0000
  C   C183      1.0  0.78785  0.17990  0.34383  1.0000
  N   N93       1.0  0.80782  0.18545  0.35157  1.0000
  C   C184      1.0  0.17839  0.83001  0.35016  1.0000
  N   N94       1.0  0.18319  0.85012  0.34159  1.0000
  C   C185      1.0  0.20284  0.85679  0.33433  1.0000
  N   N95       1.0  0.21794  0.84237  0.33531  1.0000
  C   C186      1.0  0.21410  0.82198  0.34352  1.0000
  N   N96       1.0  0.19412  0.81641  0.35111  1.0000
  C   C187      1.0  0.33024  0.67876  0.32940  1.0000
  N   N97       1.0  0.35038  0.68360  0.33528  1.0000
  C   C188      1.0  0.35705  0.70325  0.34238  1.0000
  N   N98       1.0  0.34259  0.71831  0.34403  1.0000
  C   C189      1.0  0.32215  0.71440  0.33886  1.0000
  N   N99       1.0  0.31658  0.69443  0.33119  1.0000
  C   C190      1.0  0.67206  0.32337  0.32876  1.0000
  N   N100      1.0  0.65190  0.31860  0.33474  1.0000
  C   C191      1.0  0.64518  0.29896  0.34204  1.0000
  N   N101      1.0  0.65960  0.28386  0.34380  1.0000
  C   C192      1.0  0.68004  0.28772  0.33856  1.0000
  N   N102      1.0  0.68566  0.30766  0.33071  1.0000
  C   C193      1.0  0.67865  0.67183  0.32885  1.0000
  N   N103      1.0  0.68346  0.65168  0.33482  1.0000
  C   C194      1.0  0.70310  0.64499  0.34212  1.0000
  N   N104      1.0  0.71818  0.65943  0.34386  1.0000
  C   C195      1.0  0.71430  0.67987  0.33865  1.0000
  N   N105      1.0  0.69434  0.68546  0.33080  1.0000
  C   C196      1.0  0.32331  0.32996  0.32924  1.0000
  N   N106      1.0  0.31851  0.35011  0.33515  1.0000
  C   C197      1.0  0.29888  0.35681  0.34227  1.0000
  N   N107      1.0  0.28378  0.34239  0.34394  1.0000
  C   C198      1.0  0.28766  0.32195  0.33874  1.0000
  N   N108      1.0  0.30761  0.31633  0.33104  1.0000
  C   C199      1.0  0.43883  0.08914  0.33645  1.0000
  N   N109      1.0  0.45329  0.07426  0.33663  1.0000
  C   C200      1.0  0.44815  0.05418  0.33664  1.0000
  N   N110      1.0  0.42811  0.04884  0.33570  1.0000
  C   C201      1.0  0.41310  0.06319  0.33370  1.0000
  N   N111      1.0  0.41895  0.08313  0.33461  1.0000
  C   C202      1.0  0.56352  0.91334  0.34674  1.0000
  N   N112      1.0  0.54920  0.92837  0.34815  1.0000
  C   C203      1.0  0.55432  0.94832  0.33727  1.0000
  N   N113      1.0  0.57426  0.95327  0.32515  1.0000
  C   C204      1.0  0.58915  0.93882  0.32393  1.0000
  N   N114      1.0  0.58332  0.91903  0.33476  1.0000
  C   C205      1.0  0.91324  0.43828  0.34670  1.0000
  N   N115      1.0  0.92829  0.45257  0.34831  1.0000
  C   C206      1.0  0.94828  0.44751  0.33818  1.0000
  N   N116      1.0  0.95317  0.42753  0.32634  1.0000
  C   C207      1.0  0.93873  0.41264  0.32459  1.0000
  N   N117      1.0  0.91893  0.41848  0.33491  1.0000
  C   C208      1.0  0.08933  0.56323  0.33663  1.0000
  N   N118      1.0  0.07445  0.54877  0.33743  1.0000
  C   C209      1.0  0.05434  0.55383  0.33786  1.0000
  N   N119      1.0  0.04905  0.57390  0.33674  1.0000
  C   C210      1.0  0.06337  0.58893  0.33436  1.0000
  N   N120      1.0  0.08331  0.58310  0.33480  1.0000
  C   C211      1.0  0.28740  0.03247  0.31375  1.0000
  C   C212      1.0  0.30248  0.01712  0.32412  1.0000
  N   N121      1.0  0.32266  0.02204  0.32539  1.0000
  C   C213      1.0  0.32955  0.04150  0.31542  1.0000
  C   C214      1.0  0.35047  0.04659  0.31915  1.0000
  H   H61       1.0  0.29852  0.00217  0.33396  1.0000
  N   N122      1.0  0.36528  0.03240  0.33299  1.0000
  C   C215      1.0  0.38543  0.03723  0.33785  1.0000
  H   H62       1.0  0.39559  0.02562  0.34871  1.0000
  C   C216      1.0  0.71479  0.96921  0.30852  1.0000
  C   C217      1.0  0.69966  0.98460  0.31591  1.0000
  N   N123      1.0  0.67949  0.97970  0.31460  1.0000
  C   C218      1.0  0.67266  0.96022  0.30477  1.0000
  C   C219      1.0  0.65173  0.95519  0.30614  1.0000
  H   H63       1.0  0.70356  0.99958  0.32531  1.0000
  N   N124      1.0  0.63693  0.96950  0.31751  1.0000
  C   C220      1.0  0.61676  0.96476  0.32131  1.0000
  H   H64       1.0  0.60665  0.97643  0.33147  1.0000
  C   C221      1.0  0.96917  0.28702  0.30752  1.0000
  C   C222      1.0  0.98457  0.30216  0.31444  1.0000
  N   N125      1.0  0.97965  0.32233  0.31332  1.0000
  C   C223      1.0  0.96016  0.32915  0.30401  1.0000
  C   C224      1.0  0.95511  0.35008  0.30567  1.0000
  H   H65       1.0  0.99955  0.29827  0.32366  1.0000
  N   N126      1.0  0.96943  0.36488  0.31683  1.0000
  C   C225      1.0  0.96467  0.38504  0.32107  1.0000
  H   H66       1.0  0.97636  0.39516  0.33092  1.0000
  C   C226      1.0  0.03246  0.71457  0.31484  1.0000
  C   C227      1.0  0.01714  0.69948  0.32584  1.0000
  N   N127      1.0  0.02209  0.67932  0.32723  1.0000
  C   C228      1.0  0.04154  0.67244  0.31673  1.0000
  C   C229      1.0  0.04667  0.65154  0.32045  1.0000
  H   H67       1.0  0.00221  0.70343  0.33613  1.0000
  N   N128      1.0  0.03252  0.63671  0.33479  1.0000
  C   C230      1.0  0.03738  0.61656  0.33950  1.0000
  H   H68       1.0  0.02581  0.60639  0.35076  1.0000
  C   C231      1.0  0.18721  0.55774  0.36591  1.0000
  C   C232      1.0  0.20815  0.55311  0.36696  1.0000
  H   H69       1.0  0.21832  0.56483  0.37563  1.0000
  C   C233      1.0  0.11037  0.55792  0.33992  1.0000
  C   C234      1.0  0.12554  0.57301  0.35441  1.0000
  C   C235      1.0  0.14629  0.56763  0.35903  1.0000
  N   N129      1.0  0.16102  0.58192  0.37242  1.0000
  N   N130      1.0  0.18043  0.57723  0.37558  1.0000
  H   H70       1.0  0.12167  0.58806  0.36231  1.0000
  C   C236      1.0  0.81536  0.44405  0.37495  1.0000
  C   C237      1.0  0.79442  0.44868  0.37318  1.0000
  H   H71       1.0  0.78419  0.43693  0.37947  1.0000
  C   C238      1.0  0.89231  0.44376  0.35511  1.0000
  C   C239      1.0  0.87706  0.42868  0.36820  1.0000
  C   C240      1.0  0.85632  0.43411  0.37234  1.0000
  N   N131      1.0  0.84148  0.41980  0.38271  1.0000
  N   N132      1.0  0.82206  0.42451  0.38393  1.0000
  H   H72       1.0  0.88086  0.41356  0.37383  1.0000
  C   C241      1.0  0.55797  0.81540  0.37351  1.0000
  C   C242      1.0  0.55338  0.79446  0.37165  1.0000
  H   H73       1.0  0.56515  0.78425  0.37768  1.0000
  C   C243      1.0  0.55808  0.89239  0.35513  1.0000
  C   C244      1.0  0.57320  0.87715  0.36763  1.0000
  C   C245      1.0  0.56781  0.85639  0.37143  1.0000
  N   N133      1.0  0.58217  0.84158  0.38127  1.0000
  N   N134      1.0  0.57751  0.82214  0.38224  1.0000
  H   H74       1.0  0.58832  0.88098  0.37308  1.0000
  C   C246      1.0  0.44436  0.18699  0.36765  1.0000
  C   C247      1.0  0.44899  0.20793  0.36857  1.0000
  H   H75       1.0  0.43727  0.21811  0.37726  1.0000
  C   C248      1.0  0.44415  0.11017  0.34042  1.0000
  C   C249      1.0  0.42908  0.12533  0.35549  1.0000
  C   C250      1.0  0.43447  0.14607  0.36052  1.0000
  N   N135      1.0  0.42019  0.16080  0.37418  1.0000
  N   N136      1.0  0.42488  0.18021  0.37746  1.0000
  H   H76       1.0  0.41403  0.12146  0.36334  1.0000
  C   C251      1.0  0.22026  0.09393  0.41139  1.0000
  C   C252      1.0  0.22955  0.07462  0.40939  1.0000
  H   H77       1.0  0.24370  0.07311  0.43802  1.0000
  C   C253      1.0  0.17864  0.15775  0.35835  1.0000
  C   C254      1.0  0.19732  0.15315  0.40156  1.0000
  C   C255      1.0  0.20444  0.13292  0.40658  1.0000
  N   N137      1.0  0.22253  0.12859  0.44664  1.0000
  N   N138      1.0  0.23001  0.11009  0.44896  1.0000
  H   H78       1.0  0.20596  0.16453  0.42954  1.0000
  C   C256      1.0  0.78171  0.90799  0.41173  1.0000
  C   C257      1.0  0.77245  0.92731  0.40966  1.0000
  H   H79       1.0  0.75825  0.92883  0.43778  1.0000
  C   C258      1.0  0.82326  0.84412  0.35873  1.0000
  C   C259      1.0  0.80457  0.84872  0.40179  1.0000
  C   C260      1.0  0.79748  0.86896  0.40691  1.0000
  N   N139      1.0  0.77937  0.87332  0.44673  1.0000
  N   N140      1.0  0.77191  0.89182  0.44906  1.0000
  H   H80       1.0  0.79590  0.83735  0.42956  1.0000
  C   C261      1.0  0.90802  0.22012  0.41174  1.0000
  C   C262      1.0  0.92734  0.22938  0.40953  1.0000
  H   H81       1.0  0.92888  0.24356  0.43773  1.0000
  C   C263      1.0  0.84414  0.17858  0.35883  1.0000
  C   C264      1.0  0.84875  0.19726  0.40192  1.0000
  C   C265      1.0  0.86899  0.20435  0.40700  1.0000
  N   N141      1.0  0.87336  0.22245  0.44688  1.0000
  N   N142      1.0  0.89187  0.22991  0.44917  1.0000
  H   H82       1.0  0.83738  0.20593  0.42978  1.0000
  C   C266      1.0  0.09394  0.78170  0.41144  1.0000
  C   C267      1.0  0.07463  0.77243  0.40961  1.0000
  H   H83       1.0  0.07311  0.75830  0.43833  1.0000
  C   C268      1.0  0.15779  0.82326  0.35815  1.0000
  C   C269      1.0  0.15319  0.80459  0.40139  1.0000
  C   C270      1.0  0.13295  0.79748  0.40647  1.0000
  N   N143      1.0  0.12860  0.77941  0.44660  1.0000
  N   N144      1.0  0.11011  0.77194  0.44900  1.0000
  H   H84       1.0  0.16456  0.79595  0.42939  1.0000
  C   C271      1.0  0.28200  0.55835  0.30884  1.0000
  C   C272      1.0  0.30151  0.56171  0.34702  1.0000
  N   N145      1.0  0.31014  0.58072  0.34545  1.0000
  C   C273      1.0  0.30119  0.59725  0.30608  1.0000
  C   C274      1.0  0.30929  0.61731  0.30934  1.0000
  H   H85       1.0  0.30866  0.55040  0.38223  1.0000
  N   N146      1.0  0.32731  0.62202  0.34972  1.0000
  C   C275      1.0  0.33474  0.64144  0.35518  1.0000
  H   H86       1.0  0.34827  0.64370  0.38784  1.0000
  C   C276      1.0  0.72076  0.44358  0.30941  1.0000
  C   C277      1.0  0.70113  0.44032  0.34650  1.0000
  N   N147      1.0  0.69242  0.42136  0.34451  1.0000
  C   C278      1.0  0.70141  0.40478  0.30571  1.0000
  C   C279      1.0  0.69323  0.38475  0.30874  1.0000
  H   H87       1.0  0.69391  0.45168  0.38112  1.0000
  N   N148      1.0  0.67510  0.38013  0.34843  1.0000
  C   C280      1.0  0.66760  0.36074  0.35381  1.0000
  H   H88       1.0  0.65400  0.35854  0.38599  1.0000
  C   C281      1.0  0.55849  0.72069  0.30948  1.0000
  C   C282      1.0  0.56171  0.70106  0.34663  1.0000
  N   N149      1.0  0.58067  0.69234  0.34483  1.0000
  C   C283      1.0  0.59727  0.70129  0.30595  1.0000
  C   C284      1.0  0.61728  0.69306  0.30894  1.0000
  H   H89       1.0  0.55036  0.69390  0.38156  1.0000
  N   N150      1.0  0.62190  0.67495  0.34875  1.0000
  C   C285      1.0  0.64128  0.66742  0.35412  1.0000
  H   H90       1.0  0.64347  0.65382  0.38634  1.0000
  C   C286      1.0  0.44370  0.28174  0.30890  1.0000
  C   C287      1.0  0.44034  0.30127  0.34678  1.0000
  N   N151      1.0  0.42133  0.30988  0.34519  1.0000
  C   C288      1.0  0.40480  0.30090  0.30595  1.0000
  C   C289      1.0  0.38474  0.30900  0.30919  1.0000
  H   H91       1.0  0.45165  0.30843  0.38202  1.0000
  N   N152      1.0  0.38004  0.32704  0.34943  1.0000
  C   C290      1.0  0.36063  0.33447  0.35488  1.0000
  H   H92       1.0  0.35837  0.34801  0.38748  1.0000
  C   C291      1.0  0.23203  0.98359  0.31682  1.0000
  C   C292      1.0  0.21200  0.97698  0.33852  1.0000
  N   N153      1.0  0.20711  0.95673  0.33886  1.0000
  C   C293      1.0  0.22066  0.94167  0.31811  1.0000
  C   C294      1.0  0.21582  0.92060  0.32055  1.0000
  H   H93       1.0  0.20097  0.98725  0.35646  1.0000
  N   N154      1.0  0.19700  0.91351  0.34301  1.0000
  C   C295      1.0  0.19235  0.89327  0.34663  1.0000
  H   H94       1.0  0.17784  0.88933  0.36508  1.0000
  C   C296      1.0  0.76997  0.01827  0.31662  1.0000
  C   C297      1.0  0.78998  0.02490  0.33858  1.0000
  N   N155      1.0  0.79485  0.04516  0.33908  1.0000
  C   C298      1.0  0.78128  0.06021  0.31830  1.0000
  C   C299      1.0  0.78611  0.08127  0.32082  1.0000
  H   H95       1.0  0.80102  0.01463  0.35647  1.0000
  N   N156      1.0  0.80492  0.08837  0.34339  1.0000
  C   C300      1.0  0.80956  0.10861  0.34706  1.0000
  H   H96       1.0  0.82407  0.11255  0.36559  1.0000
  C   C301      1.0  0.01829  0.23189  0.31648  1.0000
  C   C302      1.0  0.02491  0.21188  0.33829  1.0000
  N   N157      1.0  0.04518  0.20701  0.33887  1.0000
  C   C303      1.0  0.06023  0.22059  0.31829  1.0000
  C   C304      1.0  0.08130  0.21577  0.32080  1.0000
  H   H97       1.0  0.01465  0.20083  0.35608  1.0000
  N   N158      1.0  0.08839  0.19695  0.34320  1.0000
  C   C305      1.0  0.10864  0.19231  0.34685  1.0000
  H   H98       1.0  0.11257  0.17779  0.36518  1.0000
  C   C306      1.0  0.98358  0.76995  0.31706  1.0000
  C   C307      1.0  0.97696  0.78997  0.33878  1.0000
  N   N159      1.0  0.95671  0.79485  0.33908  1.0000
  C   C308      1.0  0.94166  0.78130  0.31818  1.0000
  C   C309      1.0  0.92059  0.78613  0.32061  1.0000
  H   H99       1.0  0.98723  0.80099  0.35690  1.0000
  N   N160      1.0  0.91349  0.80494  0.34322  1.0000
  C   C310      1.0  0.89325  0.80957  0.34688  1.0000
  H   H100      1.0  0.88931  0.82408  0.36548  1.0000
  C   C311      1.0  0.26126  0.44762  0.37686  1.0000
  C   C312      1.0  0.25594  0.46840  0.37734  1.0000
  H   H101      1.0  0.24123  0.47209  0.39418  1.0000
  C   C313      1.0  0.29446  0.37817  0.34647  1.0000
  C   C314      1.0  0.27477  0.38537  0.37005  1.0000
  C   C315      1.0  0.27053  0.40645  0.37296  1.0000
  N   N161      1.0  0.25169  0.41347  0.39534  1.0000
  N   N162      1.0  0.24731  0.43296  0.39722  1.0000
  H   H102      1.0  0.26333  0.37532  0.38567  1.0000
  C   C316      1.0  0.74121  0.55436  0.37634  1.0000
  C   C317      1.0  0.74664  0.53360  0.37694  1.0000
  H   H103      1.0  0.76138  0.53000  0.39360  1.0000
  C   C318      1.0  0.70760  0.62364  0.34635  1.0000
  C   C319      1.0  0.72734  0.61653  0.36971  1.0000
  C   C320      1.0  0.73170  0.59548  0.37253  1.0000
  N   N163      1.0  0.75059  0.58856  0.39468  1.0000
  N   N164      1.0  0.75508  0.56910  0.39651  1.0000
  H   H104      1.0  0.73875  0.62664  0.38520  1.0000
  C   C321      1.0  0.44772  0.74127  0.37635  1.0000
  C   C322      1.0  0.46848  0.74667  0.37688  1.0000
  H   H105      1.0  0.47211  0.76141  0.39350  1.0000
  C   C323      1.0  0.37840  0.70774  0.34653  1.0000
  C   C324      1.0  0.38552  0.72748  0.36978  1.0000
  C   C325      1.0  0.40658  0.73181  0.37257  1.0000
  N   N165      1.0  0.41353  0.75069  0.39466  1.0000
  N   N166      1.0  0.43300  0.75516  0.39647  1.0000
  H   H106      1.0  0.37543  0.73890  0.38523  1.0000
  C   C326      1.0  0.55445  0.26118  0.37676  1.0000
  C   C327      1.0  0.53368  0.25581  0.37726  1.0000
  H   H107      1.0  0.53002  0.24110  0.39411  1.0000
  C   C328      1.0  0.62383  0.29453  0.34633  1.0000
  C   C329      1.0  0.61666  0.27482  0.36996  1.0000
  C   C330      1.0  0.59560  0.27054  0.37287  1.0000
  N   N167      1.0  0.58862  0.25169  0.39526  1.0000
  N   N168      1.0  0.56913  0.24726  0.39714  1.0000
  H   H108      1.0  0.62674  0.26339  0.38557  1.0000
  C   C331      1.0  0.26093  0.27084  0.34988  1.0000
  C   C332      1.0  0.27647  0.28572  0.34847  1.0000
  H   H109      1.0  0.29132  0.28092  0.35348  1.0000
  C   C333      1.0  0.19504  0.22992  0.34424  1.0000
  C   C334      1.0  0.21617  0.22534  0.35194  1.0000
  C   C335      1.0  0.23103  0.24091  0.35157  1.0000
  N   N169      1.0  0.25126  0.23649  0.35816  1.0000
  N   N170      1.0  0.26539  0.25064  0.35730  1.0000
  H   H110      1.0  0.22102  0.21052  0.35745  1.0000
  C   C336      1.0  0.74099  0.73100  0.34990  1.0000
  C   C337      1.0  0.72546  0.71611  0.34843  1.0000
  H   H111      1.0  0.71061  0.72089  0.35342  1.0000
  C   C338      1.0  0.80686  0.77194  0.34435  1.0000
  C   C339      1.0  0.78573  0.77652  0.35203  1.0000
  C   C340      1.0  0.77087  0.76095  0.35163  1.0000
  N   N171      1.0  0.75064  0.76535  0.35819  1.0000
  N   N172      1.0  0.73652  0.75120  0.35731  1.0000
  H   H112      1.0  0.78087  0.79133  0.35752  1.0000
  C   C341      1.0  0.73112  0.26095  0.34988  1.0000
  C   C342      1.0  0.71626  0.27651  0.34841  1.0000
  H   H113      1.0  0.72107  0.29135  0.35341  1.0000
  C   C343      1.0  0.77198  0.19503  0.34438  1.0000
  C   C344      1.0  0.77658  0.21616  0.35206  1.0000
  C   C345      1.0  0.76103  0.23103  0.35165  1.0000
  N   N173      1.0  0.76546  0.25126  0.35823  1.0000
  N   N174      1.0  0.75133  0.26540  0.35734  1.0000
  H   H114      1.0  0.79141  0.22100  0.35761  1.0000
  C   C346      1.0  0.27099  0.74104  0.34989  1.0000
  C   C347      1.0  0.28590  0.72552  0.34850  1.0000
  H   H115      1.0  0.28112  0.71067  0.35349  1.0000
  C   C348      1.0  0.22998  0.80688  0.34417  1.0000
  C   C349      1.0  0.22543  0.78574  0.35185  1.0000
  C   C350      1.0  0.24101  0.77090  0.35152  1.0000
  N   N175      1.0  0.23663  0.75066  0.35809  1.0000
  N   N176      1.0  0.25079  0.73655  0.35726  1.0000
  H   H116      1.0  0.21061  0.78087  0.35733  1.0000
  C   C351      1.0  0.50841  0.97864  0.40293  1.0000
  C   C352      1.0  0.52327  0.96314  0.40218  1.0000
  H   H117      1.0  0.52250  0.95169  0.44870  1.0000
  C   C353      1.0  0.46345  0.03919  0.33816  1.0000
  C   C354      1.0  0.46287  0.02318  0.40143  1.0000
  C   C355      1.0  0.47846  0.00841  0.40255  1.0000
  N   N177      1.0  0.47867  0.99291  0.46292  1.0000
  N   N178      1.0  0.49287  0.97880  0.46311  1.0000
  H   H118      1.0  0.45137  0.02241  0.44771  1.0000
  C   C356      1.0  0.00681  0.52509  0.39472  1.0000
  C   C357      1.0  0.02163  0.54063  0.39336  1.0000
  H   H119      1.0  0.01965  0.55328  0.43274  1.0000
  C   C358      1.0  0.96365  0.46261  0.34010  1.0000
  C   C359      1.0  0.96159  0.48024  0.39413  1.0000
  C   C360      1.0  0.97704  0.49515  0.39512  1.0000
  N   N179      1.0  0.97564  0.51223  0.44637  1.0000
  N   N180      1.0  0.98975  0.52643  0.44615  1.0000
  H   H120      1.0  0.94901  0.48220  0.43388  1.0000
