data_image0
_chemical_formula_structural       NCHC2NC2OHC2NC2OHC2NC2OHNCHNCHNCHNCHC2NC2OHC2NC2OHNCHC2NC2OHC2NC2OHC2NC2OHNCHNCHNCHNCHC2NC2OHC2NC2OHNCHNCHC2NC2OHC2NC2OHNCHNCHC2NC2OHC2NC2OHNCHNCHC2NC2OHC2NC2OHNCHNCHC2NC2OHC2NC2OHCNCNCNCNCNCNCNCNCNCNCNCNCNCNCNCNCNCNCNCNCNCNCNCNCNCNCNCNCNCNCNCNCNCNCNCNCNCNCNCNCNCNCNCNCNCNCNCNCNCNCNCNCNCNCNCNCNCNCNCNCNCNCNCNCNCNCNCNCNCNCNCNC2NC2OHNCHNCHNCHC2NC2OHC2NC2OHC2NC2OHC2NC2OHNCHNCHC2NC2OHNCHNCHNCHC2NC2OHC2NC2OHC2NC2OHC2NC2OHNCHNCHC2NC2OHC2NC2OHNCHNCHC2NC2OHC2NC2OHNCHNCHC2NC2OHC2NC2OHNCHNCHC2NC2OHC2NC2OHNCHNCH
_chemical_formula_sum              "N144 C252 H72 O36"
_cell_length_a       41.9619
_cell_length_b       53.3543
_cell_length_c       14.8567
_cell_angle_alpha    90
_cell_angle_beta     90
_cell_angle_gamma    90

_space_group_name_H-M_alt    "P 1"
_space_group_IT_number       1

loop_
  _space_group_symop_operation_xyz
  'x, y, z'

loop_
  _atom_site_type_symbol
  _atom_site_label
  _atom_site_symmetry_multiplicity
  _atom_site_fract_x
  _atom_site_fract_y
  _atom_site_fract_z
  _atom_site_occupancy
  N   N1        1.0  0.51620  0.02889  0.35215  1.0000
  C   C1        1.0  0.53717  0.00947  0.35114  1.0000
  H   H1        1.0  0.56104  0.01316  0.34802  1.0000
  C   C2        1.0  0.02600  0.52675  0.32971  1.0000
  C   C3        1.0  0.98493  0.48466  0.33141  1.0000
  N   N2        1.0  0.01716  0.48248  0.32682  1.0000
  C   C4        1.0  0.03832  0.50186  0.32587  1.0000
  C   C5        1.0  0.07025  0.49598  0.31832  1.0000
  O   O1        1.0  0.08008  0.47590  0.34671  1.0000
  H   H2        1.0  0.08107  0.50191  0.26284  1.0000
  C   C6        1.0  0.31438  0.07984  0.34344  1.0000
  C   C7        1.0  0.38097  0.07121  0.34848  1.0000
  N   N3        1.0  0.36806  0.09402  0.33172  1.0000
  C   C8        1.0  0.33661  0.09964  0.32778  1.0000
  C   C9        1.0  0.32911  0.12408  0.30491  1.0000
  O   O2        1.0  0.34770  0.14113  0.32129  1.0000
  H   H3        1.0  0.31648  0.12635  0.24897  1.0000
  C   C10       1.0  0.69611  0.93275  0.33806  1.0000
  C   C11       1.0  0.62956  0.94176  0.34222  1.0000
  N   N4        1.0  0.64241  0.91951  0.31721  1.0000
  C   C12       1.0  0.67382  0.91379  0.31268  1.0000
  C   C13       1.0  0.68153  0.89017  0.28051  1.0000
  O   O3        1.0  0.66201  0.87318  0.28518  1.0000
  H   H4        1.0  0.69558  0.88958  0.22689  1.0000
  N   N5        1.0  0.18223  0.55749  0.32594  1.0000
  C   C14       1.0  0.15038  0.55222  0.32494  1.0000
  H   H5        1.0  0.14286  0.53430  0.31327  1.0000
  N   N6        1.0  0.82741  0.45544  0.32455  1.0000
  C   C15       1.0  0.85927  0.46073  0.32370  1.0000
  H   H6        1.0  0.86680  0.47851  0.30938  1.0000
  N   N7        1.0  0.51585  0.15041  0.34492  1.0000
  C   C16       1.0  0.50806  0.12557  0.34442  1.0000
  H   H7        1.0  0.52522  0.11247  0.33136  1.0000
  N   N8        1.0  0.49465  0.86192  0.34453  1.0000
  C   C17       1.0  0.50267  0.88671  0.34443  1.0000
  H   H8        1.0  0.48520  0.89999  0.33979  1.0000
  C   C18       1.0  0.01419  0.66980  0.33183  1.0000
  C   C19       1.0  0.03310  0.61884  0.33207  1.0000
  N   N9        1.0  0.05396  0.63810  0.32265  1.0000
  C   C20       1.0  0.04682  0.66286  0.32196  1.0000
  C   C21       1.0  0.07193  0.67918  0.30748  1.0000
  O   O4        1.0  0.09820  0.67396  0.33773  1.0000
  H   H9        1.0  0.07202  0.68736  0.24752  1.0000
  C   C22       1.0  0.99475  0.34244  0.32928  1.0000
  C   C23       1.0  0.97584  0.39336  0.33114  1.0000
  N   N10       1.0  0.95492  0.37418  0.32114  1.0000
  C   C24       1.0  0.96210  0.34941  0.31954  1.0000
  C   C25       1.0  0.93698  0.33319  0.30442  1.0000
  O   O5        1.0  0.91022  0.33849  0.33093  1.0000
  H   H10       1.0  0.93751  0.32380  0.24674  1.0000
  N   N11       1.0  0.51284  0.52854  0.34185  1.0000
  C   C26       1.0  0.48118  0.52327  0.34103  1.0000
  H   H11       1.0  0.46514  0.53765  0.33761  1.0000
  C   C27       1.0  0.97067  0.01225  0.33668  1.0000
  C   C28       1.0  0.03598  0.99886  0.33816  1.0000
  N   N12       1.0  0.01222  0.98157  0.33481  1.0000
  C   C29       1.0  0.98035  0.98663  0.33412  1.0000
  C   C30       1.0  0.95950  0.96663  0.32830  1.0000
  O   O6        1.0  0.96800  0.94622  0.35707  1.0000
  H   H12       1.0  0.94633  0.96580  0.27300  1.0000
  C   C31       1.0  0.39630  0.42951  0.34862  1.0000
  C   C32       1.0  0.38017  0.37807  0.36044  1.0000
  N   N13       1.0  0.41068  0.38610  0.35075  1.0000
  C   C33       1.0  0.42017  0.41046  0.34457  1.0000
  C   C34       1.0  0.45232  0.41491  0.33187  1.0000
  O   O7        1.0  0.47170  0.40012  0.36281  1.0000
  H   H13       1.0  0.45797  0.42209  0.27236  1.0000
  C   C35       1.0  0.61059  0.58117  0.34581  1.0000
  C   C36       1.0  0.62706  0.63252  0.35427  1.0000
  N   N14       1.0  0.59663  0.62461  0.34128  1.0000
  C   C37       1.0  0.58698  0.60025  0.33670  1.0000
  C   C38       1.0  0.55509  0.59577  0.32013  1.0000
  O   O8        1.0  0.53511  0.61137  0.34134  1.0000
  H   H14       1.0  0.55009  0.58642  0.26409  1.0000
  N   N15       1.0  0.14183  0.92223  0.32600  1.0000
  C   C39       1.0  0.15110  0.89783  0.32207  1.0000
  H   H15       1.0  0.17465  0.89372  0.31264  1.0000
  N   N16       1.0  0.86630  0.09063  0.32614  1.0000
  C   C40       1.0  0.85721  0.11504  0.32185  1.0000
  H   H16       1.0  0.83371  0.11924  0.31173  1.0000
  N   N17       1.0  0.33733  0.55784  0.33346  1.0000
  C   C41       1.0  0.36280  0.54223  0.33470  1.0000
  H   H17       1.0  0.38515  0.54980  0.33148  1.0000
  N   N18       1.0  0.67209  0.45403  0.33195  1.0000
  C   C42       1.0  0.64628  0.46926  0.33325  1.0000
  H   H18       1.0  0.62412  0.46139  0.32950  1.0000
  C   C43       1.0  0.20228  0.05011  0.34461  1.0000
  C   C44       1.0  0.14997  0.01642  0.34226  1.0000
  N   N19       1.0  0.18079  0.00849  0.33893  1.0000
  C   C45       1.0  0.20707  0.02368  0.33981  1.0000
  C   C46       1.0  0.23672  0.01258  0.33434  1.0000
  O   O9        1.0  0.24020  0.99084  0.35839  1.0000
  H   H19       1.0  0.25000  0.01743  0.28184  1.0000
  C   C47       1.0  0.81004  0.95826  0.34410  1.0000
  C   C48       1.0  0.85681  0.99658  0.34186  1.0000
  N   N20       1.0  0.86425  0.97190  0.33609  1.0000
  C   C49       1.0  0.84321  0.95253  0.33694  1.0000
  C   C50       1.0  0.85576  0.92876  0.32614  1.0000
  O   O10       1.0  0.88256  0.92441  0.35453  1.0000
  H   H20       1.0  0.85040  0.92015  0.26897  1.0000
  N   N21       1.0  0.19546  0.17445  0.35485  1.0000
  C   C51       1.0  0.19909  0.14910  0.35318  1.0000
  H   H21       1.0  0.17961  0.13789  0.34387  1.0000
  N   N22       1.0  0.81204  0.83571  0.36663  1.0000
  C   C52       1.0  0.80843  0.86101  0.36432  1.0000
  H   H22       1.0  0.82805  0.87216  0.35689  1.0000
  C   C53       1.0  0.29001  0.69202  0.31329  1.0000
  C   C54       1.0  0.27961  0.63967  0.31906  1.0000
  N   N23       1.0  0.25564  0.65651  0.30780  1.0000
  C   C55       1.0  0.25879  0.68184  0.30409  1.0000
  C   C56       1.0  0.23147  0.69572  0.28982  1.0000
  O   O11       1.0  0.20578  0.68795  0.31679  1.0000
  H   H23       1.0  0.23039  0.70501  0.23197  1.0000
  C   C57       1.0  0.71952  0.32081  0.30874  1.0000
  C   C58       1.0  0.73033  0.37306  0.31619  1.0000
  N   N24       1.0  0.75428  0.35612  0.30681  1.0000
  C   C59       1.0  0.75093  0.33082  0.30263  1.0000
  C   C60       1.0  0.77825  0.31673  0.29056  1.0000
  O   O12       1.0  0.80328  0.32440  0.32255  1.0000
  H   H24       1.0  0.78048  0.30841  0.23124  1.0000
  N   N25       1.0  0.28571  0.31219  0.33504  1.0000
  C   C61       1.0  0.25804  0.29918  0.32463  1.0000
  H   H25       1.0  0.24279  0.30382  0.27360  1.0000
  N   N26       1.0  0.72465  0.69634  0.34965  1.0000
  C   C62       1.0  0.75268  0.70915  0.34508  1.0000
  H   H26       1.0  0.77039  0.70284  0.30364  1.0000
  C   C63       1.0  0.19983  0.80664  0.28974  1.0000
  C   C64       1.0  0.25575  0.77807  0.30182  1.0000
  N   N27       1.0  0.23044  0.77056  0.25202  1.0000
  C   C65       1.0  0.20296  0.78358  0.24206  1.0000
  C   C66       1.0  0.18083  0.77329  0.18390  1.0000
  O   O13       1.0  0.17303  0.75142  0.19458  1.0000
  H   H27       1.0  0.16408  0.78433  0.15835  1.0000
  C   C67       1.0  0.80919  0.20626  0.28600  1.0000
  C   C68       1.0  0.75322  0.23475  0.29550  1.0000
  N   N28       1.0  0.77912  0.24259  0.24900  1.0000
  C   C69       1.0  0.80666  0.22958  0.23954  1.0000
  C   C70       1.0  0.83055  0.24004  0.18688  1.0000
  O   O14       1.0  0.82732  0.26115  0.15603  1.0000
  H   H28       1.0  0.84296  0.22841  0.14836  1.0000
  N   N29       1.0  0.44758  0.29858  0.34072  1.0000
  C   C71       1.0  0.47243  0.28249  0.32935  1.0000
  H   H29       1.0  0.49255  0.28851  0.29718  1.0000
  N   N30       1.0  0.55933  0.71235  0.35271  1.0000
  C   C72       1.0  0.53432  0.72856  0.35188  1.0000
  H   H30       1.0  0.51173  0.72178  0.36040  1.0000
  C   C73       1.0  0.09037  0.79217  0.34171  1.0000
  C   C74       1.0  0.03962  0.75766  0.34165  1.0000
  N   N31       1.0  0.07033  0.75039  0.35186  1.0000
  C   C75       1.0  0.09587  0.76595  0.35324  1.0000
  C   C76       1.0  0.12494  0.75457  0.36793  1.0000
  O   O15       1.0  0.13825  0.75935  0.43900  1.0000
  H   H31       1.0  0.12730  0.73681  0.34868  1.0000
  C   C77       1.0  0.91832  0.22041  0.34087  1.0000
  C   C78       1.0  0.96911  0.25476  0.34102  1.0000
  N   N32       1.0  0.93837  0.26220  0.34844  1.0000
  C   C79       1.0  0.91279  0.24672  0.34953  1.0000
  C   C80       1.0  0.88360  0.25830  0.36015  1.0000
  O   O16       1.0  0.87092  0.25477  0.43311  1.0000
  H   H32       1.0  0.88151  0.27577  0.33799  1.0000
  N   N33       1.0  0.13545  0.28338  0.33897  1.0000
  C   C81       1.0  0.10603  0.29395  0.33534  1.0000
  H   H33       1.0  0.10386  0.31302  0.33275  1.0000
  N   N34       1.0  0.87333  0.72768  0.34907  1.0000
  C   C82       1.0  0.90294  0.71749  0.34350  1.0000
  H   H34       1.0  0.90545  0.69845  0.34070  1.0000
  C   C83       1.0  0.36843  0.75907  0.33376  1.0000
  C   C84       1.0  0.43063  0.77884  0.34295  1.0000
  N   N35       1.0  0.42463  0.75384  0.33889  1.0000
  C   C85       1.0  0.39545  0.74295  0.33485  1.0000
  C   C86       1.0  0.39451  0.71715  0.32796  1.0000
  O   O17       1.0  0.41530  0.70456  0.36372  1.0000
  H   H35       1.0  0.38684  0.71038  0.26959  1.0000
  C   C87       1.0  0.64058  0.25384  0.32153  1.0000
  C   C88       1.0  0.57856  0.23385  0.33079  1.0000
  N   N36       1.0  0.58433  0.25883  0.32346  1.0000
  C   C89       1.0  0.61345  0.26983  0.31877  1.0000
  C   C90       1.0  0.61446  0.29556  0.30829  1.0000
  O   O18       1.0  0.59289  0.30816  0.34020  1.0000
  H   H36       1.0  0.62257  0.30169  0.24961  1.0000
  C   C91       1.0  0.41481  0.06994  0.35204  1.0000
  N   N37       1.0  0.43265  0.04867  0.35320  1.0000
  C   C92       1.0  0.46527  0.04909  0.35533  1.0000
  N   N38       1.0  0.47997  0.07205  0.35618  1.0000
  C   C93       1.0  0.46314  0.09389  0.35588  1.0000
  N   N39       1.0  0.43096  0.09191  0.35365  1.0000
  C   C94       1.0  0.59568  0.94288  0.34663  1.0000
  N   N40       1.0  0.57746  0.96402  0.34990  1.0000
  C   C95       1.0  0.54483  0.96284  0.35219  1.0000
  N   N41       1.0  0.53063  0.93974  0.35174  1.0000
  C   C96       1.0  0.54788  0.91818  0.34926  1.0000
  N   N42       1.0  0.57999  0.92065  0.34651  1.0000
  C   C97       1.0  0.09456  0.57047  0.33463  1.0000
  N   N43       1.0  0.07690  0.54913  0.33267  1.0000
  C   C98       1.0  0.04429  0.54941  0.33094  1.0000
  N   N44       1.0  0.02938  0.57229  0.33136  1.0000
  C   C99       1.0  0.04605  0.59420  0.33275  1.0000
  N   N45       1.0  0.07823  0.59234  0.33445  1.0000
  C   C100      1.0  0.91512  0.44248  0.33533  1.0000
  N   N46       1.0  0.93317  0.46370  0.33378  1.0000
  C   C101      1.0  0.96580  0.46267  0.33220  1.0000
  N   N47       1.0  0.98021  0.43965  0.33172  1.0000
  C   C102      1.0  0.96309  0.41802  0.33254  1.0000
  N   N48       1.0  0.93097  0.42034  0.33449  1.0000
  C   C103      1.0  0.40189  0.45599  0.34597  1.0000
  N   N49       1.0  0.37768  0.47313  0.34420  1.0000
  C   C104      1.0  0.38315  0.49838  0.34203  1.0000
  N   N50       1.0  0.41405  0.50627  0.34203  1.0000
  C   C105      1.0  0.43902  0.49007  0.34431  1.0000
  N   N51       1.0  0.43206  0.46525  0.34644  1.0000
  C   C106      1.0  0.60505  0.55471  0.34455  1.0000
  N   N52       1.0  0.62972  0.53803  0.34274  1.0000
  C   C107      1.0  0.62498  0.51275  0.34136  1.0000
  N   N53       1.0  0.59431  0.50447  0.34241  1.0000
  C   C108      1.0  0.56871  0.52003  0.34522  1.0000
  N   N54       1.0  0.57503  0.54502  0.34616  1.0000
  C   C109      1.0  0.10535  0.95661  0.33878  1.0000
  N   N55       1.0  0.12958  0.97370  0.33979  1.0000
  C   C110      1.0  0.12427  0.99896  0.34073  1.0000
  N   N56       1.0  0.09338  0.00694  0.34030  1.0000
  C   C111      1.0  0.06829  0.99079  0.33866  1.0000
  N   N57       1.0  0.07517  0.96591  0.33778  1.0000
  C   C112      1.0  0.90231  0.05614  0.33971  1.0000
  N   N58       1.0  0.87751  0.03957  0.34080  1.0000
  C   C113      1.0  0.88213  0.01430  0.34072  1.0000
  N   N59       1.0  0.91279  0.00592  0.33931  1.0000
  C   C114      1.0  0.93855  0.02135  0.33763  1.0000
  N   N60       1.0  0.93231  0.04637  0.33780  1.0000
  C   C115      1.0  0.28054  0.08334  0.34758  1.0000
  N   N61       1.0  0.25833  0.06464  0.34513  1.0000
  C   C116      1.0  0.22620  0.06932  0.34768  1.0000
  N   N62       1.0  0.21675  0.09384  0.35325  1.0000
  C   C117      1.0  0.23786  0.11311  0.35752  1.0000
  N   N63       1.0  0.26908  0.10696  0.35482  1.0000
  C   C118      1.0  0.72969  0.92832  0.34606  1.0000
  N   N64       1.0  0.75310  0.94621  0.34300  1.0000
  C   C119      1.0  0.78486  0.94011  0.34859  1.0000
  N   N65       1.0  0.79229  0.91539  0.35842  1.0000
  C   C120      1.0  0.77013  0.89702  0.36338  1.0000
  N   N66       1.0  0.73938  0.90427  0.35730  1.0000
  C   C121      1.0  0.22862  0.58432  0.33500  1.0000
  N   N67       1.0  0.25063  0.56551  0.33741  1.0000
  C   C122      1.0  0.28277  0.56999  0.33434  1.0000
  N   N68       1.0  0.29248  0.59445  0.32828  1.0000
  C   C123      1.0  0.27153  0.61385  0.32415  1.0000
  N   N69       1.0  0.24026  0.60788  0.32740  1.0000
  C   C124      1.0  0.78106  0.42856  0.33504  1.0000
  N   N70       1.0  0.75889  0.44725  0.33731  1.0000
  C   C125      1.0  0.72681  0.44258  0.33317  1.0000
  N   N71       1.0  0.71737  0.41810  0.32614  1.0000
  C   C126      1.0  0.73847  0.39883  0.32204  1.0000
  N   N72       1.0  0.76970  0.40492  0.32635  1.0000
  C   C127      1.0  0.33849  0.31786  0.39137  1.0000
  N   N73       1.0  0.34386  0.34275  0.37849  1.0000
  C   C128      1.0  0.37407  0.35196  0.36917  1.0000
  N   N74       1.0  0.39891  0.33535  0.37110  1.0000
  C   C129      1.0  0.39446  0.31028  0.38327  1.0000
  N   N75       1.0  0.36401  0.30233  0.39207  1.0000
  C   C130      1.0  0.66924  0.69253  0.38381  1.0000
  N   N76       1.0  0.66359  0.66753  0.37567  1.0000
  C   C131      1.0  0.63357  0.65864  0.35890  1.0000
  N   N77       1.0  0.60936  0.67558  0.34816  1.0000
  C   C132      1.0  0.61443  0.70077  0.35221  1.0000
  N   N78       1.0  0.64443  0.70820  0.37071  1.0000
  C   C133      1.0  0.16995  0.81838  0.30415  1.0000
  N   N79       1.0  0.16448  0.84347  0.31135  1.0000
  C   C134      1.0  0.13446  0.85261  0.32666  1.0000
  N   N80       1.0  0.11004  0.83580  0.33670  1.0000
  C   C135      1.0  0.11481  0.81057  0.33332  1.0000
  N   N81       1.0  0.14485  0.80293  0.31643  1.0000
  C   C136      1.0  0.83887  0.19434  0.30189  1.0000
  N   N82       1.0  0.84419  0.16925  0.30975  1.0000
  C   C137      1.0  0.87411  0.16009  0.32635  1.0000
  N   N83       1.0  0.89859  0.17680  0.33679  1.0000
  C   C138      1.0  0.89393  0.20201  0.33271  1.0000
  N   N84       1.0  0.86402  0.20967  0.31482  1.0000
  C   C139      1.0  0.22819  0.26031  0.36555  1.0000
  N   N85       1.0  0.19740  0.26744  0.35498  1.0000
  C   C140      1.0  0.17353  0.25022  0.34891  1.0000
  N   N86       1.0  0.18168  0.22550  0.35283  1.0000
  C   C141      1.0  0.21218  0.21741  0.36316  1.0000
  N   N87       1.0  0.23485  0.23545  0.37029  1.0000
  C   C142      1.0  0.78007  0.74987  0.37813  1.0000
  N   N88       1.0  0.81098  0.74296  0.36746  1.0000
  C   C143      1.0  0.83466  0.76037  0.36077  1.0000
  N   N89       1.0  0.82616  0.78501  0.36371  1.0000
  C   C144      1.0  0.79557  0.79289  0.37365  1.0000
  N   N90       1.0  0.77317  0.77472  0.38122  1.0000
  C   C145      1.0  0.28128  0.76107  0.31127  1.0000
  N   N91       1.0  0.31212  0.76826  0.32140  1.0000
  C   C146      1.0  0.33611  0.75110  0.32753  1.0000
  N   N92       1.0  0.32803  0.72635  0.32447  1.0000
  C   C147      1.0  0.29757  0.71814  0.31489  1.0000
  N   N93       1.0  0.27487  0.73614  0.30798  1.0000
  C   C148      1.0  0.72775  0.25179  0.30419  1.0000
  N   N94       1.0  0.69683  0.24466  0.31198  1.0000
  C   C149      1.0  0.67289  0.26187  0.31716  1.0000
  N   N95       1.0  0.68106  0.28662  0.31585  1.0000
  C   C150      1.0  0.71166  0.29474  0.30870  1.0000
  N   N96       1.0  0.73430  0.27670  0.30244  1.0000
  C   C151      1.0  0.00602  0.31714  0.33243  1.0000
  N   N97       1.0  0.03755  0.31071  0.33272  1.0000
  C   C152      1.0  0.04706  0.28620  0.33546  1.0000
  N   N98       1.0  0.02429  0.26807  0.33814  1.0000
  C   C153      1.0  0.99287  0.27348  0.33887  1.0000
  N   N99       1.0  0.98470  0.29801  0.33629  1.0000
  C   C154      1.0  0.00295  0.69512  0.33512  1.0000
  N   N100      1.0  0.97140  0.70143  0.33691  1.0000
  C   C155      1.0  0.96174  0.72590  0.33975  1.0000
  N   N101      1.0  0.98440  0.74415  0.34099  1.0000
  C   C156      1.0  0.01588  0.73887  0.34012  1.0000
  N   N102      1.0  0.02418  0.71435  0.33758  1.0000
  C   C157      1.0  0.50437  0.81731  0.34794  1.0000
  N   N103      1.0  0.47272  0.81114  0.34706  1.0000
  C   C158      1.0  0.46285  0.78669  0.34530  1.0000
  N   N104      1.0  0.48540  0.76839  0.34431  1.0000
  C   C159      1.0  0.51690  0.77349  0.34445  1.0000
  N   N105      1.0  0.52543  0.79796  0.34594  1.0000
  C   C160      1.0  0.50581  0.19493  0.35443  1.0000
  N   N106      1.0  0.53715  0.20135  0.34444  1.0000
  C   C161      1.0  0.54651  0.22584  0.33749  1.0000
  N   N107      1.0  0.52377  0.24399  0.34061  1.0000
  C   C162      1.0  0.49255  0.23859  0.35042  1.0000
  N   N108      1.0  0.48448  0.21409  0.35742  1.0000
  C   C163      1.0  0.48384  0.02654  0.35591  1.0000
  C   C164      1.0  0.52543  0.98471  0.35379  1.0000
  N   N109      1.0  0.49320  0.98232  0.35768  1.0000
  C   C165      1.0  0.47180  0.00156  0.35874  1.0000
  C   C166      1.0  0.43985  0.99553  0.36548  1.0000
  O   O19       1.0  0.43056  0.97562  0.33437  1.0000
  H   H37       1.0  0.42958  0.00063  0.42277  1.0000
  N   N110      1.0  0.99363  0.52888  0.33416  1.0000
  C   C167      1.0  0.97289  0.50932  0.33493  1.0000
  H   H38       1.0  0.94898  0.51284  0.33856  1.0000
  N   N111      1.0  0.32710  0.05664  0.35892  1.0000
  C   C168      1.0  0.35900  0.05150  0.36097  1.0000
  H   H39       1.0  0.36657  0.03367  0.37416  1.0000
  N   N112      1.0  0.68354  0.95549  0.36137  1.0000
  C   C169      1.0  0.65167  0.96085  0.36292  1.0000
  H   H40       1.0  0.64416  0.97820  0.38295  1.0000
  C   C170      1.0  0.19484  0.58082  0.33956  1.0000
  C   C171      1.0  0.12836  0.57192  0.33706  1.0000
  N   N113      1.0  0.14118  0.59487  0.35184  1.0000
  C   C172      1.0  0.17259  0.60064  0.35427  1.0000
  C   C173      1.0  0.18015  0.62522  0.37515  1.0000
  O   O20       1.0  0.16160  0.64199  0.35510  1.0000
  H   H41       1.0  0.19159  0.62755  0.43300  1.0000
  C   C174      1.0  0.81478  0.43226  0.34093  1.0000
  C   C175      1.0  0.88128  0.44117  0.33834  1.0000
  N   N114      1.0  0.86839  0.41839  0.35606  1.0000
  C   C176      1.0  0.83698  0.41264  0.35901  1.0000
  C   C177      1.0  0.82940  0.38831  0.38324  1.0000
  O   O21       1.0  0.84827  0.37123  0.37003  1.0000
  H   H42       1.0  0.81606  0.38632  0.43797  1.0000
  C   C178      1.0  0.49483  0.16954  0.36009  1.0000
  C   C179      1.0  0.47603  0.11854  0.35822  1.0000
  N   N115      1.0  0.45543  0.13764  0.37415  1.0000
  C   C180      1.0  0.46258  0.16241  0.37655  1.0000
  C   C181      1.0  0.43787  0.17851  0.39763  1.0000
  O   O22       1.0  0.41044  0.17307  0.37783  1.0000
  H   H43       1.0  0.44008  0.18795  0.45491  1.0000
  C   C182      1.0  0.51594  0.84258  0.35000  1.0000
  C   C183      1.0  0.53512  0.89349  0.34952  1.0000
  N   N116      1.0  0.55606  0.87419  0.35547  1.0000
  C   C184      1.0  0.54875  0.84943  0.35587  1.0000
  C   C185      1.0  0.57396  0.83299  0.36615  1.0000
  O   O23       1.0  0.59950  0.83818  0.33110  1.0000
  H   H44       1.0  0.57571  0.82476  0.42576  1.0000
  N   N117      1.0  0.99290  0.65054  0.34056  1.0000
  C   C186      1.0  0.00079  0.62571  0.34055  1.0000
  H   H45       1.0  0.98338  0.61248  0.34807  1.0000
  N   N118      1.0  0.01606  0.36166  0.33856  1.0000
  C   C187      1.0  0.00816  0.38647  0.33922  1.0000
  H   H46       1.0  0.02559  0.39967  0.34718  1.0000
  C   C188      1.0  0.53658  0.51109  0.34622  1.0000
  C   C189      1.0  0.47130  0.49803  0.34460  1.0000
  N   N119      1.0  0.49488  0.48062  0.34908  1.0000
  C   C190      1.0  0.52675  0.48554  0.34995  1.0000
  C   C191      1.0  0.54727  0.46541  0.35734  1.0000
  O   O24       1.0  0.53895  0.44471  0.33102  1.0000
  H   H47       1.0  0.56097  0.46510  0.41184  1.0000
  N   N120      1.0  0.99458  0.02957  0.33998  1.0000
  C   C192      1.0  0.02622  0.02414  0.34069  1.0000
  H   H48       1.0  0.04237  0.03847  0.34329  1.0000
  N   N121      1.0  0.36563  0.42143  0.35807  1.0000
  C   C193      1.0  0.35667  0.39698  0.36370  1.0000
  H   H49       1.0  0.33307  0.39275  0.37148  1.0000
  N   N122      1.0  0.64113  0.58915  0.35853  1.0000
  C   C194      1.0  0.65027  0.61355  0.36302  1.0000
  H   H50       1.0  0.67379  0.61769  0.37300  1.0000
  C   C195      1.0  0.11121  0.93016  0.33798  1.0000
  C   C196      1.0  0.12797  0.87877  0.33061  1.0000
  N   N123      1.0  0.09749  0.88665  0.34284  1.0000
  C   C197      1.0  0.08770  0.91098  0.34687  1.0000
  C   C198      1.0  0.05572  0.91528  0.36259  1.0000
  O   O25       1.0  0.03589  0.89979  0.33934  1.0000
  H   H51       1.0  0.05043  0.92426  0.41921  1.0000
  C   C199      1.0  0.89683  0.08259  0.33897  1.0000
  C   C200      1.0  0.88047  0.13396  0.33088  1.0000
  N   N124      1.0  0.91087  0.12598  0.34401  1.0000
  C   C201      1.0  0.92048  0.10161  0.34841  1.0000
  C   C202      1.0  0.95236  0.09696  0.36510  1.0000
  O   O26       1.0  0.97208  0.11271  0.34328  1.0000
  H   H52       1.0  0.95728  0.08806  0.42199  1.0000
  C   C203      1.0  0.30626  0.55049  0.33732  1.0000
  C   C204      1.0  0.35778  0.51612  0.34005  1.0000
  N   N125      1.0  0.32683  0.50858  0.34389  1.0000
  C   C205      1.0  0.30090  0.52413  0.34272  1.0000
  C   C206      1.0  0.27095  0.51348  0.34888  1.0000
  O   O27       1.0  0.26712  0.49202  0.32224  1.0000
  H   H53       1.0  0.25890  0.51789  0.40411  1.0000
  C   C207      1.0  0.70299  0.46180  0.33636  1.0000
  C   C208      1.0  0.65074  0.49542  0.33918  1.0000
  N   N126      1.0  0.68151  0.50339  0.34354  1.0000
  C   C209      1.0  0.70778  0.48821  0.34247  1.0000
  C   C210      1.0  0.73742  0.49927  0.34917  1.0000
  O   O28       1.0  0.74099  0.52107  0.32588  1.0000
  H   H54       1.0  0.75048  0.49431  0.40196  1.0000
  N   N127      1.0  0.17133  0.05785  0.34797  1.0000
  C   C211      1.0  0.14550  0.04259  0.34681  1.0000
  H   H55       1.0  0.12330  0.05044  0.34968  1.0000
  N   N128      1.0  0.80243  0.98311  0.34916  1.0000
  C   C212      1.0  0.82401  0.00221  0.34801  1.0000
  H   H56       1.0  0.81615  0.02030  0.35244  1.0000
  C   C213      1.0  0.21970  0.19130  0.36568  1.0000
  C   C214      1.0  0.22993  0.13895  0.36186  1.0000
  N   N129      1.0  0.25395  0.15576  0.37288  1.0000
  C   C215      1.0  0.25087  0.18110  0.37561  1.0000
  C   C216      1.0  0.27817  0.19506  0.38981  1.0000
  O   O29       1.0  0.30359  0.18716  0.36135  1.0000
  H   H57       1.0  0.27924  0.20356  0.44913  1.0000
  C   C217      1.0  0.78768  0.81891  0.37501  1.0000
  C   C218      1.0  0.77748  0.87116  0.36952  1.0000
  N   N130      1.0  0.75322  0.85446  0.37778  1.0000
  C   C219      1.0  0.75635  0.82910  0.38126  1.0000
  C   C220      1.0  0.72888  0.81514  0.39172  1.0000
  O   O30       1.0  0.70348  0.82322  0.36362  1.0000
  H   H58       1.0  0.72715  0.80542  0.44851  1.0000
  N   N131      1.0  0.31420  0.67514  0.32435  1.0000
  C   C221      1.0  0.31050  0.64979  0.32688  1.0000
  H   H59       1.0  0.32994  0.63856  0.33631  1.0000
  N   N132      1.0  0.69536  0.33778  0.31798  1.0000
  C   C222      1.0  0.69928  0.36309  0.32136  1.0000
  H   H60       1.0  0.67982  0.37442  0.32913  1.0000
  C   C223      1.0  0.30801  0.30667  0.39871  1.0000
  C   C224      1.0  0.25310  0.27759  0.37749  1.0000
  N   N133      1.0  0.27500  0.27247  0.44186  1.0000
  C   C225      1.0  0.30169  0.28617  0.45745  1.0000
  C   C226      1.0  0.32088  0.27955  0.52954  1.0000
  O   O31       1.0  0.31472  0.26091  0.57415  1.0000
  H   H61       1.0  0.33077  0.29358  0.56338  1.0000
  C   C227      1.0  0.69915  0.70401  0.39936  1.0000
  C   C228      1.0  0.75486  0.73267  0.38804  1.0000
  N   N134      1.0  0.72965  0.73995  0.43867  1.0000
  C   C229      1.0  0.70226  0.72683  0.44843  1.0000
  C   C230      1.0  0.68006  0.73689  0.50688  1.0000
  O   O32       1.0  0.67186  0.75866  0.49593  1.0000
  H   H62       1.0  0.66341  0.72568  0.53200  1.0000
  N   N135      1.0  0.22544  0.81454  0.33856  1.0000
  C   C231      1.0  0.25350  0.80175  0.34362  1.0000
  H   H63       1.0  0.27134  0.80837  0.38400  1.0000
  N   N136      1.0  0.78299  0.19798  0.33137  1.0000
  C   C232      1.0  0.75491  0.21075  0.33503  1.0000
  H   H64       1.0  0.73654  0.20383  0.37274  1.0000
  C   C233      1.0  0.41961  0.29235  0.38180  1.0000
  C   C234      1.0  0.46917  0.25745  0.35864  1.0000
  N   N137      1.0  0.44169  0.25142  0.40111  1.0000
  C   C235      1.0  0.41704  0.26731  0.41464  1.0000
  C   C236      1.0  0.39310  0.25741  0.46658  1.0000
  O   O33       1.0  0.37297  0.24519  0.42666  1.0000
  H   H65       1.0  0.38530  0.26828  0.51588  1.0000
  C   C237      1.0  0.59036  0.71942  0.34326  1.0000
  C   C238      1.0  0.54032  0.75447  0.34309  1.0000
  N   N138      1.0  0.57113  0.76142  0.33261  1.0000
  C   C239      1.0  0.59637  0.74556  0.33133  1.0000
  C   C240      1.0  0.62565  0.75657  0.31629  1.0000
  O   O34       1.0  0.63895  0.75138  0.24557  1.0000
  H   H66       1.0  0.62833  0.77436  0.33481  1.0000
  N   N139      1.0  0.05945  0.79957  0.33250  1.0000
  C   C241      1.0  0.03412  0.78366  0.33320  1.0000
  H   H67       1.0  0.01165  0.79069  0.32493  1.0000
  N   N140      1.0  0.94926  0.21285  0.33434  1.0000
  C   C242      1.0  0.97461  0.22872  0.33510  1.0000
  H   H68       1.0  0.99711  0.22158  0.32898  1.0000
  C   C243      1.0  0.14124  0.25821  0.34317  1.0000
  C   C244      1.0  0.07917  0.27816  0.33654  1.0000
  N   N141      1.0  0.08502  0.25314  0.34083  1.0000
  C   C245      1.0  0.11416  0.24216  0.34355  1.0000
  C   C246      1.0  0.11515  0.21635  0.35126  1.0000
  O   O35       1.0  0.09438  0.20398  0.31447  1.0000
  H   H69       1.0  0.12190  0.21012  0.41122  1.0000
  C   C247      1.0  0.86709  0.75277  0.35381  1.0000
  C   C248      1.0  0.92950  0.73360  0.34288  1.0000
  N   N142      1.0  0.92322  0.75854  0.34776  1.0000
  C   C249      1.0  0.89388  0.76914  0.35261  1.0000
  C   C250      1.0  0.89254  0.79491  0.36038  1.0000
  O   O36       1.0  0.91314  0.80780  0.32512  1.0000
  H   H70       1.0  0.88472  0.80146  0.41892  1.0000
  N   N143      1.0  0.37435  0.78423  0.33771  1.0000
  C   C251      1.0  0.40383  0.79471  0.34242  1.0000
  H   H71       1.0  0.40610  0.81377  0.34469  1.0000
  N   N144      1.0  0.63486  0.22871  0.32863  1.0000
  C   C252      1.0  0.60547  0.21812  0.33326  1.0000
  H   H72       1.0  0.60337  0.19911  0.33911  1.0000
