data_image0
_chemical_formula_structural       C2H2C2H2C2H2C2H2C2H2C2H2C2H2C2H2C4NC2NC2H2C4NC2NC2H2C4NC2NC2H2C4NC2NC2H2C4NC2NC2H2C4NC2NC2H2C4NC2NC2H2C4NC2NC2H2C2H2C2H2C2H2C2H2C2H2C2H2C2H2C2H2C4NC2NC2H2C4NC2NC2H2C4NC2NC2H2C4NC2NC2H2C2H2C2H2C2H2C2H2C2H2C2H2C2H2C2H2C4NC2NC2H2C4NC2NC2H2C2H2C2H2C2H2C2H2C2H2C2H2C2H2C2H2C4NC2NC2H2C4NC2NC2H2C4NC2NC2H2C4NC2NC2H2C4NC2NC2H2C4NC2NC2H2C4NC2NC2H2C4NC2NC2H2C2H2C2H2C2H2C2H2C2H2C2H2C2H2C2H2C6H3C6H3C6H3C6H3C6H3C6H3C6H3C6H3C6H3C6H3C6H3C6H3C6H3C6H3C6H3C6H3C6H3C6H3C6H3C6H3C6H3C6H3C6H3C6H3C6H3C6H3C6H3C6H3C4NC2NC2H2C4NC2NC2H2C4NC2NC2H2C4NC2NC2H2C2H2C2H2C2H2C2H2C2H2C2H2C2H2C2H2C2H2C2H2C2H2C2H2C2H2C2H2C2H2C2H2C4NC2NC2H2C4NC2NC2H2C4NC2NC2H2C4NC2NC2H2C2H2C2H2C2H2C2H2C2H2C2H2C2H2C2H2C4NC2NC2H2C4NC2NC2H2C4NC2NC2H2C4NC2NC2H2C2H2C2H2C2H2C2H2C4NC2NC2H2C4NC2NC2H2C4NC2NC2H2C4NC2NC2H2C2H2C2H2C2H2C2H2C2H2C2H2C2H2C2H2C2H2C2H2C2H2C2H2C2H2C2H2C2H2C2H2C4NC2NC2H2C4NC2NC2H2C4NC2NC2H2C4NC2NC2H2
_chemical_formula_sum              "C672 H336 N84"
_cell_length_a       52.3632
_cell_length_b       52.3632
_cell_length_c       14.8723
_cell_angle_alpha    90
_cell_angle_beta     90
_cell_angle_gamma    90

_space_group_name_H-M_alt    "P 1"
_space_group_IT_number       1

loop_
  _space_group_symop_operation_xyz
  'x, y, z'

loop_
  _atom_site_type_symbol
  _atom_site_label
  _atom_site_symmetry_multiplicity
  _atom_site_fract_x
  _atom_site_fract_y
  _atom_site_fract_z
  _atom_site_occupancy
  C   C1        1.0  0.12438  0.13962  0.26496  1.0000
  C   C2        1.0  0.14334  0.15863  0.26677  1.0000
  H   H1        1.0  0.14634  0.16938  0.21023  1.0000
  H   H2        1.0  0.11402  0.13700  0.20731  1.0000
  C   C3        1.0  0.14898  0.11090  0.06763  1.0000
  C   C4        1.0  0.16782  0.13008  0.07021  1.0000
  H   H3        1.0  0.14480  0.10069  0.12433  1.0000
  H   H4        1.0  0.17736  0.13376  0.12876  1.0000
  C   C5        1.0  0.88388  0.86908  0.26476  1.0000
  C   C6        1.0  0.86460  0.85039  0.26645  1.0000
  H   H5        1.0  0.86142  0.83972  0.20985  1.0000
  H   H6        1.0  0.89426  0.87159  0.20709  1.0000
  C   C7        1.0  0.85969  0.89806  0.06748  1.0000
  C   C8        1.0  0.84048  0.87925  0.06992  1.0000
  H   H7        1.0  0.86405  0.90816  0.12425  1.0000
  H   H8        1.0  0.83085  0.87573  0.12841  1.0000
  C   C9        1.0  0.86909  0.12447  0.26510  1.0000
  C   C10       1.0  0.85024  0.14360  0.26689  1.0000
  H   H9        1.0  0.83952  0.14668  0.21035  1.0000
  H   H10       1.0  0.87164  0.11410  0.20744  1.0000
  C   C11       1.0  0.89796  0.14881  0.06781  1.0000
  C   C12       1.0  0.87897  0.16784  0.07036  1.0000
  H   H11       1.0  0.90813  0.14454  0.12453  1.0000
  H   H12       1.0  0.87538  0.17742  0.12889  1.0000
  C   C13       1.0  0.13962  0.88398  0.26463  1.0000
  C   C14       1.0  0.15848  0.86486  0.26633  1.0000
  H   H13       1.0  0.16918  0.86178  0.20973  1.0000
  H   H14       1.0  0.13704  0.89435  0.20698  1.0000
  C   C15       1.0  0.11082  0.85949  0.06731  1.0000
  C   C16       1.0  0.12983  0.84048  0.06977  1.0000
  H   H15       1.0  0.10067  0.86376  0.12408  1.0000
  H   H16       1.0  0.13344  0.83089  0.12827  1.0000
  C   C17       1.0  0.09746  0.97833  0.35210  1.0000
  C   C18       1.0  0.10500  0.99189  0.27423  1.0000
  C   C19       1.0  0.10476  0.01907  0.27371  1.0000
  C   C20       1.0  0.09699  0.03273  0.35127  1.0000
  N   N1        1.0  0.11058  0.03119  0.19532  1.0000
  C   C21       1.0  0.11688  0.01866  0.11854  1.0000
  C   C22       1.0  0.11701  0.99161  0.11905  1.0000
  N   N2        1.0  0.11090  0.97945  0.19655  1.0000
  C   C23       1.0  0.12309  0.03190  0.03923  1.0000
  C   C24       1.0  0.12324  0.97802  0.04032  1.0000
  H   H17       1.0  0.12313  0.05133  0.03878  1.0000
  H   H18       1.0  0.12334  0.95848  0.04036  1.0000
  C   C25       1.0  0.91123  0.03007  0.35207  1.0000
  C   C26       1.0  0.90376  0.01653  0.27409  1.0000
  C   C27       1.0  0.90408  0.98935  0.27338  1.0000
  C   C28       1.0  0.91187  0.97568  0.35084  1.0000
  N   N3        1.0  0.89830  0.97726  0.19491  1.0000
  C   C29       1.0  0.89198  0.98981  0.11820  1.0000
  C   C30       1.0  0.89178  0.01686  0.11889  1.0000
  N   N4        1.0  0.89783  0.02900  0.19649  1.0000
  C   C31       1.0  0.88582  0.97660  0.03879  1.0000
  C   C32       1.0  0.88552  0.03048  0.04025  1.0000
  H   H19       1.0  0.88582  0.95717  0.03819  1.0000
  H   H20       1.0  0.88538  0.05002  0.04042  1.0000
  C   C33       1.0  0.03022  0.09722  0.35233  1.0000
  C   C34       1.0  0.01668  0.10474  0.27440  1.0000
  C   C35       1.0  0.98950  0.10450  0.27378  1.0000
  C   C36       1.0  0.97583  0.09672  0.35131  1.0000
  N   N5        1.0  0.97739  0.11030  0.19534  1.0000
  C   C37       1.0  0.98994  0.11661  0.11860  1.0000
  C   C38       1.0  0.01699  0.11675  0.11921  1.0000
  N   N6        1.0  0.02914  0.11065  0.19677  1.0000
  C   C39       1.0  0.97673  0.12281  0.03925  1.0000
  C   C40       1.0  0.03061  0.12298  0.04054  1.0000
  H   H21       1.0  0.95730  0.12284  0.03871  1.0000
  H   H22       1.0  0.05015  0.12308  0.04065  1.0000
  C   C41       1.0  0.97848  0.91099  0.35184  1.0000
  C   C42       1.0  0.99203  0.90351  0.27392  1.0000
  C   C43       1.0  0.01921  0.90382  0.27327  1.0000
  C   C44       1.0  0.03288  0.91161  0.35077  1.0000
  N   N7        1.0  0.03133  0.89804  0.19485  1.0000
  C   C45       1.0  0.01879  0.89171  0.11811  1.0000
  C   C46       1.0  0.99174  0.89152  0.11873  1.0000
  N   N8        1.0  0.97958  0.89758  0.19629  1.0000
  C   C47       1.0  0.03201  0.88554  0.03874  1.0000
  C   C48       1.0  0.97813  0.88526  0.04006  1.0000
  H   H23       1.0  0.05145  0.88554  0.03820  1.0000
  H   H24       1.0  0.95860  0.88512  0.04017  1.0000
  C   C49       1.0  0.18282  0.25243  0.33928  1.0000
  C   C50       1.0  0.17067  0.26315  0.26298  1.0000
  C   C51       1.0  0.16146  0.28876  0.26457  1.0000
  C   C52       1.0  0.16365  0.30378  0.34351  1.0000
  N   N9        1.0  0.15139  0.29847  0.18739  1.0000
  C   C53       1.0  0.14939  0.28489  0.10993  1.0000
  C   C54       1.0  0.15817  0.25931  0.10881  1.0000
  N   N10       1.0  0.16851  0.24964  0.18510  1.0000
  C   C55       1.0  0.13906  0.29572  0.03143  1.0000
  C   C56       1.0  0.15643  0.24472  0.02945  1.0000
  H   H25       1.0  0.13296  0.31418  0.03185  1.0000
  H   H26       1.0  0.16282  0.22626  0.02823  1.0000
  C   C57       1.0  0.82439  0.75708  0.33942  1.0000
  C   C58       1.0  0.83653  0.74634  0.26317  1.0000
  C   C59       1.0  0.84579  0.72075  0.26494  1.0000
  C   C60       1.0  0.84370  0.70581  0.34408  1.0000
  N   N11       1.0  0.85585  0.71100  0.18779  1.0000
  C   C61       1.0  0.85780  0.72454  0.11022  1.0000
  C   C62       1.0  0.84900  0.75012  0.10895  1.0000
  N   N12       1.0  0.83867  0.75981  0.18520  1.0000
  C   C63       1.0  0.86811  0.71368  0.03174  1.0000
  C   C64       1.0  0.85073  0.76467  0.02952  1.0000
  H   H27       1.0  0.87419  0.69522  0.03224  1.0000
  H   H28       1.0  0.84434  0.78313  0.02821  1.0000
  C   C65       1.0  0.75670  0.18349  0.33988  1.0000
  C   C66       1.0  0.74594  0.17142  0.26350  1.0000
  C   C67       1.0  0.72028  0.16234  0.26500  1.0000
  C   C68       1.0  0.70529  0.16457  0.34398  1.0000
  N   N13       1.0  0.71053  0.15236  0.18774  1.0000
  C   C69       1.0  0.72412  0.15033  0.11030  1.0000
  C   C70       1.0  0.74975  0.15895  0.10930  1.0000
  N   N14       1.0  0.75946  0.16922  0.18566  1.0000
  C   C71       1.0  0.71325  0.14011  0.03168  1.0000
  C   C72       1.0  0.76436  0.15716  0.02999  1.0000
  H   H29       1.0  0.69475  0.13416  0.03197  1.0000
  H   H30       1.0  0.78285  0.16343  0.02888  1.0000
  C   C73       1.0  0.25205  0.82507  0.33869  1.0000
  C   C74       1.0  0.26275  0.83729  0.26250  1.0000
  C   C75       1.0  0.28829  0.84667  0.26433  1.0000
  C   C76       1.0  0.30326  0.84464  0.34342  1.0000
  N   N15       1.0  0.29799  0.85682  0.18725  1.0000
  C   C77       1.0  0.28446  0.85873  0.10967  1.0000
  C   C78       1.0  0.25893  0.84978  0.10831  1.0000
  N   N16       1.0  0.24928  0.83937  0.18451  1.0000
  C   C79       1.0  0.29527  0.86916  0.03129  1.0000
  C   C80       1.0  0.24439  0.85144  0.02883  1.0000
  H   H31       1.0  0.31369  0.87538  0.03189  1.0000
  H   H32       1.0  0.22597  0.84494  0.02744  1.0000
  C   C81       1.0  0.83136  0.28985  0.25930  1.0000
  C   C82       1.0  0.82213  0.26459  0.26391  1.0000
  H   H33       1.0  0.81330  0.25698  0.20863  1.0000
  H   H34       1.0  0.82827  0.30008  0.20164  1.0000
  C   C83       1.0  0.87073  0.28286  0.05915  1.0000
  C   C84       1.0  0.86062  0.25800  0.06522  1.0000
  H   H35       1.0  0.87870  0.29128  0.11447  1.0000
  H   H36       1.0  0.86126  0.24836  0.12493  1.0000
  C   C85       1.0  0.17679  0.71873  0.25835  1.0000
  C   C86       1.0  0.18633  0.74388  0.26313  1.0000
  H   H37       1.0  0.19521  0.75143  0.20784  1.0000
  H   H38       1.0  0.17977  0.70850  0.20063  1.0000
  C   C87       1.0  0.13740  0.72605  0.05814  1.0000
  C   C88       1.0  0.14797  0.75070  0.06446  1.0000
  H   H39       1.0  0.12926  0.71773  0.11335  1.0000
  H   H40       1.0  0.14746  0.76033  0.12423  1.0000
  C   C89       1.0  0.28934  0.17767  0.25895  1.0000
  C   C90       1.0  0.26414  0.18705  0.26375  1.0000
  H   H41       1.0  0.25653  0.19589  0.20848  1.0000
  H   H42       1.0  0.29955  0.18070  0.20121  1.0000
  C   C91       1.0  0.28237  0.13831  0.05883  1.0000
  C   C92       1.0  0.25759  0.14859  0.06510  1.0000
  H   H43       1.0  0.29078  0.13027  0.11407  1.0000
  H   H44       1.0  0.24798  0.14799  0.12487  1.0000
  C   C93       1.0  0.71823  0.83225  0.25861  1.0000
  C   C94       1.0  0.74344  0.82286  0.26327  1.0000
  H   H45       1.0  0.75101  0.81400  0.20799  1.0000
  H   H46       1.0  0.70799  0.82920  0.20095  1.0000
  C   C95       1.0  0.72551  0.87167  0.05841  1.0000
  C   C96       1.0  0.75025  0.86129  0.06456  1.0000
  H   H47       1.0  0.71715  0.87973  0.11370  1.0000
  H   H48       1.0  0.75989  0.86186  0.12428  1.0000
  C   C97       1.0  0.37594  0.10586  0.34133  1.0000
  C   C98       1.0  0.37417  0.08926  0.26608  1.0000
  C   C99       1.0  0.38370  0.06362  0.26917  1.0000
  C   C100      1.0  0.39542  0.05359  0.34762  1.0000
  N   N17       1.0  0.38245  0.04937  0.19277  1.0000
  C   C101      1.0  0.37274  0.05819  0.11420  1.0000
  C   C102      1.0  0.36372  0.08364  0.11080  1.0000
  N   N18       1.0  0.36477  0.09800  0.18655  1.0000
  C   C103      1.0  0.37216  0.04291  0.03645  1.0000
  C   C104      1.0  0.35453  0.09372  0.02938  1.0000
  H   H49       1.0  0.37901  0.02472  0.03866  1.0000
  H   H50       1.0  0.34910  0.11238  0.02616  1.0000
  C   C105      1.0  0.63131  0.90365  0.33896  1.0000
  C   C106      1.0  0.63296  0.92008  0.26322  1.0000
  C   C107      1.0  0.62343  0.94573  0.26572  1.0000
  C   C108      1.0  0.61184  0.95592  0.34413  1.0000
  N   N19       1.0  0.62457  0.95982  0.18896  1.0000
  C   C109      1.0  0.63420  0.95082  0.11051  1.0000
  C   C110      1.0  0.64326  0.92537  0.10771  1.0000
  N   N20       1.0  0.64230  0.91117  0.18384  1.0000
  C   C111      1.0  0.63472  0.96593  0.03234  1.0000
  C   C112      1.0  0.65241  0.91513  0.02651  1.0000
  H   H51       1.0  0.62777  0.98409  0.03398  1.0000
  H   H52       1.0  0.65785  0.89646  0.02372  1.0000
  C   C113      1.0  0.90280  0.37667  0.34164  1.0000
  C   C114      1.0  0.91939  0.37490  0.26636  1.0000
  C   C115      1.0  0.94503  0.38444  0.26939  1.0000
  C   C116      1.0  0.95503  0.39619  0.34782  1.0000
  N   N21       1.0  0.95927  0.38318  0.19299  1.0000
  C   C117      1.0  0.95045  0.37345  0.11446  1.0000
  C   C118      1.0  0.92499  0.36442  0.11110  1.0000
  N   N22       1.0  0.91064  0.36549  0.18686  1.0000
  C   C119      1.0  0.96572  0.37284  0.03671  1.0000
  C   C120      1.0  0.91491  0.35523  0.02970  1.0000
  H   H53       1.0  0.98391  0.37970  0.03888  1.0000
  H   H54       1.0  0.89624  0.34981  0.02650  1.0000
  C   C121      1.0  0.10499  0.63203  0.33856  1.0000
  C   C122      1.0  0.08855  0.63371  0.26284  1.0000
  C   C123      1.0  0.06290  0.62420  0.26534  1.0000
  C   C124      1.0  0.05267  0.61264  0.34376  1.0000
  N   N23       1.0  0.04882  0.62534  0.18856  1.0000
  C   C125      1.0  0.05783  0.63494  0.11009  1.0000
  C   C126      1.0  0.08329  0.64398  0.10730  1.0000
  N   N24       1.0  0.09748  0.64302  0.18345  1.0000
  C   C127      1.0  0.04273  0.63545  0.03191  1.0000
  C   C128      1.0  0.09354  0.65312  0.02609  1.0000
  H   H55       1.0  0.02456  0.62852  0.03355  1.0000
  H   H56       1.0  0.11220  0.65856  0.02331  1.0000
  C   C129      1.0  0.60911  0.06967  0.26174  1.0000
  C   C130      1.0  0.61829  0.09512  0.26323  1.0000
  H   H57       1.0  0.61597  0.10615  0.20702  1.0000
  H   H58       1.0  0.60001  0.06337  0.20502  1.0000
  C   C131      1.0  0.64558  0.05406  0.06098  1.0000
  C   C132      1.0  0.65404  0.07958  0.06327  1.0000
  H   H59       1.0  0.64627  0.04312  0.11788  1.0000
  H   H60       1.0  0.66088  0.08717  0.12183  1.0000
  C   C133      1.0  0.39925  0.93981  0.25971  1.0000
  C   C134      1.0  0.39016  0.91433  0.26143  1.0000
  H   H61       1.0  0.39252  0.90327  0.20532  1.0000
  H   H62       1.0  0.40833  0.94611  0.20292  1.0000
  C   C135      1.0  0.36323  0.95554  0.05915  1.0000
  C   C136      1.0  0.35466  0.93005  0.06157  1.0000
  H   H63       1.0  0.36264  0.96648  0.11605  1.0000
  H   H64       1.0  0.34782  0.92250  0.12022  1.0000
  C   C137      1.0  0.06877  0.39998  0.25973  1.0000
  C   C138      1.0  0.09424  0.39085  0.26140  1.0000
  H   H65       1.0  0.10530  0.39318  0.20526  1.0000
  H   H66       1.0  0.06247  0.40905  0.20295  1.0000
  C   C139      1.0  0.05308  0.36390  0.05918  1.0000
  C   C140      1.0  0.07856  0.35530  0.06154  1.0000
  H   H67       1.0  0.04214  0.36329  0.11608  1.0000
  H   H68       1.0  0.08611  0.34844  0.12014  1.0000
  C   C141      1.0  0.93889  0.60985  0.26166  1.0000
  C   C142      1.0  0.91344  0.61900  0.26324  1.0000
  H   H69       1.0  0.90239  0.61667  0.20706  1.0000
  H   H70       1.0  0.94518  0.60075  0.20492  1.0000
  C   C143      1.0  0.95457  0.64623  0.06094  1.0000
  C   C144      1.0  0.92905  0.65468  0.06331  1.0000
  H   H71       1.0  0.96552  0.64691  0.11783  1.0000
  H   H72       1.0  0.92146  0.66151  0.12191  1.0000
  C   C145      1.0  0.53136  0.00479  0.33848  1.0000
  C   C146      1.0  0.51755  0.99740  0.26079  1.0000
  C   C147      1.0  0.49031  0.99777  0.26043  1.0000
  C   C148      1.0  0.47649  0.00561  0.33766  1.0000
  N   N25       1.0  0.47808  0.99129  0.18289  1.0000
  C   C149      1.0  0.49042  0.98448  0.10631  1.0000
  C   C150      1.0  0.51748  0.98410  0.10674  1.0000
  N   N26       1.0  0.52981  0.99056  0.18370  1.0000
  C   C151      1.0  0.47697  0.97825  0.02727  1.0000
  C   C152      1.0  0.53093  0.97750  0.02808  1.0000
  H   H73       1.0  0.45744  0.97859  0.02643  1.0000
  H   H74       1.0  0.55047  0.97731  0.02782  1.0000
  C   C153      1.0  0.00383  0.53212  0.33822  1.0000
  C   C154      1.0  0.01122  0.51827  0.26061  1.0000
  C   C155      1.0  0.01084  0.49104  0.26042  1.0000
  C   C156      1.0  0.00301  0.47725  0.33774  1.0000
  N   N27       1.0  0.01733  0.47876  0.18297  1.0000
  C   C157      1.0  0.02414  0.49105  0.10631  1.0000
  C   C158      1.0  0.02452  0.51812  0.10655  1.0000
  N   N28       1.0  0.01806  0.53049  0.18344  1.0000
  C   C159      1.0  0.03037  0.47756  0.02737  1.0000
  C   C160      1.0  0.03112  0.53152  0.02780  1.0000
  H   H75       1.0  0.03003  0.45803  0.02667  1.0000
  H   H76       1.0  0.03132  0.55106  0.02740  1.0000
  C   C161      1.0  0.24278  0.39440  0.26056  1.0000
  C   C162      1.0  0.21726  0.38581  0.25778  1.0000
  H   H77       1.0  0.21107  0.37664  0.20099  1.0000
  H   H78       1.0  0.25400  0.39188  0.20490  1.0000
  C   C163      1.0  0.22619  0.43118  0.06019  1.0000
  C   C164      1.0  0.20088  0.42208  0.05807  1.0000
  H   H79       1.0  0.23347  0.43864  0.11833  1.0000
  H   H80       1.0  0.18985  0.42294  0.11470  1.0000
  C   C165      1.0  0.76503  0.61491  0.26125  1.0000
  C   C166      1.0  0.79053  0.62357  0.25874  1.0000
  H   H81       1.0  0.79671  0.63280  0.20207  1.0000
  H   H82       1.0  0.75384  0.61743  0.20551  1.0000
  C   C167      1.0  0.78139  0.57807  0.06090  1.0000
  C   C168      1.0  0.80667  0.58726  0.05904  1.0000
  H   H83       1.0  0.77409  0.57058  0.11895  1.0000
  H   H84       1.0  0.81767  0.58642  0.11577  1.0000
  C   C169      1.0  0.61442  0.24355  0.26133  1.0000
  C   C170      1.0  0.62313  0.21807  0.25874  1.0000
  H   H85       1.0  0.63234  0.21191  0.20201  1.0000
  H   H86       1.0  0.61691  0.25477  0.20561  1.0000
  C   C171      1.0  0.57767  0.22701  0.06099  1.0000
  C   C172      1.0  0.58689  0.20175  0.05902  1.0000
  H   H87       1.0  0.57018  0.23429  0.11909  1.0000
  H   H88       1.0  0.58608  0.19073  0.11572  1.0000
  C   C173      1.0  0.39389  0.76580  0.26056  1.0000
  C   C174      1.0  0.38537  0.79134  0.25786  1.0000
  H   H89       1.0  0.37618  0.79754  0.20113  1.0000
  H   H90       1.0  0.39133  0.75459  0.20489  1.0000
  C   C175      1.0  0.43073  0.78221  0.06018  1.0000
  C   C176      1.0  0.42167  0.80753  0.05814  1.0000
  H   H91       1.0  0.43818  0.77490  0.11829  1.0000
  H   H92       1.0  0.42257  0.81856  0.11479  1.0000
  C   C177      1.0  0.80675  0.38588  0.34500  1.0000
  C   C178      1.0  0.79639  0.39722  0.26644  1.0000
  C   C179      1.0  0.77071  0.40645  0.26491  1.0000
  C   C180      1.0  0.75459  0.40393  0.34108  1.0000
  N   N29       1.0  0.76165  0.41646  0.18668  1.0000
  C   C181      1.0  0.77571  0.41811  0.11029  1.0000
  C   C182      1.0  0.80110  0.40869  0.11146  1.0000
  N   N30       1.0  0.81027  0.39866  0.18916  1.0000
  C   C183      1.0  0.76552  0.42853  0.03072  1.0000
  C   C184      1.0  0.81610  0.40975  0.03295  1.0000
  H   H93       1.0  0.74719  0.43529  0.02940  1.0000
  H   H94       1.0  0.83441  0.40293  0.03325  1.0000
  C   C185      1.0  0.20104  0.62276  0.34406  1.0000
  C   C186      1.0  0.21152  0.61146  0.26562  1.0000
  C   C187      1.0  0.23727  0.60240  0.26428  1.0000
  C   C188      1.0  0.25335  0.60506  0.34051  1.0000
  N   N31       1.0  0.24643  0.59241  0.18615  1.0000
  C   C189      1.0  0.23240  0.59064  0.10971  1.0000
  C   C190      1.0  0.20696  0.59989  0.11070  1.0000
  N   N32       1.0  0.19769  0.60990  0.18830  1.0000
  C   C191      1.0  0.24269  0.58023  0.03026  1.0000
  C   C192      1.0  0.19199  0.59870  0.03213  1.0000
  H   H95       1.0  0.26106  0.57359  0.02906  1.0000
  H   H96       1.0  0.17364  0.60540  0.03230  1.0000
  C   C193      1.0  0.38543  0.20188  0.34471  1.0000
  C   C194      1.0  0.39675  0.21225  0.26613  1.0000
  C   C195      1.0  0.40595  0.23795  0.26460  1.0000
  C   C196      1.0  0.40340  0.25407  0.34076  1.0000
  N   N33       1.0  0.41596  0.24702  0.18637  1.0000
  C   C197      1.0  0.41763  0.23295  0.11000  1.0000
  C   C198      1.0  0.40825  0.20756  0.11117  1.0000
  N   N34       1.0  0.39822  0.19837  0.18887  1.0000
  C   C199      1.0  0.42806  0.24316  0.03045  1.0000
  C   C200      1.0  0.40933  0.19255  0.03269  1.0000
  H   H97       1.0  0.43479  0.26149  0.02912  1.0000
  H   H98       1.0  0.40254  0.17423  0.03298  1.0000
  C   C201      1.0  0.62233  0.80757  0.34439  1.0000
  C   C202      1.0  0.61100  0.79713  0.26596  1.0000
  C   C203      1.0  0.60189  0.77139  0.26463  1.0000
  C   C204      1.0  0.60452  0.75532  0.34087  1.0000
  N   N35       1.0  0.59189  0.76225  0.18650  1.0000
  C   C205      1.0  0.59015  0.77628  0.11004  1.0000
  C   C206      1.0  0.59944  0.80171  0.11103  1.0000
  N   N36       1.0  0.60946  0.81097  0.18863  1.0000
  C   C207      1.0  0.57974  0.76600  0.03058  1.0000
  C   C208      1.0  0.59829  0.81667  0.03245  1.0000
  H   H99       1.0  0.57307  0.74764  0.02938  1.0000
  H   H100      1.0  0.60501  0.83501  0.03261  1.0000
  C   C209      1.0  0.31376  0.47750  0.35104  1.0000
  C   C210      1.0  0.32130  0.49148  0.27372  1.0000
  C   C211      1.0  0.32124  0.51882  0.27311  1.0000
  C   C212      1.0  0.31358  0.53299  0.34982  1.0000
  N   N37       1.0  0.32710  0.53093  0.19480  1.0000
  C   C213      1.0  0.33317  0.51844  0.11782  1.0000
  C   C214      1.0  0.33320  0.49140  0.11840  1.0000
  N   N38       1.0  0.32719  0.47915  0.19589  1.0000
  C   C215      1.0  0.33891  0.53172  0.03808  1.0000
  C   C216      1.0  0.33895  0.47785  0.03927  1.0000
  H   H101      1.0  0.33861  0.55119  0.03723  1.0000
  H   H102      1.0  0.33866  0.45838  0.03935  1.0000
  C   C217      1.0  0.69415  0.53167  0.35092  1.0000
  C   C218      1.0  0.68666  0.51768  0.27356  1.0000
  C   C219      1.0  0.68680  0.49034  0.27291  1.0000
  C   C220      1.0  0.69447  0.47618  0.34960  1.0000
  N   N39       1.0  0.68098  0.47822  0.19459  1.0000
  C   C221      1.0  0.67490  0.49070  0.11761  1.0000
  C   C222      1.0  0.67479  0.51774  0.11821  1.0000
  N   N40       1.0  0.68075  0.53000  0.19572  1.0000
  C   C223      1.0  0.66920  0.47742  0.03785  1.0000
  C   C224      1.0  0.66902  0.53128  0.03908  1.0000
  H   H103      1.0  0.66956  0.45794  0.03698  1.0000
  H   H104      1.0  0.66925  0.55074  0.03917  1.0000
  C   C225      1.0  0.53108  0.31435  0.35098  1.0000
  C   C226      1.0  0.51713  0.32190  0.27360  1.0000
  C   C227      1.0  0.48979  0.32184  0.27291  1.0000
  C   C228      1.0  0.47560  0.31418  0.34957  1.0000
  N   N41       1.0  0.47770  0.32771  0.19456  1.0000
  C   C229      1.0  0.49021  0.33377  0.11762  1.0000
  C   C230      1.0  0.51725  0.33379  0.11828  1.0000
  N   N42       1.0  0.52948  0.32778  0.19580  1.0000
  C   C231      1.0  0.47695  0.33952  0.03784  1.0000
  C   C232      1.0  0.53081  0.33952  0.03918  1.0000
  H   H105      1.0  0.45748  0.33923  0.03694  1.0000
  H   H106      1.0  0.55028  0.33921  0.03932  1.0000
  C   C233      1.0  0.47692  0.69476  0.35094  1.0000
  C   C234      1.0  0.49092  0.68725  0.27364  1.0000
  C   C235      1.0  0.51826  0.68739  0.27309  1.0000
  C   C236      1.0  0.53242  0.69506  0.34983  1.0000
  N   N43       1.0  0.53040  0.68157  0.19481  1.0000
  C   C237      1.0  0.51794  0.67548  0.11780  1.0000
  C   C238      1.0  0.49090  0.67537  0.11831  1.0000
  N   N44       1.0  0.47861  0.68134  0.19578  1.0000
  C   C239      1.0  0.53124  0.66978  0.03809  1.0000
  C   C240      1.0  0.47738  0.66958  0.03915  1.0000
  H   H107      1.0  0.55072  0.67014  0.03728  1.0000
  H   H108      1.0  0.45792  0.66981  0.03918  1.0000
  C   C241      1.0  0.35039  0.37083  0.26165  1.0000
  C   C242      1.0  0.36940  0.35158  0.26200  1.0000
  H   H109      1.0  0.37133  0.34033  0.20614  1.0000
  H   H110      1.0  0.33925  0.37280  0.20553  1.0000
  C   C243      1.0  0.37967  0.40015  0.05915  1.0000
  C   C244      1.0  0.39864  0.38108  0.05931  1.0000
  H   H111      1.0  0.37578  0.41007  0.11676  1.0000
  H   H112      1.0  0.40851  0.37717  0.11704  1.0000
  C   C245      1.0  0.65748  0.63842  0.26189  1.0000
  C   C246      1.0  0.63855  0.65774  0.26242  1.0000
  H   H113      1.0  0.63664  0.66902  0.20661  1.0000
  H   H114      1.0  0.66860  0.63643  0.20572  1.0000
  C   C247      1.0  0.62831  0.60902  0.05940  1.0000
  C   C248      1.0  0.60943  0.62818  0.05980  1.0000
  H   H115      1.0  0.63221  0.59907  0.11694  1.0000
  H   H116      1.0  0.59963  0.63212  0.11762  1.0000
  C   C249      1.0  0.63774  0.35109  0.26180  1.0000
  C   C250      1.0  0.65703  0.37005  0.26221  1.0000
  H   H117      1.0  0.66830  0.37196  0.20637  1.0000
  H   H118      1.0  0.63575  0.33995  0.20567  1.0000
  C   C251      1.0  0.60850  0.38029  0.05942  1.0000
  C   C252      1.0  0.62762  0.39921  0.05966  1.0000
  H   H119      1.0  0.59856  0.37639  0.11700  1.0000
  H   H120      1.0  0.63155  0.40904  0.11743  1.0000
  C   C253      1.0  0.37016  0.65818  0.26178  1.0000
  C   C254      1.0  0.35088  0.63921  0.26225  1.0000
  H   H121      1.0  0.33960  0.63729  0.20644  1.0000
  H   H122      1.0  0.37213  0.66932  0.20565  1.0000
  C   C255      1.0  0.39961  0.62892  0.05917  1.0000
  C   C256      1.0  0.38050  0.60999  0.05947  1.0000
  H   H123      1.0  0.40955  0.63282  0.11673  1.0000
  H   H124      1.0  0.37658  0.60016  0.11725  1.0000
  C   C257      1.0  0.09041  0.05896  0.34677  1.0000
  C   C258      1.0  0.06436  0.06576  0.35018  1.0000
  C   C259      1.0  0.05662  0.09155  0.34817  1.0000
  C   C260      1.0  0.07527  0.11084  0.34069  1.0000
  C   C261      1.0  0.10147  0.10442  0.33757  1.0000
  C   C262      1.0  0.10892  0.07845  0.34052  1.0000
  H   H125      1.0  0.06979  0.12963  0.34085  1.0000
  H   H126      1.0  0.12791  0.07372  0.34010  1.0000
  H   H127      1.0  0.05077  0.05167  0.35394  1.0000
  C   C263      1.0  0.91841  0.94944  0.34635  1.0000
  C   C264      1.0  0.94444  0.94255  0.34971  1.0000
  C   C265      1.0  0.95209  0.91673  0.34776  1.0000
  C   C266      1.0  0.93336  0.89750  0.34026  1.0000
  C   C267      1.0  0.90718  0.90403  0.33733  1.0000
  C   C268      1.0  0.89983  0.93002  0.34020  1.0000
  H   H128      1.0  0.93876  0.87869  0.34061  1.0000
  H   H129      1.0  0.88085  0.93483  0.33985  1.0000
  H   H130      1.0  0.95807  0.95660  0.35343  1.0000
  C   C269      1.0  0.94959  0.09019  0.34673  1.0000
  C   C270      1.0  0.94274  0.06415  0.35005  1.0000
  C   C271      1.0  0.91693  0.05647  0.34806  1.0000
  C   C272      1.0  0.89768  0.07517  0.34054  1.0000
  C   C273      1.0  0.90417  0.10135  0.33764  1.0000
  C   C274      1.0  0.93015  0.10875  0.34059  1.0000
  H   H131      1.0  0.87888  0.06973  0.34084  1.0000
  H   H132      1.0  0.93493  0.12772  0.34028  1.0000
  H   H133      1.0  0.95680  0.05053  0.35375  1.0000
  C   C275      1.0  0.05911  0.91819  0.34636  1.0000
  C   C276      1.0  0.06595  0.94424  0.34982  1.0000
  C   C277      1.0  0.09176  0.95194  0.34787  1.0000
  C   C278      1.0  0.11102  0.93324  0.34038  1.0000
  C   C279      1.0  0.10455  0.90706  0.33730  1.0000
  C   C280      1.0  0.07857  0.89965  0.34017  1.0000
  H   H134      1.0  0.12982  0.93869  0.34067  1.0000
  H   H135      1.0  0.07380  0.88067  0.33969  1.0000
  H   H136      1.0  0.05188  0.95784  0.35356  1.0000
  C   C281      1.0  0.17792  0.18123  0.34356  1.0000
  C   C282      1.0  0.20391  0.17409  0.34617  1.0000
  C   C283      1.0  0.22350  0.19267  0.34438  1.0000
  C   C284      1.0  0.21655  0.21884  0.34217  1.0000
  C   C285      1.0  0.19054  0.22637  0.34099  1.0000
  C   C286      1.0  0.17145  0.20734  0.34066  1.0000
  H   H137      1.0  0.23052  0.23252  0.34117  1.0000
  H   H138      1.0  0.15256  0.21254  0.34007  1.0000
  H   H139      1.0  0.20861  0.15508  0.34702  1.0000
  C   C287      1.0  0.82973  0.82823  0.34322  1.0000
  C   C288      1.0  0.80378  0.83555  0.34560  1.0000
  C   C289      1.0  0.78407  0.81709  0.34387  1.0000
  C   C290      1.0  0.79085  0.79087  0.34197  1.0000
  C   C291      1.0  0.81681  0.78318  0.34107  1.0000
  C   C292      1.0  0.83603  0.80208  0.34071  1.0000
  H   H140      1.0  0.77679  0.77728  0.34102  1.0000
  H   H141      1.0  0.85488  0.79675  0.34028  1.0000
  H   H142      1.0  0.79921  0.85459  0.34630  1.0000
  C   C293      1.0  0.82787  0.17831  0.34373  1.0000
  C   C294      1.0  0.83511  0.20429  0.34617  1.0000
  C   C295      1.0  0.81658  0.22394  0.34445  1.0000
  C   C296      1.0  0.79039  0.21708  0.34253  1.0000
  C   C297      1.0  0.78278  0.19110  0.34156  1.0000
  C   C298      1.0  0.80174  0.17193  0.34114  1.0000
  H   H143      1.0  0.77676  0.23110  0.34160  1.0000
  H   H144      1.0  0.79647  0.15307  0.34064  1.0000
  H   H145      1.0  0.85413  0.20893  0.34690  1.0000
  C   C299      1.0  0.18088  0.83013  0.34299  1.0000
  C   C300      1.0  0.17366  0.80415  0.34552  1.0000
  C   C301      1.0  0.19218  0.78450  0.34371  1.0000
  C   C302      1.0  0.21838  0.79138  0.34152  1.0000
  C   C303      1.0  0.22598  0.81737  0.34041  1.0000
  C   C304      1.0  0.20700  0.83652  0.34018  1.0000
  H   H146      1.0  0.23201  0.77737  0.34051  1.0000
  H   H147      1.0  0.21226  0.85539  0.33963  1.0000
  H   H148      1.0  0.15463  0.79952  0.34640  1.0000
  C   C305      1.0  0.44918  0.00554  0.33989  1.0000
  C   C306      1.0  0.43556  0.98230  0.33308  1.0000
  C   C307      1.0  0.40853  0.98141  0.33452  1.0000
  C   C308      1.0  0.39520  0.00512  0.34127  1.0000
  C   C309      1.0  0.40818  0.02903  0.34759  1.0000
  C   C310      1.0  0.43524  0.02857  0.34790  1.0000
  H   H149      1.0  0.37566  0.00496  0.34142  1.0000
  H   H150      1.0  0.44508  0.04548  0.35041  1.0000
  H   H151      1.0  0.44564  0.96555  0.32937  1.0000
  C   C311      1.0  0.55862  0.00462  0.34061  1.0000
  C   C312      1.0  0.57244  0.02778  0.33755  1.0000
  C   C313      1.0  0.59948  0.02830  0.33698  1.0000
  C   C314      1.0  0.61258  0.00441  0.34067  1.0000
  C   C315      1.0  0.59933  0.98060  0.34441  1.0000
  C   C316      1.0  0.57228  0.98133  0.34374  1.0000
  H   H152      1.0  0.63212  0.00436  0.34044  1.0000
  H   H153      1.0  0.56224  0.96453  0.34483  1.0000
  H   H154      1.0  0.56252  0.04465  0.33549  1.0000
  C   C317      1.0  0.00308  0.44994  0.34010  1.0000
  C   C318      1.0  0.02632  0.43632  0.33322  1.0000
  C   C319      1.0  0.02720  0.40929  0.33472  1.0000
  C   C320      1.0  0.00350  0.39596  0.34149  1.0000
  C   C321      1.0  0.97959  0.40895  0.34777  1.0000
  C   C322      1.0  0.98005  0.43601  0.34814  1.0000
  H   H155      1.0  0.00365  0.37642  0.34163  1.0000
  H   H156      1.0  0.96314  0.44585  0.35065  1.0000
  H   H157      1.0  0.04307  0.44640  0.32953  1.0000
  C   C323      1.0  0.00400  0.55939  0.34020  1.0000
  C   C324      1.0  0.98083  0.57320  0.33724  1.0000
  C   C325      1.0  0.98029  0.60024  0.33669  1.0000
  C   C326      1.0  0.00417  0.61335  0.34035  1.0000
  C   C327      1.0  0.02799  0.60011  0.34394  1.0000
  C   C328      1.0  0.02727  0.57306  0.34326  1.0000
  H   H158      1.0  0.00422  0.63289  0.34020  1.0000
  H   H159      1.0  0.04408  0.56302  0.34434  1.0000
  H   H160      1.0  0.96396  0.56327  0.33526  1.0000
  C   C329      1.0  0.27910  0.41442  0.33961  1.0000
  C   C330      1.0  0.29992  0.39716  0.33318  1.0000
  C   C331      1.0  0.32571  0.40553  0.33668  1.0000
  C   C332      1.0  0.33018  0.43229  0.34366  1.0000
  C   C333      1.0  0.30984  0.45026  0.34858  1.0000
  C   C334      1.0  0.28452  0.44079  0.34749  1.0000
  H   H161      1.0  0.34860  0.43884  0.34516  1.0000
  H   H162      1.0  0.26960  0.45345  0.35005  1.0000
  H   H163      1.0  0.29617  0.37799  0.32935  1.0000
  C   C335      1.0  0.72871  0.59480  0.33991  1.0000
  C   C336      1.0  0.70789  0.61204  0.33350  1.0000
  C   C337      1.0  0.68211  0.60364  0.33673  1.0000
  C   C338      1.0  0.67766  0.57687  0.34357  1.0000
  C   C339      1.0  0.69801  0.55892  0.34854  1.0000
  C   C340      1.0  0.72333  0.56843  0.34763  1.0000
  H   H164      1.0  0.65925  0.57031  0.34496  1.0000
  H   H165      1.0  0.73826  0.55578  0.35022  1.0000
  H   H166      1.0  0.71162  0.63122  0.32977  1.0000
  C   C341      1.0  0.59423  0.27982  0.34010  1.0000
  C   C342      1.0  0.61146  0.30066  0.33363  1.0000
  C   C343      1.0  0.60303  0.32643  0.33685  1.0000
  C   C344      1.0  0.57626  0.33086  0.34366  1.0000
  C   C345      1.0  0.55833  0.31049  0.34866  1.0000
  C   C346      1.0  0.56786  0.28518  0.34784  1.0000
  H   H167      1.0  0.56968  0.34926  0.34498  1.0000
  H   H168      1.0  0.55522  0.27024  0.35044  1.0000
  H   H169      1.0  0.63064  0.29695  0.32987  1.0000
  C   C347      1.0  0.41385  0.72942  0.33948  1.0000
  C   C348      1.0  0.39658  0.70862  0.33315  1.0000
  C   C349      1.0  0.40494  0.68282  0.33663  1.0000
  C   C350      1.0  0.43170  0.67834  0.34357  1.0000
  C   C351      1.0  0.44968  0.69867  0.34849  1.0000
  C   C352      1.0  0.44022  0.72399  0.34730  1.0000
  H   H170      1.0  0.43823  0.65992  0.34510  1.0000
  H   H171      1.0  0.45289  0.73890  0.34987  1.0000
  H   H172      1.0  0.37741  0.71237  0.32932  1.0000
  C   C353      1.0  0.72866  0.41276  0.34127  1.0000
  C   C354      1.0  0.70771  0.39561  0.33795  1.0000
  C   C355      1.0  0.68201  0.40430  0.33841  1.0000
  C   C356      1.0  0.67778  0.43113  0.34291  1.0000
  C   C357      1.0  0.69827  0.44893  0.34672  1.0000
  C   C358      1.0  0.72353  0.43925  0.34544  1.0000
  H   H173      1.0  0.65941  0.43785  0.34363  1.0000
  H   H174      1.0  0.73856  0.45177  0.34752  1.0000
  H   H175      1.0  0.71128  0.37639  0.33560  1.0000
  C   C359      1.0  0.27931  0.59633  0.34095  1.0000
  C   C360      1.0  0.30022  0.61353  0.33771  1.0000
  C   C361      1.0  0.32595  0.60490  0.33839  1.0000
  C   C362      1.0  0.33024  0.57808  0.34305  1.0000
  C   C363      1.0  0.30977  0.56024  0.34679  1.0000
  C   C364      1.0  0.28450  0.56986  0.34527  1.0000
  H   H176      1.0  0.34861  0.57139  0.34392  1.0000
  H   H177      1.0  0.26949  0.55730  0.34730  1.0000
  H   H178      1.0  0.29662  0.63274  0.33526  1.0000
  C   C365      1.0  0.41220  0.28001  0.34095  1.0000
  C   C366      1.0  0.39504  0.30094  0.33760  1.0000
  C   C367      1.0  0.40370  0.32665  0.33812  1.0000
  C   C368      1.0  0.43054  0.33090  0.34271  1.0000
  C   C369      1.0  0.44835  0.31041  0.34652  1.0000
  C   C370      1.0  0.43868  0.28515  0.34519  1.0000
  H   H179      1.0  0.43724  0.34926  0.34351  1.0000
  H   H180      1.0  0.45121  0.27012  0.34731  1.0000
  H   H181      1.0  0.37582  0.29736  0.33524  1.0000
  C   C371      1.0  0.59576  0.72936  0.34129  1.0000
  C   C372      1.0  0.61295  0.70844  0.33805  1.0000
  C   C373      1.0  0.60431  0.68272  0.33867  1.0000
  C   C374      1.0  0.57749  0.67844  0.34324  1.0000
  C   C375      1.0  0.55965  0.69890  0.34693  1.0000
  C   C376      1.0  0.56929  0.72417  0.34552  1.0000
  H   H182      1.0  0.57080  0.66007  0.34404  1.0000
  H   H183      1.0  0.55673  0.73919  0.34752  1.0000
  H   H184      1.0  0.63217  0.71203  0.33565  1.0000
  C   C377      1.0  0.15883  0.33060  0.34223  1.0000
  C   C378      1.0  0.18011  0.34704  0.33909  1.0000
  C   C379      1.0  0.17746  0.37382  0.33441  1.0000
  C   C380      1.0  0.15236  0.38423  0.33404  1.0000
  C   C381      1.0  0.13026  0.36834  0.33729  1.0000
  C   C382      1.0  0.13404  0.34147  0.34086  1.0000
  H   H185      1.0  0.15018  0.40364  0.33177  1.0000
  H   H186      1.0  0.11853  0.32956  0.34263  1.0000
  H   H187      1.0  0.19810  0.33923  0.33967  1.0000
  C   C383      1.0  0.84865  0.67901  0.34327  1.0000
  C   C384      1.0  0.82743  0.66248  0.34006  1.0000
  C   C385      1.0  0.83021  0.63572  0.33567  1.0000
  C   C386      1.0  0.85535  0.62541  0.33572  1.0000
  C   C387      1.0  0.87738  0.64139  0.33907  1.0000
  C   C388      1.0  0.87348  0.66826  0.34230  1.0000
  H   H188      1.0  0.85761  0.60601  0.33359  1.0000
  H   H189      1.0  0.88894  0.68023  0.34405  1.0000
  H   H190      1.0  0.80941  0.67021  0.34036  1.0000
  C   C389      1.0  0.67847  0.15974  0.34289  1.0000
  C   C390      1.0  0.66202  0.18102  0.33975  1.0000
  C   C391      1.0  0.63524  0.17833  0.33554  1.0000
  C   C392      1.0  0.62485  0.15322  0.33559  1.0000
  C   C393      1.0  0.64076  0.13115  0.33889  1.0000
  C   C394      1.0  0.66763  0.13495  0.34205  1.0000
  H   H191      1.0  0.60544  0.15102  0.33356  1.0000
  H   H192      1.0  0.67956  0.11945  0.34386  1.0000
  H   H193      1.0  0.66981  0.19901  0.34005  1.0000
  C   C395      1.0  0.33007  0.84958  0.34240  1.0000
  C   C396      1.0  0.34658  0.82835  0.33930  1.0000
  C   C397      1.0  0.37334  0.83110  0.33459  1.0000
  C   C398      1.0  0.38367  0.85623  0.33416  1.0000
  C   C399      1.0  0.36772  0.87828  0.33741  1.0000
  C   C400      1.0  0.34085  0.87440  0.34100  1.0000
  H   H194      1.0  0.40308  0.85847  0.33183  1.0000
  H   H195      1.0  0.32890  0.88987  0.34270  1.0000
  H   H196      1.0  0.33883  0.81034  0.33987  1.0000
  C   C401      1.0  0.84885  0.32823  0.33236  1.0000
  C   C402      1.0  0.82747  0.34456  0.33582  1.0000
  C   C403      1.0  0.82998  0.37133  0.34221  1.0000
  C   C404      1.0  0.85500  0.38188  0.34421  1.0000
  C   C405      1.0  0.87721  0.36616  0.34078  1.0000
  C   C406      1.0  0.87357  0.33928  0.33550  1.0000
  H   H197      1.0  0.85705  0.40129  0.34791  1.0000
  H   H198      1.0  0.88916  0.32748  0.33426  1.0000
  H   H199      1.0  0.80952  0.33668  0.33485  1.0000
  C   C407      1.0  0.15903  0.68046  0.33119  1.0000
  C   C408      1.0  0.18037  0.66409  0.33507  1.0000
  C   C409      1.0  0.17783  0.63732  0.34113  1.0000
  C   C410      1.0  0.15278  0.62680  0.34224  1.0000
  C   C411      1.0  0.13059  0.64255  0.33837  1.0000
  C   C412      1.0  0.13429  0.66944  0.33348  1.0000
  H   H200      1.0  0.15070  0.60739  0.34562  1.0000
  H   H201      1.0  0.11872  0.68126  0.33191  1.0000
  H   H202      1.0  0.19834  0.67194  0.33457  1.0000
  C   C413      1.0  0.32766  0.15997  0.33180  1.0000
  C   C414      1.0  0.34407  0.18130  0.33532  1.0000
  C   C415      1.0  0.37083  0.17870  0.34182  1.0000
  C   C416      1.0  0.38129  0.15364  0.34386  1.0000
  C   C417      1.0  0.36550  0.13148  0.34038  1.0000
  C   C418      1.0  0.33862  0.13522  0.33503  1.0000
  H   H203      1.0  0.40069  0.15153  0.34762  1.0000
  H   H204      1.0  0.32677  0.11967  0.33382  1.0000
  H   H205      1.0  0.33625  0.19928  0.33434  1.0000
  C   C419      1.0  0.67990  0.84978  0.33156  1.0000
  C   C420      1.0  0.66360  0.82838  0.33548  1.0000
  C   C421      1.0  0.63682  0.83083  0.34151  1.0000
  C   C422      1.0  0.62622  0.85584  0.34262  1.0000
  C   C423      1.0  0.64189  0.87808  0.33879  1.0000
  C   C424      1.0  0.66879  0.87448  0.33394  1.0000
  H   H206      1.0  0.60680  0.85786  0.34597  1.0000
  H   H207      1.0  0.68056  0.89010  0.33236  1.0000
  H   H208      1.0  0.67152  0.81044  0.33501  1.0000
  C   C425      1.0  0.15844  0.16247  0.34433  1.0000
  C   C426      1.0  0.15327  0.14788  0.42230  1.0000
  C   C427      1.0  0.13415  0.12861  0.42023  1.0000
  C   C428      1.0  0.12014  0.12392  0.34061  1.0000
  N   N45       1.0  0.12917  0.11553  0.49732  1.0000
  C   C429      1.0  0.14151  0.11995  0.57584  1.0000
  C   C430      1.0  0.16047  0.13921  0.57822  1.0000
  N   N46       1.0  0.16553  0.15233  0.50156  1.0000
  C   C431      1.0  0.13550  0.10615  0.65413  1.0000
  C   C432      1.0  0.17321  0.14452  0.65936  1.0000
  H   H209      1.0  0.12127  0.09285  0.65284  1.0000
  H   H210      1.0  0.18613  0.15902  0.66245  1.0000
  C   C433      1.0  0.84939  0.84680  0.34392  1.0000
  C   C434      1.0  0.85481  0.86125  0.42201  1.0000
  C   C435      1.0  0.87427  0.88017  0.42009  1.0000
  C   C436      1.0  0.88838  0.88466  0.34053  1.0000
  N   N47       1.0  0.87947  0.89313  0.49725  1.0000
  C   C437      1.0  0.86704  0.88891  0.57572  1.0000
  C   C438      1.0  0.84772  0.87000  0.57793  1.0000
  N   N48       1.0  0.84244  0.85700  0.50120  1.0000
  C   C439      1.0  0.87329  0.90256  0.65408  1.0000
  C   C440      1.0  0.83485  0.86491  0.65900  1.0000
  H   H211      1.0  0.88778  0.91558  0.65292  1.0000
  H   H212      1.0  0.82164  0.85068  0.66197  1.0000
  C   C441      1.0  0.84654  0.15875  0.34443  1.0000
  C   C442      1.0  0.86106  0.15344  0.42243  1.0000
  C   C443      1.0  0.88015  0.13415  0.42041  1.0000
  C   C444      1.0  0.88473  0.12009  0.34080  1.0000
  N   N49       1.0  0.89317  0.12905  0.49751  1.0000
  C   C445      1.0  0.88886  0.14142  0.57603  1.0000
  C   C446      1.0  0.86978  0.16056  0.57837  1.0000
  N   N50       1.0  0.85671  0.16575  0.50168  1.0000
  C   C447      1.0  0.90259  0.13528  0.65434  1.0000
  C   C448      1.0  0.86458  0.17336  0.65949  1.0000
  H   H213      1.0  0.91575  0.12092  0.65307  1.0000
  H   H214      1.0  0.85021  0.18642  0.66256  1.0000
  C   C449      1.0  0.16221  0.84969  0.34381  1.0000
  C   C450      1.0  0.14769  0.85497  0.42187  1.0000
  C   C451      1.0  0.12860  0.87426  0.41994  1.0000
  C   C452      1.0  0.12399  0.88832  0.34037  1.0000
  N   N51       1.0  0.11558  0.87933  0.49708  1.0000
  C   C453      1.0  0.11991  0.86693  0.57555  1.0000
  C   C454      1.0  0.13900  0.84780  0.57779  1.0000
  N   N52       1.0  0.15205  0.84264  0.50106  1.0000
  C   C455      1.0  0.10618  0.87304  0.65390  1.0000
  C   C456      1.0  0.14421  0.83498  0.65886  1.0000
  H   H215      1.0  0.09302  0.88740  0.65272  1.0000
  H   H216      1.0  0.15858  0.82192  0.66184  1.0000
  C   C457      1.0  0.09028  0.01893  0.42942  1.0000
  C   C458      1.0  0.09045  0.99214  0.42979  1.0000
  H   H217      1.0  0.08387  0.98279  0.48569  1.0000
  H   H218      1.0  0.08350  0.02825  0.48508  1.0000
  C   C459      1.0  0.12955  0.01831  0.62746  1.0000
  C   C460      1.0  0.12960  0.99142  0.62801  1.0000
  H   H219      1.0  0.13423  0.02799  0.57009  1.0000
  H   H220      1.0  0.13432  0.98159  0.57098  1.0000
  C   C461      1.0  0.91856  0.98945  0.42909  1.0000
  C   C462      1.0  0.91830  0.01623  0.42965  1.0000
  H   H221      1.0  0.92491  0.02556  0.48556  1.0000
  H   H222      1.0  0.92539  0.98011  0.48464  1.0000
  C   C463      1.0  0.87933  0.99022  0.62711  1.0000
  C   C464      1.0  0.87921  0.01711  0.62784  1.0000
  H   H223      1.0  0.87467  0.98056  0.56966  1.0000
  H   H224      1.0  0.87447  0.02695  0.57085  1.0000
  C   C465      1.0  0.98960  0.09001  0.42952  1.0000
  C   C466      1.0  0.01639  0.09019  0.42997  1.0000
  H   H225      1.0  0.02573  0.08362  0.48590  1.0000
  H   H226      1.0  0.98026  0.08324  0.48515  1.0000
  C   C467      1.0  0.99034  0.12927  0.62752  1.0000
  C   C468      1.0  0.01723  0.12933  0.62818  1.0000
  H   H227      1.0  0.98067  0.13395  0.57011  1.0000
  H   H228      1.0  0.02707  0.13405  0.57117  1.0000
  C   C469      1.0  0.01909  0.91830  0.42900  1.0000
  C   C470      1.0  0.99230  0.91805  0.42948  1.0000
  H   H229      1.0  0.98297  0.92467  0.48535  1.0000
  H   H230      1.0  0.02842  0.92513  0.48457  1.0000
  C   C471      1.0  0.01842  0.87905  0.62703  1.0000
  C   C472      1.0  0.99152  0.87894  0.62769  1.0000
  H   H231      1.0  0.02809  0.87438  0.56961  1.0000
  H   H232      1.0  0.98169  0.87420  0.57068  1.0000
  C   C473      1.0  0.17602  0.29288  0.41896  1.0000
  C   C474      1.0  0.18528  0.26763  0.41721  1.0000
  H   H233      1.0  0.19381  0.26038  0.47366  1.0000
  H   H234      1.0  0.17882  0.30351  0.47590  1.0000
  C   C475      1.0  0.13727  0.28113  0.61886  1.0000
  C   C476      1.0  0.14591  0.25566  0.61793  1.0000
  H   H235      1.0  0.12973  0.28905  0.56190  1.0000
  H   H236      1.0  0.14463  0.24511  0.56024  1.0000
  C   C477      1.0  0.83131  0.71672  0.41948  1.0000
  C   C478      1.0  0.82199  0.74195  0.41750  1.0000
  H   H237      1.0  0.81349  0.74923  0.47396  1.0000
  H   H238      1.0  0.82857  0.70613  0.47654  1.0000
  C   C479      1.0  0.86990  0.72824  0.61911  1.0000
  C   C480      1.0  0.86125  0.75371  0.61806  1.0000
  H   H239      1.0  0.87744  0.72030  0.56218  1.0000
  H   H240      1.0  0.86253  0.76424  0.56032  1.0000
  C   C481      1.0  0.71622  0.17687  0.41951  1.0000
  C   C482      1.0  0.74151  0.18602  0.41779  1.0000
  H   H241      1.0  0.74879  0.19450  0.47427  1.0000
  H   H242      1.0  0.70559  0.17968  0.47646  1.0000
  C   C483      1.0  0.72786  0.13826  0.61917  1.0000
  C   C484      1.0  0.75339  0.14673  0.61839  1.0000
  H   H243      1.0  0.71991  0.13079  0.56215  1.0000
  H   H244      1.0  0.76394  0.14541  0.56074  1.0000
  C   C485      1.0  0.29239  0.83216  0.41873  1.0000
  C   C486      1.0  0.26721  0.82273  0.41676  1.0000
  H   H245      1.0  0.25997  0.81418  0.47320  1.0000
  H   H246      1.0  0.30300  0.82944  0.47577  1.0000
  C   C487      1.0  0.28072  0.87086  0.61861  1.0000
  C   C488      1.0  0.25531  0.86205  0.61744  1.0000
  H   H247      1.0  0.28862  0.87847  0.56174  1.0000
  H   H248      1.0  0.24479  0.86328  0.55967  1.0000
  C   C489      1.0  0.82479  0.24993  0.34312  1.0000
  C   C490      1.0  0.83688  0.26142  0.41815  1.0000
  C   C491      1.0  0.84647  0.28688  0.41294  1.0000
  C   C492      1.0  0.84418  0.30131  0.33275  1.0000
  N   N53       1.0  0.85691  0.29728  0.48828  1.0000
  C   C493      1.0  0.85861  0.28470  0.56771  1.0000
  C   C494      1.0  0.84869  0.25961  0.57345  1.0000
  N   N54       1.0  0.83832  0.24905  0.49858  1.0000
  C   C495      1.0  0.86950  0.29625  0.64390  1.0000
  C   C496      1.0  0.84935  0.24652  0.65605  1.0000
  H   H249      1.0  0.87647  0.31434  0.63961  1.0000
  H   H250      1.0  0.84124  0.22893  0.66160  1.0000
  C   C497      1.0  0.18390  0.75852  0.34246  1.0000
  C   C498      1.0  0.17168  0.74712  0.41741  1.0000
  C   C499      1.0  0.16174  0.72179  0.41201  1.0000
  C   C500      1.0  0.16382  0.70737  0.33171  1.0000
  N   N55       1.0  0.15112  0.71150  0.48724  1.0000
  C   C501      1.0  0.14959  0.72406  0.56676  1.0000
  C   C502      1.0  0.15992  0.74898  0.57274  1.0000
  N   N56       1.0  0.17044  0.75944  0.49795  1.0000
  C   C503      1.0  0.13845  0.71267  0.64281  1.0000
  C   C504      1.0  0.15947  0.76203  0.65544  1.0000
  H   H251      1.0  0.13111  0.69474  0.63832  1.0000
  H   H252      1.0  0.16788  0.77948  0.66116  1.0000
  C   C505      1.0  0.24951  0.18449  0.34308  1.0000
  C   C506      1.0  0.26098  0.17234  0.41804  1.0000
  C   C507      1.0  0.28638  0.16259  0.41264  1.0000
  C   C508      1.0  0.30076  0.16479  0.33232  1.0000
  N   N57       1.0  0.29675  0.15208  0.48790  1.0000
  C   C509      1.0  0.28421  0.15046  0.56741  1.0000
  C   C510      1.0  0.25919  0.16054  0.57335  1.0000
  N   N58       1.0  0.24865  0.17098  0.49855  1.0000
  C   C511      1.0  0.29574  0.13947  0.64349  1.0000
  C   C512      1.0  0.24614  0.15995  0.65604  1.0000
  H   H253      1.0  0.31377  0.13238  0.63906  1.0000
  H   H254      1.0  0.22861  0.16818  0.66174  1.0000
  C   C513      1.0  0.75810  0.82540  0.34252  1.0000
  C   C514      1.0  0.74667  0.83756  0.41753  1.0000
  C   C515      1.0  0.72127  0.84732  0.41229  1.0000
  C   C516      1.0  0.70683  0.84512  0.33209  1.0000
  N   N59       1.0  0.71094  0.85787  0.48759  1.0000
  C   C517      1.0  0.72353  0.85949  0.56702  1.0000
  C   C518      1.0  0.74853  0.84934  0.57283  1.0000
  N   N60       1.0  0.75902  0.83890  0.49798  1.0000
  C   C519      1.0  0.71210  0.87054  0.64316  1.0000
  C   C520      1.0  0.76162  0.84989  0.65544  1.0000
  H   H255      1.0  0.69411  0.87773  0.63881  1.0000
  H   H256      1.0  0.77915  0.84163  0.66102  1.0000
  C   C521      1.0  0.39809  0.07071  0.42099  1.0000
  C   C522      1.0  0.38845  0.09599  0.41828  1.0000
  H   H257      1.0  0.39062  0.10729  0.47390  1.0000
  H   H258      1.0  0.40731  0.06479  0.47796  1.0000
  C   C523      1.0  0.36238  0.05287  0.62218  1.0000
  C   C524      1.0  0.35362  0.07828  0.61861  1.0000
  H   H259      1.0  0.36199  0.04176  0.56567  1.0000
  H   H260      1.0  0.34685  0.08562  0.55954  1.0000
  C   C525      1.0  0.60921  0.93896  0.41794  1.0000
  C   C526      1.0  0.61883  0.91366  0.41573  1.0000
  H   H261      1.0  0.61671  0.90248  0.47167  1.0000
  H   H262      1.0  0.60007  0.94501  0.47491  1.0000
  C   C527      1.0  0.64457  0.95584  0.61839  1.0000
  C   C528      1.0  0.65337  0.93044  0.61545  1.0000
  H   H263      1.0  0.64496  0.96685  0.56161  1.0000
  H   H264      1.0  0.66018  0.92300  0.55659  1.0000
  C   C529      1.0  0.93794  0.39883  0.42125  1.0000
  C   C530      1.0  0.91267  0.38917  0.41860  1.0000
  H   H265      1.0  0.90138  0.39132  0.47425  1.0000
  H   H266      1.0  0.94387  0.40805  0.47823  1.0000
  C   C531      1.0  0.95576  0.36305  0.62247  1.0000
  C   C532      1.0  0.93034  0.35430  0.61893  1.0000
  H   H267      1.0  0.96687  0.36264  0.56595  1.0000
  H   H268      1.0  0.92300  0.34752  0.55987  1.0000
  C   C533      1.0  0.06965  0.60996  0.41748  1.0000
  C   C534      1.0  0.09497  0.61954  0.41529  1.0000
  H   H269      1.0  0.10615  0.61739  0.47120  1.0000
  H   H270      1.0  0.06361  0.60080  0.47443  1.0000
  C   C535      1.0  0.05283  0.64528  0.61794  1.0000
  C   C536      1.0  0.07823  0.65407  0.61501  1.0000
  H   H271      1.0  0.04183  0.64567  0.56116  1.0000
  H   H272      1.0  0.08568  0.66087  0.55615  1.0000
  C   C537      1.0  0.63054  0.10548  0.33983  1.0000
  C   C538      1.0  0.63266  0.08922  0.41590  1.0000
  C   C539      1.0  0.62355  0.06343  0.41408  1.0000
  C   C540      1.0  0.61202  0.05294  0.33604  1.0000
  N   N61       1.0  0.62510  0.04947  0.49106  1.0000
  C   C541      1.0  0.63478  0.05873  0.56907  1.0000
  C   C542      1.0  0.64349  0.08431  0.57119  1.0000
  N   N62       1.0  0.64208  0.09838  0.49482  1.0000
  C   C543      1.0  0.63575  0.04372  0.64741  1.0000
  C   C544      1.0  0.65276  0.09476  0.65194  1.0000
  H   H273      1.0  0.62916  0.02542  0.64617  1.0000
  H   H274      1.0  0.65811  0.11347  0.65431  1.0000
  C   C545      1.0  0.37789  0.90398  0.33804  1.0000
  C   C546      1.0  0.37576  0.92028  0.41399  1.0000
  C   C547      1.0  0.38482  0.94610  0.41193  1.0000
  C   C548      1.0  0.39624  0.95664  0.33375  1.0000
  N   N63       1.0  0.38339  0.96005  0.48894  1.0000
  C   C549      1.0  0.37383  0.95080  0.56712  1.0000
  C   C550      1.0  0.36506  0.92524  0.56940  1.0000
  N   N64       1.0  0.36639  0.91115  0.49305  1.0000
  C   C551      1.0  0.37303  0.96582  0.64545  1.0000
  C   C552      1.0  0.35581  0.91484  0.65028  1.0000
  H   H275      1.0  0.37972  0.98409  0.64406  1.0000
  H   H276      1.0  0.35035  0.89616  0.65273  1.0000
  C   C553      1.0  0.10459  0.37858  0.33801  1.0000
  C   C554      1.0  0.08830  0.37646  0.41399  1.0000
  C   C555      1.0  0.06249  0.38555  0.41201  1.0000
  C   C556      1.0  0.05198  0.39700  0.33385  1.0000
  N   N65       1.0  0.04855  0.38411  0.48904  1.0000
  C   C557      1.0  0.05780  0.37451  0.56717  1.0000
  C   C558      1.0  0.08335  0.36573  0.56938  1.0000
  N   N66       1.0  0.09743  0.36707  0.49301  1.0000
  C   C559      1.0  0.04279  0.37371  0.64552  1.0000
  C   C560      1.0  0.09376  0.35645  0.65021  1.0000
  H   H277      1.0  0.02452  0.38041  0.64418  1.0000
  H   H278      1.0  0.11243  0.35098  0.65262  1.0000
  C   C561      1.0  0.90307  0.63123  0.33988  1.0000
  C   C562      1.0  0.91935  0.63336  0.41590  1.0000
  C   C563      1.0  0.94515  0.62426  0.41401  1.0000
  C   C564      1.0  0.95564  0.61276  0.33594  1.0000
  N   N67       1.0  0.95912  0.62580  0.49096  1.0000
  C   C565      1.0  0.94987  0.63545  0.56902  1.0000
  C   C566      1.0  0.92428  0.64415  0.57122  1.0000
  N   N68       1.0  0.91020  0.64276  0.49488  1.0000
  C   C567      1.0  0.96490  0.63641  0.64733  1.0000
  C   C568      1.0  0.91385  0.65341  0.65202  1.0000
  H   H279      1.0  0.98319  0.62982  0.64603  1.0000
  H   H280      1.0  0.89514  0.65876  0.65444  1.0000
  C   C569      1.0  0.49051  0.01364  0.41386  1.0000
  C   C570      1.0  0.51743  0.01325  0.41426  1.0000
  H   H281      1.0  0.52684  0.01893  0.47120  1.0000
  H   H282      1.0  0.48116  0.01948  0.47071  1.0000
  C   C571      1.0  0.49051  0.97169  0.61544  1.0000
  C   C572      1.0  0.51741  0.97132  0.61584  1.0000
  H   H283      1.0  0.48078  0.96722  0.55794  1.0000
  H   H284      1.0  0.52715  0.96659  0.55862  1.0000
  C   C573      1.0  0.99498  0.49131  0.41384  1.0000
  C   C574      1.0  0.99537  0.51823  0.41408  1.0000
  H   H285      1.0  0.98970  0.52766  0.47098  1.0000
  H   H286      1.0  0.98915  0.48198  0.47077  1.0000
  C   C575      1.0  0.03694  0.49105  0.61545  1.0000
  C   C576      1.0  0.03731  0.51796  0.61566  1.0000
  H   H287      1.0  0.04140  0.48129  0.55801  1.0000
  H   H288      1.0  0.04204  0.52766  0.55837  1.0000
  C   C577      1.0  0.20067  0.38839  0.33253  1.0000
  C   C578      1.0  0.21091  0.39952  0.41167  1.0000
  C   C579      1.0  0.23669  0.40847  0.41421  1.0000
  C   C580      1.0  0.25304  0.40588  0.33860  1.0000
  N   N69       1.0  0.24563  0.41818  0.49308  1.0000
  C   C581      1.0  0.23140  0.41984  0.56905  1.0000
  C   C582      1.0  0.20592  0.41072  0.56681  1.0000
  N   N70       1.0  0.19685  0.40094  0.48855  1.0000
  C   C583      1.0  0.24151  0.43001  0.64915  1.0000
  C   C584      1.0  0.19073  0.41180  0.64487  1.0000
  H   H289      1.0  0.25990  0.43657  0.65120  1.0000
  H   H290      1.0  0.17235  0.40519  0.64384  1.0000
  C   C585      1.0  0.80709  0.62101  0.33361  1.0000
  C   C586      1.0  0.79680  0.60986  0.41261  1.0000
  C   C587      1.0  0.77104  0.60082  0.41491  1.0000
  C   C588      1.0  0.75475  0.60338  0.33915  1.0000
  N   N71       1.0  0.76207  0.59107  0.49366  1.0000
  C   C589      1.0  0.77625  0.58944  0.56975  1.0000
  C   C590      1.0  0.80170  0.59865  0.56778  1.0000
  N   N72       1.0  0.81080  0.60847  0.48962  1.0000
  C   C591      1.0  0.76612  0.57921  0.64974  1.0000
  C   C592      1.0  0.81684  0.59760  0.64597  1.0000
  H   H291      1.0  0.74775  0.57259  0.65160  1.0000
  H   H292      1.0  0.83520  0.60426  0.64512  1.0000
  C   C593      1.0  0.62060  0.20149  0.33353  1.0000
  C   C594      1.0  0.60942  0.21174  0.41257  1.0000
  C   C595      1.0  0.60033  0.23747  0.41496  1.0000
  C   C596      1.0  0.60286  0.25379  0.33926  1.0000
  N   N73       1.0  0.59058  0.24641  0.49377  1.0000
  C   C597      1.0  0.58899  0.23220  0.56982  1.0000
  C   C598      1.0  0.59823  0.20677  0.56775  1.0000
  N   N74       1.0  0.60805  0.19771  0.48954  1.0000
  C   C599      1.0  0.57877  0.24230  0.64987  1.0000
  C   C600      1.0  0.59723  0.19161  0.64589  1.0000
  H   H293      1.0  0.57212  0.26067  0.65181  1.0000
  H   H294      1.0  0.60392  0.17326  0.64497  1.0000
  C   C601      1.0  0.38800  0.80794  0.33262  1.0000
  C   C602      1.0  0.39907  0.79762  0.41172  1.0000
  C   C603      1.0  0.40797  0.77182  0.41421  1.0000
  C   C604      1.0  0.40534  0.75549  0.33857  1.0000
  N   N75       1.0  0.41767  0.76284  0.49305  1.0000
  C   C605      1.0  0.41936  0.77705  0.56905  1.0000
  C   C606      1.0  0.41028  0.80255  0.56689  1.0000
  N   N76       1.0  0.40052  0.81166  0.48865  1.0000
  C   C607      1.0  0.42952  0.76690  0.64912  1.0000
  C   C608      1.0  0.41140  0.81772  0.64498  1.0000
  H   H295      1.0  0.43604  0.74850  0.65111  1.0000
  H   H296      1.0  0.40483  0.83612  0.64399  1.0000
  C   C609      1.0  0.76494  0.39229  0.41865  1.0000
  C   C610      1.0  0.79037  0.38337  0.42031  1.0000
  H   H297      1.0  0.79664  0.37409  0.47677  1.0000
  H   H298      1.0  0.75384  0.38982  0.47464  1.0000
  C   C611      1.0  0.78064  0.42965  0.61921  1.0000
  C   C612      1.0  0.80585  0.42027  0.62030  1.0000
  H   H299      1.0  0.77328  0.43726  0.56143  1.0000
  H   H300      1.0  0.81675  0.42110  0.56332  1.0000
  C   C613      1.0  0.24286  0.61664  0.41801  1.0000
  C   C614      1.0  0.21738  0.62538  0.41949  1.0000
  H   H301      1.0  0.21104  0.63466  0.47585  1.0000
  H   H302      1.0  0.25393  0.61919  0.47405  1.0000
  C   C615      1.0  0.22761  0.57899  0.61867  1.0000
  C   C616      1.0  0.20234  0.58821  0.61959  1.0000
  H   H303      1.0  0.23504  0.57140  0.56097  1.0000
  H   H304      1.0  0.19147  0.58729  0.56256  1.0000
  C   C617      1.0  0.39179  0.24370  0.41836  1.0000
  C   C618      1.0  0.38291  0.21826  0.42004  1.0000
  H   H305      1.0  0.37364  0.21198  0.47648  1.0000
  H   H306      1.0  0.38931  0.25480  0.47435  1.0000
  C   C619      1.0  0.42920  0.22803  0.61894  1.0000
  C   C620      1.0  0.41985  0.20281  0.62005  1.0000
  H   H307      1.0  0.43682  0.23539  0.56118  1.0000
  H   H308      1.0  0.42070  0.19191  0.56307  1.0000
  C   C621      1.0  0.61613  0.76577  0.41835  1.0000
  C   C622      1.0  0.62492  0.79124  0.41984  1.0000
  H   H309      1.0  0.63420  0.79758  0.47620  1.0000
  H   H310      1.0  0.61866  0.75470  0.47439  1.0000
  C   C623      1.0  0.57853  0.78108  0.61898  1.0000
  C   C624      1.0  0.58779  0.80634  0.61990  1.0000
  H   H311      1.0  0.57094  0.77366  0.56127  1.0000
  H   H312      1.0  0.58689  0.81720  0.56287  1.0000
  C   C625      1.0  0.30553  0.51885  0.42587  1.0000
  C   C626      1.0  0.30559  0.49186  0.42642  1.0000
  H   H313      1.0  0.29882  0.48264  0.48225  1.0000
  H   H314      1.0  0.29873  0.52822  0.48135  1.0000
  C   C627      1.0  0.34493  0.51809  0.62592  1.0000
  C   C628      1.0  0.34494  0.49119  0.62650  1.0000
  H   H315      1.0  0.34918  0.52775  0.56808  1.0000
  H   H316      1.0  0.34920  0.48133  0.56909  1.0000
  C   C629      1.0  0.70250  0.49033  0.42567  1.0000
  C   C630      1.0  0.70237  0.51732  0.42626  1.0000
  H   H317      1.0  0.70913  0.52654  0.48208  1.0000
  H   H318      1.0  0.70932  0.48097  0.48112  1.0000
  C   C631      1.0  0.66314  0.49103  0.62570  1.0000
  C   C632      1.0  0.66306  0.51792  0.62630  1.0000
  H   H319      1.0  0.65893  0.48136  0.56784  1.0000
  H   H320      1.0  0.65879  0.52777  0.56888  1.0000
  C   C633      1.0  0.48971  0.30614  0.42570  1.0000
  C   C634      1.0  0.51670  0.30620  0.42634  1.0000
  H   H321      1.0  0.52590  0.29945  0.48223  1.0000
  H   H322      1.0  0.48032  0.29937  0.48116  1.0000
  C   C635      1.0  0.49060  0.34553  0.62573  1.0000
  C   C636      1.0  0.51749  0.34553  0.62638  1.0000
  H   H323      1.0  0.48095  0.34979  0.56786  1.0000
  H   H324      1.0  0.52737  0.34977  0.56899  1.0000
  C   C637      1.0  0.51824  0.70309  0.42584  1.0000
  C   C638      1.0  0.49125  0.70297  0.42636  1.0000
  H   H325      1.0  0.48201  0.70975  0.48214  1.0000
  H   H326      1.0  0.52759  0.70993  0.48131  1.0000
  C   C639      1.0  0.51765  0.66372  0.62590  1.0000
  C   C640      1.0  0.49076  0.66363  0.62641  1.0000
  H   H327      1.0  0.52733  0.65950  0.56807  1.0000
  H   H328      1.0  0.48092  0.65935  0.56897  1.0000
  C   C641      1.0  0.38552  0.34747  0.33715  1.0000
  C   C642      1.0  0.38117  0.36321  0.41335  1.0000
  C   C643      1.0  0.36192  0.38266  0.41304  1.0000
  C   C644      1.0  0.34634  0.38711  0.33643  1.0000
  N   N77       1.0  0.35785  0.39585  0.49058  1.0000
  C   C645      1.0  0.37111  0.39164  0.56751  1.0000
  C   C646      1.0  0.39017  0.37245  0.56771  1.0000
  N   N78       1.0  0.39429  0.35909  0.49100  1.0000
  C   C647      1.0  0.36585  0.40536  0.64670  1.0000
  C   C648      1.0  0.40383  0.36717  0.64703  1.0000
  H   H329      1.0  0.35179  0.41883  0.64710  1.0000
  H   H330      1.0  0.41724  0.35303  0.64771  1.0000
  C   C649      1.0  0.62249  0.66189  0.33769  1.0000
  C   C650      1.0  0.62680  0.64611  0.41379  1.0000
  C   C651      1.0  0.64597  0.62657  0.41327  1.0000
  C   C652      1.0  0.66148  0.62206  0.33653  1.0000
  N   N79       1.0  0.65003  0.61334  0.49073  1.0000
  C   C653      1.0  0.63683  0.61758  0.56776  1.0000
  C   C654      1.0  0.61786  0.63685  0.56818  1.0000
  N   N80       1.0  0.61374  0.65026  0.49155  1.0000
  C   C655      1.0  0.64207  0.60379  0.64683  1.0000
  C   C656      1.0  0.60427  0.64216  0.64763  1.0000
  H   H331      1.0  0.65608  0.59027  0.64706  1.0000
  H   H332      1.0  0.59093  0.65636  0.64848  1.0000
  C   C657      1.0  0.66117  0.38615  0.33741  1.0000
  C   C658      1.0  0.64543  0.38181  0.41360  1.0000
  C   C659      1.0  0.62593  0.36261  0.41321  1.0000
  C   C660      1.0  0.62142  0.34708  0.33652  1.0000
  N   N81       1.0  0.61273  0.35854  0.49075  1.0000
  C   C661      1.0  0.61699  0.37176  0.56774  1.0000
  C   C662      1.0  0.63622  0.39076  0.56802  1.0000
  N   N82       1.0  0.64959  0.39489  0.49132  1.0000
  C   C663      1.0  0.60325  0.36651  0.64691  1.0000
  C   C664      1.0  0.64154  0.40438  0.64741  1.0000
  H   H333      1.0  0.58975  0.35247  0.64724  1.0000
  H   H334      1.0  0.65572  0.41774  0.64814  1.0000
  C   C665      1.0  0.34676  0.62309  0.33743  1.0000
  C   C666      1.0  0.36254  0.62743  0.41354  1.0000
  C   C667      1.0  0.38203  0.64664  0.41310  1.0000
  C   C668      1.0  0.38650  0.66219  0.33643  1.0000
  N   N83       1.0  0.39526  0.65070  0.49057  1.0000
  C   C669      1.0  0.39105  0.63747  0.56755  1.0000
  C   C670      1.0  0.37183  0.61845  0.56789  1.0000
  N   N84       1.0  0.35842  0.61433  0.49124  1.0000
  C   C671      1.0  0.40482  0.64271  0.64665  1.0000
  C   C672      1.0  0.36655  0.60482  0.64728  1.0000
  H   H335      1.0  0.41832  0.65675  0.64696  1.0000
  H   H336      1.0  0.35238  0.59144  0.64806  1.0000
