data_image0
_chemical_formula_structural       C8H2N2O4C8H2N2O4C2H2C2H2C2H2C2H2C2H2C2H2C2H2C2H2C8H2N2O4C8H2N2O4C8H2N2O4C8H2N2O4C2H2C2H2C2H2C2H2C2H2C2H2C2H2C2H2C8H2N2O4C8H2N2O4C8H2N2O4C8H2N2O4C6H3C6H3C6H3C6H3C6H3C6H3C6H3C6H3C6H3C6H3C6H3C6H3C2H2C2H2C2H2C2H2C8H2N2O4C8H2N2O4C8H2N2O4C8H2N2O4C2H2C2H2C2H2C2H2C2H2C2H2C2H2C2H2C8H2N2O4C8H2N2O4C8H2N2O4C8H2N2O4C2H2C2H2C2H2C2H2C2H2C2H2C2H2C2H2
_chemical_formula_sum              "C288 H144 N36 O72"
_cell_length_a       51.8637
_cell_length_b       51.7056
_cell_length_c       14.8772
_cell_angle_alpha    90
_cell_angle_beta     90
_cell_angle_gamma    90.178

_space_group_name_H-M_alt    "P 1"
_space_group_IT_number       1

loop_
  _space_group_symop_operation_xyz
  'x, y, z'

loop_
  _atom_site_type_symbol
  _atom_site_label
  _atom_site_symmetry_multiplicity
  _atom_site_fract_x
  _atom_site_fract_y
  _atom_site_fract_z
  _atom_site_occupancy
  C   C1        1.0  0.05237  0.45444  0.33606  1.0000
  C   C2        1.0  0.05073  0.47261  0.26451  1.0000
  C   C3        1.0  0.03101  0.49160  0.26515  1.0000
  C   C4        1.0  0.01281  0.49319  0.33566  1.0000
  C   C5        1.0  0.99291  0.51233  0.33483  1.0000
  C   C6        1.0  0.97401  0.51342  0.26567  1.0000
  C   C7        1.0  0.95461  0.53273  0.26851  1.0000
  C   C8        1.0  0.95376  0.55150  0.33756  1.0000
  H   H1        1.0  0.94116  0.53327  0.21817  1.0000
  H   H2        1.0  0.03007  0.50454  0.21316  1.0000
  N   N1        1.0  0.97445  0.49482  0.19579  1.0000
  N   N2        1.0  0.06835  0.47103  0.19200  1.0000
  O   O1        1.0  0.97728  0.50535  0.12026  1.0000
  O   O2        1.0  0.08132  0.49148  0.18426  1.0000
  O   O3        1.0  0.95415  0.48150  0.19457  1.0000
  O   O4        1.0  0.05699  0.46667  0.11891  1.0000
  C   C9        1.0  0.55128  0.05132  0.33627  1.0000
  C   C10       1.0  0.53320  0.04978  0.26455  1.0000
  C   C11       1.0  0.51403  0.03013  0.26506  1.0000
  C   C12       1.0  0.51216  0.01192  0.33566  1.0000
  C   C13       1.0  0.49280  0.99213  0.33474  1.0000
  C   C14       1.0  0.49154  0.97315  0.26571  1.0000
  C   C15       1.0  0.47200  0.95387  0.26839  1.0000
  C   C16       1.0  0.45317  0.95324  0.33713  1.0000
  H   H3        1.0  0.47135  0.94033  0.21821  1.0000
  H   H4        1.0  0.50114  0.02927  0.21301  1.0000
  N   N3        1.0  0.51020  0.97336  0.19620  1.0000
  N   N4        1.0  0.53502  0.06747  0.19209  1.0000
  O   O5        1.0  0.49988  0.97622  0.12043  1.0000
  O   O6        1.0  0.51479  0.08059  0.18424  1.0000
  O   O7        1.0  0.52318  0.95288  0.19549  1.0000
  O   O8        1.0  0.53928  0.05606  0.11902  1.0000
  C   C17       1.0  0.06522  0.26463  0.27386  1.0000
  C   C18       1.0  0.05967  0.23795  0.27457  1.0000
  H   H5        1.0  0.07537  0.27218  0.22093  1.0000
  H   H6        1.0  0.06562  0.22695  0.22127  1.0000
  C   C19       1.0  0.06048  0.35067  0.27761  1.0000
  C   C20       1.0  0.05458  0.32405  0.27849  1.0000
  H   H7        1.0  0.05340  0.36185  0.22652  1.0000
  H   H8        1.0  0.04298  0.31676  0.22879  1.0000
  C   C21       1.0  0.94065  0.74093  0.27282  1.0000
  C   C22       1.0  0.94613  0.76762  0.27344  1.0000
  H   H9        1.0  0.93067  0.73332  0.21962  1.0000
  H   H10       1.0  0.94026  0.77857  0.21990  1.0000
  C   C23       1.0  0.94530  0.65497  0.27777  1.0000
  C   C24       1.0  0.95122  0.68158  0.27864  1.0000
  H   H11       1.0  0.95254  0.64374  0.22709  1.0000
  H   H12       1.0  0.96298  0.68881  0.22933  1.0000
  C   C25       1.0  0.74044  0.06474  0.27314  1.0000
  C   C26       1.0  0.76704  0.05934  0.27355  1.0000
  H   H13       1.0  0.73286  0.07477  0.22006  1.0000
  H   H14       1.0  0.77793  0.06527  0.21992  1.0000
  C   C27       1.0  0.65471  0.05985  0.27809  1.0000
  C   C28       1.0  0.68123  0.05400  0.27876  1.0000
  H   H15       1.0  0.64351  0.05270  0.22712  1.0000
  H   H16       1.0  0.68842  0.04239  0.22902  1.0000
  C   C29       1.0  0.26418  0.94074  0.27252  1.0000
  C   C30       1.0  0.23764  0.94645  0.27332  1.0000
  H   H17       1.0  0.27161  0.93070  0.21919  1.0000
  H   H18       1.0  0.22661  0.94069  0.21979  1.0000
  C   C31       1.0  0.35001  0.94502  0.27768  1.0000
  C   C32       1.0  0.32354  0.95107  0.27854  1.0000
  H   H19       1.0  0.36131  0.95238  0.22733  1.0000
  H   H20       1.0  0.31648  0.96303  0.22957  1.0000
  C   C33       1.0  0.45950  0.72600  0.33492  1.0000
  C   C34       1.0  0.46716  0.74197  0.26174  1.0000
  C   C35       1.0  0.46089  0.76867  0.26242  1.0000
  C   C36       1.0  0.44722  0.78004  0.33442  1.0000
  C   C37       1.0  0.44055  0.80685  0.33307  1.0000
  C   C38       1.0  0.42430  0.81745  0.26559  1.0000
  C   C39       1.0  0.41797  0.84413  0.26819  1.0000
  C   C40       1.0  0.42781  0.86079  0.33538  1.0000
  H   H21       1.0  0.40617  0.85147  0.21933  1.0000
  H   H22       1.0  0.46644  0.77994  0.20919  1.0000
  N   N5        1.0  0.41407  0.80110  0.19794  1.0000
  N   N6        1.0  0.48020  0.73086  0.18760  1.0000
  O   O9        1.0  0.42105  0.80827  0.12094  1.0000
  O   O10       1.0  0.50202  0.74100  0.17635  1.0000
  O   O11       1.0  0.38986  0.80044  0.20038  1.0000
  O   O12       1.0  0.46745  0.73316  0.11623  1.0000
  C   C41       1.0  0.54586  0.27860  0.33913  1.0000
  C   C42       1.0  0.53790  0.26256  0.26652  1.0000
  C   C43       1.0  0.54392  0.23581  0.26769  1.0000
  C   C44       1.0  0.55769  0.22448  0.33950  1.0000
  C   C45       1.0  0.56430  0.19765  0.33818  1.0000
  C   C46       1.0  0.58030  0.18698  0.27012  1.0000
  C   C47       1.0  0.58655  0.16029  0.27259  1.0000
  C   C48       1.0  0.57688  0.14369  0.34027  1.0000
  H   H23       1.0  0.59816  0.15289  0.22328  1.0000
  H   H24       1.0  0.53819  0.22450  0.21479  1.0000
  N   N7        1.0  0.59037  0.20327  0.20197  1.0000
  N   N8        1.0  0.52486  0.27364  0.19232  1.0000
  O   O13       1.0  0.58312  0.19609  0.12529  1.0000
  O   O14       1.0  0.50293  0.26369  0.18167  1.0000
  O   O15       1.0  0.61459  0.20385  0.20346  1.0000
  O   O16       1.0  0.53748  0.27109  0.12079  1.0000
  C   C49       1.0  0.72652  0.54624  0.33429  1.0000
  C   C50       1.0  0.74230  0.53827  0.26121  1.0000
  C   C51       1.0  0.76905  0.54416  0.26189  1.0000
  C   C52       1.0  0.78067  0.55776  0.33375  1.0000
  C   C53       1.0  0.80754  0.56413  0.33222  1.0000
  C   C54       1.0  0.81839  0.58015  0.26427  1.0000
  C   C55       1.0  0.84507  0.58627  0.26685  1.0000
  C   C56       1.0  0.86152  0.57647  0.33451  1.0000
  H   H25       1.0  0.85258  0.59796  0.21777  1.0000
  H   H26       1.0  0.78016  0.53839  0.20870  1.0000
  N   N9        1.0  0.80228  0.59040  0.19621  1.0000
  N   N10       1.0  0.73097  0.52532  0.18711  1.0000
  O   O17       1.0  0.80936  0.58315  0.11947  1.0000
  O   O18       1.0  0.74063  0.50329  0.17598  1.0000
  O   O19       1.0  0.80199  0.61469  0.19796  1.0000
  O   O20       1.0  0.73354  0.53804  0.11568  1.0000
  C   C57       1.0  0.27953  0.45842  0.33623  1.0000
  C   C58       1.0  0.26367  0.46653  0.26357  1.0000
  C   C59       1.0  0.23691  0.46070  0.26461  1.0000
  C   C60       1.0  0.22537  0.44703  0.33646  1.0000
  C   C61       1.0  0.19849  0.44077  0.33525  1.0000
  C   C62       1.0  0.18750  0.42491  0.26711  1.0000
  C   C63       1.0  0.16079  0.41897  0.26976  1.0000
  C   C64       1.0  0.14445  0.42878  0.33769  1.0000
  H   H27       1.0  0.15318  0.40741  0.22049  1.0000
  H   H28       1.0  0.22573  0.46659  0.21174  1.0000
  N   N11       1.0  0.20351  0.41465  0.19877  1.0000
  N   N12       1.0  0.27491  0.47958  0.18953  1.0000
  O   O21       1.0  0.19643  0.42205  0.12219  1.0000
  O   O22       1.0  0.26528  0.50165  0.17898  1.0000
  O   O23       1.0  0.20364  0.39035  0.20011  1.0000
  O   O24       1.0  0.27223  0.46698  0.11789  1.0000
  C   C65       1.0  0.09421  0.09584  0.27595  1.0000
  C   C66       1.0  0.07710  0.11685  0.27302  1.0000
  H   H29       1.0  0.09314  0.08213  0.22638  1.0000
  H   H30       1.0  0.06427  0.11788  0.22081  1.0000
  C   C67       1.0  0.15683  0.03908  0.28836  1.0000
  C   C68       1.0  0.14362  0.06282  0.28704  1.0000
  H   H31       1.0  0.16835  0.03436  0.23497  1.0000
  H   H32       1.0  0.14633  0.07493  0.23337  1.0000
  C   C69       1.0  0.90716  0.90693  0.27379  1.0000
  C   C70       1.0  0.92392  0.88562  0.27107  1.0000
  H   H33       1.0  0.90653  0.91907  0.21947  1.0000
  H   H34       1.0  0.93489  0.88288  0.21461  1.0000
  C   C71       1.0  0.84642  0.96563  0.29338  1.0000
  C   C72       1.0  0.85940  0.94174  0.29361  1.0000
  H   H35       1.0  0.83346  0.96935  0.24314  1.0000
  H   H36       1.0  0.85505  0.92857  0.24446  1.0000
  C   C73       1.0  0.90860  0.09549  0.27107  1.0000
  C   C74       1.0  0.88748  0.07842  0.26825  1.0000
  H   H37       1.0  0.92222  0.09437  0.22139  1.0000
  H   H38       1.0  0.88630  0.06554  0.21607  1.0000
  C   C75       1.0  0.96625  0.15764  0.28461  1.0000
  C   C76       1.0  0.94233  0.14469  0.28315  1.0000
  H   H39       1.0  0.97112  0.16930  0.23160  1.0000
  H   H40       1.0  0.93026  0.14772  0.22972  1.0000
  C   C77       1.0  0.09809  0.90876  0.27612  1.0000
  C   C78       1.0  0.11958  0.92539  0.27330  1.0000
  H   H41       1.0  0.08599  0.90818  0.22176  1.0000
  H   H42       1.0  0.12249  0.93631  0.21672  1.0000
  C   C79       1.0  0.03897  0.84801  0.29600  1.0000
  C   C80       1.0  0.06286  0.86103  0.29607  1.0000
  H   H43       1.0  0.03521  0.83495  0.24594  1.0000
  H   H44       1.0  0.07598  0.85661  0.24700  1.0000
  C   C81       1.0  0.42904  0.63492  0.34104  1.0000
  C   C82       1.0  0.41120  0.63232  0.26910  1.0000
  C   C83       1.0  0.39396  0.61097  0.26791  1.0000
  C   C84       1.0  0.39424  0.59193  0.33612  1.0000
  C   C85       1.0  0.37927  0.56881  0.32885  1.0000
  C   C86       1.0  0.38286  0.55126  0.25637  1.0000
  C   C87       1.0  0.36961  0.52726  0.25680  1.0000
  C   C88       1.0  0.35281  0.52023  0.32756  1.0000
  H   H45       1.0  0.37302  0.51440  0.20584  1.0000
  H   H46       1.0  0.38166  0.60886  0.21454  1.0000
  N   N13       1.0  0.40073  0.55717  0.18718  1.0000
  N   N14       1.0  0.41189  0.65022  0.19709  1.0000
  O   O25       1.0  0.38995  0.55776  0.11154  1.0000
  O   O26       1.0  0.41740  0.63936  0.12401  1.0000
  O   O27       1.0  0.41887  0.54114  0.18451  1.0000
  O   O28       1.0  0.39066  0.66158  0.18850  1.0000
  C   C89       1.0  0.57772  0.36909  0.33603  1.0000
  C   C90       1.0  0.59250  0.37419  0.25721  1.0000
  C   C91       1.0  0.60947  0.39564  0.25584  1.0000
  C   C92       1.0  0.61177  0.41267  0.32982  1.0000
  C   C93       1.0  0.62623  0.43618  0.32341  1.0000
  C   C94       1.0  0.62064  0.45503  0.25660  1.0000
  C   C95       1.0  0.63392  0.47900  0.25766  1.0000
  C   C96       1.0  0.65255  0.48497  0.32394  1.0000
  H   H47       1.0  0.62920  0.49265  0.21057  1.0000
  H   H48       1.0  0.61964  0.39947  0.19829  1.0000
  N   N15       1.0  0.60085  0.45043  0.19279  1.0000
  N   N16       1.0  0.59062  0.36021  0.17569  1.0000
  O   O29       1.0  0.60937  0.45134  0.11375  1.0000
  O   O30       1.0  0.59781  0.33720  0.18445  1.0000
  O   O31       1.0  0.58277  0.46642  0.20032  1.0000
  O   O32       1.0  0.56825  0.36064  0.14327  1.0000
  C   C97       1.0  0.63621  0.57791  0.34234  1.0000
  C   C98       1.0  0.63346  0.59542  0.26939  1.0000
  C   C99       1.0  0.61216  0.61258  0.26776  1.0000
  C   C100      1.0  0.59332  0.61251  0.33644  1.0000
  C   C101      1.0  0.57017  0.62720  0.32863  1.0000
  C   C102      1.0  0.55257  0.62299  0.25674  1.0000
  C   C103      1.0  0.52857  0.63600  0.25673  1.0000
  C   C104      1.0  0.52154  0.65314  0.32649  1.0000
  H   H49       1.0  0.51570  0.63216  0.20620  1.0000
  H   H50       1.0  0.60991  0.62459  0.21362  1.0000
  N   N17       1.0  0.55846  0.60476  0.18867  1.0000
  N   N18       1.0  0.65110  0.59442  0.19685  1.0000
  O   O33       1.0  0.55885  0.61514  0.11229  1.0000
  O   O34       1.0  0.66243  0.61573  0.18649  1.0000
  O   O35       1.0  0.54257  0.58635  0.18758  1.0000
  O   O36       1.0  0.64007  0.58845  0.12450  1.0000
  C   C105      1.0  0.37015  0.42749  0.34216  1.0000
  C   C106      1.0  0.37296  0.40997  0.26927  1.0000
  C   C107      1.0  0.39434  0.39291  0.26760  1.0000
  C   C108      1.0  0.41318  0.39306  0.33629  1.0000
  C   C109      1.0  0.43635  0.37838  0.32869  1.0000
  C   C110      1.0  0.45400  0.38257  0.25696  1.0000
  C   C111      1.0  0.47799  0.36954  0.25714  1.0000
  C   C112      1.0  0.48496  0.35238  0.32694  1.0000
  H   H51       1.0  0.49086  0.37331  0.20655  1.0000
  H   H52       1.0  0.39662  0.38088  0.21353  1.0000
  N   N19       1.0  0.44815  0.40077  0.18875  1.0000
  N   N20       1.0  0.35526  0.41084  0.19687  1.0000
  O   O37       1.0  0.44777  0.39035  0.11245  1.0000
  O   O38       1.0  0.36621  0.41683  0.12440  1.0000
  O   O39       1.0  0.46405  0.41916  0.18761  1.0000
  O   O40       1.0  0.34403  0.38948  0.18675  1.0000
  C   C113      1.0  0.08365  0.38845  0.34140  1.0000
  C   C114      1.0  0.10997  0.39581  0.34099  1.0000
  C   C115      1.0  0.11769  0.42208  0.33982  1.0000
  C   C116      1.0  0.09829  0.44128  0.33960  1.0000
  C   C117      1.0  0.07174  0.43474  0.33852  1.0000
  C   C118      1.0  0.06480  0.40821  0.33946  1.0000
  H   H53       1.0  0.10361  0.46038  0.33893  1.0000
  H   H54       1.0  0.04568  0.40318  0.33926  1.0000
  H   H55       1.0  0.12382  0.38171  0.34154  1.0000
  C   C119      1.0  0.92202  0.61723  0.34107  1.0000
  C   C120      1.0  0.89576  0.60971  0.33912  1.0000
  C   C121      1.0  0.88823  0.58339  0.33692  1.0000
  C   C122      1.0  0.90776  0.56431  0.33686  1.0000
  C   C123      1.0  0.93427  0.57104  0.33858  1.0000
  C   C124      1.0  0.94101  0.59761  0.34059  1.0000
  H   H56       1.0  0.90258  0.54518  0.33522  1.0000
  H   H57       1.0  0.96009  0.60278  0.34178  1.0000
  H   H58       1.0  0.88181  0.62371  0.33927  1.0000
  C   C125      1.0  0.61714  0.08295  0.34225  1.0000
  C   C126      1.0  0.60982  0.10931  0.34251  1.0000
  C   C127      1.0  0.58364  0.11691  0.34173  1.0000
  C   C128      1.0  0.56448  0.09736  0.34107  1.0000
  C   C129      1.0  0.57098  0.07078  0.33922  1.0000
  C   C130      1.0  0.59742  0.06394  0.33996  1.0000
  H   H59       1.0  0.54544  0.10259  0.34051  1.0000
  H   H60       1.0  0.60239  0.04478  0.33929  1.0000
  H   H61       1.0  0.62388  0.12329  0.34329  1.0000
  C   C131      1.0  0.38741  0.92144  0.34076  1.0000
  C   C132      1.0  0.39476  0.89510  0.33919  1.0000
  C   C133      1.0  0.42097  0.88756  0.33731  1.0000
  C   C134      1.0  0.44009  0.90716  0.33702  1.0000
  C   C135      1.0  0.43354  0.93375  0.33831  1.0000
  C   C136      1.0  0.40709  0.94050  0.34016  1.0000
  H   H62       1.0  0.45913  0.90198  0.33556  1.0000
  H   H63       1.0  0.40206  0.95964  0.34113  1.0000
  H   H64       1.0  0.38073  0.88110  0.33943  1.0000
  C   C137      1.0  0.05637  0.15419  0.34335  1.0000
  C   C138      1.0  0.03054  0.14555  0.34778  1.0000
  C   C139      1.0  0.00968  0.16303  0.34997  1.0000
  C   C140      1.0  0.01505  0.18984  0.34727  1.0000
  C   C141      1.0  0.04074  0.19926  0.34493  1.0000
  C   C142      1.0  0.06119  0.18114  0.34257  1.0000
  H   H65       1.0  0.00004  0.20267  0.34870  1.0000
  H   H66       1.0  0.07987  0.18763  0.34088  1.0000
  H   H67       1.0  0.02684  0.12605  0.34940  1.0000
  C   C143      1.0  0.94749  0.85111  0.34583  1.0000
  C   C144      1.0  0.97304  0.86045  0.35136  1.0000
  C   C145      1.0  0.99439  0.84355  0.35369  1.0000
  C   C146      1.0  0.98965  0.81660  0.34965  1.0000
  C   C147      1.0  0.96422  0.80653  0.34501  1.0000
  C   C148      1.0  0.94332  0.82411  0.34223  1.0000
  H   H68       1.0  0.00493  0.80411  0.35167  1.0000
  H   H69       1.0  0.92482  0.81720  0.33916  1.0000
  H   H70       1.0  0.97611  0.88005  0.35361  1.0000
  C   C149      1.0  0.85054  0.05735  0.34003  1.0000
  C   C150      1.0  0.85942  0.03162  0.34577  1.0000
  C   C151      1.0  0.84225  0.01039  0.35045  1.0000
  C   C152      1.0  0.81545  0.01537  0.34816  1.0000
  C   C153      1.0  0.80578  0.04098  0.34402  1.0000
  C   C154      1.0  0.82364  0.06177  0.33986  1.0000
  H   H71       1.0  0.80280  0.00015  0.35124  1.0000
  H   H72       1.0  0.81701  0.08039  0.33732  1.0000
  H   H73       1.0  0.87890  0.02829  0.34681  1.0000
  C   C155      1.0  0.15442  0.94871  0.34768  1.0000
  C   C156      1.0  0.14557  0.97445  0.35289  1.0000
  C   C157      1.0  0.16285  0.99563  0.35370  1.0000
  C   C158      1.0  0.18961  0.99060  0.34905  1.0000
  C   C159      1.0  0.19917  0.96496  0.34520  1.0000
  C   C160      1.0  0.18126  0.94420  0.34347  1.0000
  H   H74       1.0  0.20231  0.00581  0.34999  1.0000
  H   H75       1.0  0.18782  0.92555  0.34064  1.0000
  H   H76       1.0  0.12611  0.97782  0.35583  1.0000
  C   C161      1.0  0.44926  0.65370  0.33952  1.0000
  C   C162      1.0  0.47508  0.64524  0.33464  1.0000
  C   C163      1.0  0.49592  0.66287  0.33158  1.0000
  C   C164      1.0  0.49052  0.68965  0.33391  1.0000
  C   C165      1.0  0.46482  0.69887  0.33683  1.0000
  C   C166      1.0  0.44440  0.68061  0.34001  1.0000
  H   H77       1.0  0.50551  0.70259  0.33188  1.0000
  H   H78       1.0  0.42572  0.68695  0.34206  1.0000
  H   H79       1.0  0.47879  0.62577  0.33326  1.0000
  C   C167      1.0  0.55729  0.35066  0.33716  1.0000
  C   C168      1.0  0.53163  0.35960  0.33221  1.0000
  C   C169      1.0  0.51048  0.34232  0.33178  1.0000
  C   C170      1.0  0.51544  0.31547  0.33649  1.0000
  C   C171      1.0  0.54098  0.30581  0.33997  1.0000
  C   C172      1.0  0.56171  0.32373  0.34149  1.0000
  H   H80       1.0  0.50025  0.30276  0.33572  1.0000
  H   H81       1.0  0.58029  0.31711  0.34412  1.0000
  H   H82       1.0  0.52831  0.37913  0.32924  1.0000
  C   C173      1.0  0.65463  0.55747  0.34062  1.0000
  C   C174      1.0  0.64569  0.53170  0.33522  1.0000
  C   C175      1.0  0.66281  0.51053  0.33064  1.0000
  C   C176      1.0  0.68962  0.51562  0.33267  1.0000
  C   C177      1.0  0.69935  0.54127  0.33635  1.0000
  C   C178      1.0  0.68154  0.56199  0.34047  1.0000
  H   H83       1.0  0.70223  0.50044  0.32957  1.0000
  H   H84       1.0  0.68822  0.58065  0.34271  1.0000
  H   H85       1.0  0.62620  0.52828  0.33433  1.0000
  C   C179      1.0  0.35155  0.44776  0.34078  1.0000
  C   C180      1.0  0.36025  0.47363  0.33583  1.0000
  C   C181      1.0  0.34288  0.49459  0.33291  1.0000
  C   C182      1.0  0.31613  0.48929  0.33543  1.0000
  C   C183      1.0  0.30666  0.46355  0.33816  1.0000
  C   C184      1.0  0.32467  0.44298  0.34121  1.0000
  H   H86       1.0  0.30340  0.50439  0.33352  1.0000
  H   H87       1.0  0.31816  0.42427  0.34312  1.0000
  H   H88       1.0  0.37969  0.47729  0.33430  1.0000
  C   C185      1.0  0.01481  0.47518  0.40672  1.0000
  C   C186      1.0  0.03408  0.45603  0.40646  1.0000
  H   H89       1.0  0.00191  0.47561  0.45878  1.0000
  H   H90       1.0  0.03481  0.44332  0.45920  1.0000
  C   C187      1.0  0.97284  0.55035  0.40525  1.0000
  C   C188      1.0  0.99185  0.53093  0.40451  1.0000
  H   H91       1.0  0.97279  0.56345  0.45684  1.0000
  H   H92       1.0  0.00528  0.53077  0.45496  1.0000
  C   C189      1.0  0.53010  0.01380  0.40684  1.0000
  C   C190      1.0  0.54944  0.03300  0.40669  1.0000
  H   H93       1.0  0.52946  0.00088  0.45895  1.0000
  H   H94       1.0  0.56207  0.03369  0.45958  1.0000
  C   C191      1.0  0.45450  0.97242  0.40467  1.0000
  C   C192      1.0  0.47414  0.99131  0.40408  1.0000
  H   H95       1.0  0.44138  0.97249  0.45610  1.0000
  H   H96       1.0  0.47444  0.00481  0.45442  1.0000
  C   C193      1.0  0.04594  0.22645  0.34651  1.0000
  C   C194      1.0  0.03795  0.24245  0.41905  1.0000
  C   C195      1.0  0.04392  0.26926  0.41780  1.0000
  C   C196      1.0  0.05761  0.28070  0.34585  1.0000
  C   C197      1.0  0.06408  0.30762  0.34692  1.0000
  C   C198      1.0  0.08003  0.31851  0.41486  1.0000
  C   C199      1.0  0.08623  0.34524  0.41199  1.0000
  C   C200      1.0  0.07659  0.36170  0.34398  1.0000
  H   H97       1.0  0.09786  0.35278  0.46112  1.0000
  H   H98       1.0  0.03813  0.28054  0.47061  1.0000
  N   N21       1.0  0.09016  0.30239  0.48319  1.0000
  N   N22       1.0  0.02487  0.23129  0.49317  1.0000
  O   O41       1.0  0.08294  0.30960  0.55981  1.0000
  O   O42       1.0  0.00293  0.24108  0.50365  1.0000
  O   O43       1.0  0.11438  0.30200  0.48154  1.0000
  O   O44       1.0  0.03745  0.23395  0.56478  1.0000
  C   C201      1.0  0.95955  0.77924  0.34585  1.0000
  C   C202      1.0  0.96732  0.76334  0.41894  1.0000
  C   C203      1.0  0.96145  0.73652  0.41773  1.0000
  C   C204      1.0  0.94802  0.72497  0.34539  1.0000
  C   C205      1.0  0.94154  0.69806  0.34658  1.0000
  C   C206      1.0  0.92535  0.68723  0.41400  1.0000
  C   C207      1.0  0.91912  0.66050  0.41112  1.0000
  C   C208      1.0  0.92897  0.64400  0.34364  1.0000
  H   H99       1.0  0.90733  0.65300  0.45987  1.0000
  H   H100      1.0  0.96705  0.72531  0.47098  1.0000
  N   N23       1.0  0.91504  0.70341  0.48183  1.0000
  N   N24       1.0  0.98002  0.77463  0.49363  1.0000
  O   O45       1.0  0.92203  0.69624  0.55876  1.0000
  O   O46       1.0  0.00196  0.76495  0.50538  1.0000
  O   O47       1.0  0.89082  0.70382  0.47933  1.0000
  O   O48       1.0  0.96714  0.77198  0.56460  1.0000
  C   C209      1.0  0.77863  0.04584  0.34572  1.0000
  C   C210      1.0  0.76277  0.03790  0.41875  1.0000
  C   C211      1.0  0.73605  0.04370  0.41774  1.0000
  C   C212      1.0  0.72452  0.05720  0.34564  1.0000
  C   C213      1.0  0.69770  0.06358  0.34702  1.0000
  C   C214      1.0  0.68693  0.07958  0.41501  1.0000
  C   C215      1.0  0.66030  0.08571  0.41236  1.0000
  C   C216      1.0  0.64380  0.07599  0.34452  1.0000
  H   H101      1.0  0.65286  0.09736  0.46156  1.0000
  H   H102      1.0  0.72488  0.03796  0.47093  1.0000
  N   N25       1.0  0.70309  0.08982  0.48314  1.0000
  N   N26       1.0  0.77401  0.02508  0.49316  1.0000
  O   O49       1.0  0.69593  0.08259  0.55986  1.0000
  O   O50       1.0  0.76428  0.00303  0.50457  1.0000
  O   O51       1.0  0.70354  0.11412  0.48137  1.0000
  O   O52       1.0  0.77143  0.03789  0.56436  1.0000
  C   C217      1.0  0.22629  0.95998  0.34587  1.0000
  C   C218      1.0  0.24229  0.96759  0.41894  1.0000
  C   C219      1.0  0.26894  0.96146  0.41759  1.0000
  C   C220      1.0  0.28023  0.94795  0.34507  1.0000
  C   C221      1.0  0.30697  0.94125  0.34606  1.0000
  C   C222      1.0  0.31756  0.92480  0.41304  1.0000
  C   C223      1.0  0.34415  0.91845  0.41015  1.0000
  C   C224      1.0  0.36076  0.92843  0.34312  1.0000
  H   H103      1.0  0.35147  0.90649  0.45866  1.0000
  H   H104      1.0  0.28022  0.96695  0.47082  1.0000
  N   N27       1.0  0.30128  0.91436  0.48044  1.0000
  N   N28       1.0  0.23125  0.98041  0.49370  1.0000
  O   O53       1.0  0.30846  0.92114  0.55762  1.0000
  O   O54       1.0  0.24124  0.00232  0.50549  1.0000
  O   O55       1.0  0.30062  0.89008  0.47719  1.0000
  O   O56       1.0  0.23371  0.96745  0.56461  1.0000
  C   C225      1.0  0.43995  0.76400  0.40706  1.0000
  C   C226      1.0  0.44579  0.73742  0.40691  1.0000
  H   H105      1.0  0.42984  0.77149  0.46008  1.0000
  H   H106      1.0  0.44005  0.72643  0.46061  1.0000
  C   C227      1.0  0.44420  0.85004  0.40131  1.0000
  C   C228      1.0  0.45020  0.82349  0.40077  1.0000
  H   H107      1.0  0.45147  0.86140  0.45172  1.0000
  H   H108      1.0  0.46203  0.81642  0.45006  1.0000
  C   C229      1.0  0.56525  0.24057  0.41160  1.0000
  C   C230      1.0  0.55963  0.26720  0.41102  1.0000
  H   H109      1.0  0.57547  0.23311  0.46440  1.0000
  H   H110      1.0  0.56563  0.27826  0.46420  1.0000
  C   C231      1.0  0.56073  0.15450  0.40677  1.0000
  C   C232      1.0  0.55481  0.18107  0.40634  1.0000
  H   H111      1.0  0.55358  0.14317  0.45745  1.0000
  H   H112      1.0  0.54315  0.18819  0.45602  1.0000
  C   C233      1.0  0.76483  0.56533  0.40629  1.0000
  C   C234      1.0  0.73821  0.55985  0.40617  1.0000
  H   H113      1.0  0.77249  0.57541  0.45921  1.0000
  H   H114      1.0  0.72738  0.56580  0.45984  1.0000
  C   C235      1.0  0.85053  0.56029  0.40086  1.0000
  C   C236      1.0  0.82397  0.55449  0.40032  1.0000
  H   H115      1.0  0.86171  0.55309  0.45169  1.0000
  H   H116      1.0  0.81672  0.54285  0.45001  1.0000
  C   C237      1.0  0.24130  0.43929  0.40855  1.0000
  C   C238      1.0  0.26794  0.44470  0.40806  1.0000
  H   H117      1.0  0.23368  0.42916  0.46144  1.0000
  H   H118      1.0  0.27883  0.43869  0.46147  1.0000
  C   C239      1.0  0.15556  0.44481  0.40422  1.0000
  C   C240      1.0  0.18216  0.45043  0.40360  1.0000
  H   H119      1.0  0.14444  0.45203  0.45516  1.0000
  H   H120      1.0  0.18951  0.46199  0.45337  1.0000
  C   C241      1.0  0.07659  0.13552  0.34258  1.0000
  C   C242      1.0  0.09420  0.13302  0.41517  1.0000
  C   C243      1.0  0.11142  0.11174  0.41706  1.0000
  C   C244      1.0  0.11134  0.09269  0.34888  1.0000
  C   C245      1.0  0.12631  0.06965  0.35663  1.0000
  C   C246      1.0  0.12258  0.05208  0.42905  1.0000
  C   C247      1.0  0.13586  0.02817  0.42903  1.0000
  C   C248      1.0  0.15281  0.02121  0.35873  1.0000
  H   H121      1.0  0.13237  0.01531  0.48001  1.0000
  H   H122      1.0  0.12355  0.10971  0.47087  1.0000
  N   N29       1.0  0.10457  0.05789  0.49775  1.0000
  N   N30       1.0  0.09332  0.15094  0.48708  1.0000
  O   O57       1.0  0.11518  0.05856  0.57366  1.0000
  O   O58       1.0  0.08758  0.14008  0.55999  1.0000
  O   O59       1.0  0.08643  0.04172  0.49999  1.0000
  O   O60       1.0  0.11454  0.16241  0.49640  1.0000
  C   C249      1.0  0.92691  0.86925  0.34649  1.0000
  C   C250      1.0  0.91227  0.87444  0.42550  1.0000
  C   C251      1.0  0.89531  0.89578  0.42661  1.0000
  C   C252      1.0  0.89293  0.91265  0.35225  1.0000
  C   C253      1.0  0.87857  0.93614  0.35847  1.0000
  C   C254      1.0  0.88439  0.95513  0.42464  1.0000
  C   C255      1.0  0.87120  0.97907  0.42338  1.0000
  C   C256      1.0  0.85244  0.98486  0.35745  1.0000
  H   H123      1.0  0.87607  0.99281  0.47004  1.0000
  H   H124      1.0  0.88526  0.89970  0.48430  1.0000
  N   N31       1.0  0.90433  0.95073  0.48796  1.0000
  N   N32       1.0  0.91431  0.86066  0.50738  1.0000
  O   O61       1.0  0.89603  0.95179  0.56725  1.0000
  O   O62       1.0  0.90723  0.83756  0.49932  1.0000
  O   O63       1.0  0.92245  0.96674  0.47945  1.0000
  O   O64       1.0  0.93671  0.86142  0.53950  1.0000
  C   C257      1.0  0.86900  0.07787  0.33823  1.0000
  C   C258      1.0  0.87175  0.09544  0.41104  1.0000
  C   C259      1.0  0.89312  0.11264  0.41275  1.0000
  C   C260      1.0  0.91203  0.11253  0.34430  1.0000
  C   C261      1.0  0.93526  0.12724  0.35227  1.0000
  C   C262      1.0  0.95277  0.12306  0.42435  1.0000
  C   C263      1.0  0.97686  0.13607  0.42448  1.0000
  C   C264      1.0  0.98404  0.15316  0.35464  1.0000
  H   H125      1.0  0.98966  0.13228  0.47521  1.0000
  H   H126      1.0  0.89538  0.12469  0.46680  1.0000
  N   N33       1.0  0.94671  0.10490  0.49256  1.0000
  N   N34       1.0  0.85403  0.09447  0.48338  1.0000
  O   O65       1.0  0.94631  0.11535  0.56881  1.0000
  O   O66       1.0  0.86496  0.08859  0.55593  1.0000
  O   O67       1.0  0.96247  0.08649  0.49405  1.0000
  O   O68       1.0  0.84278  0.11576  0.49335  1.0000
  C   C265      1.0  0.13597  0.92828  0.34865  1.0000
  C   C266      1.0  0.13056  0.91370  0.42775  1.0000
  C   C267      1.0  0.10901  0.89689  0.42903  1.0000
  C   C268      1.0  0.09216  0.89459  0.35468  1.0000
  C   C269      1.0  0.06859  0.88028  0.36082  1.0000
  C   C270      1.0  0.04969  0.88616  0.42695  1.0000
  C   C271      1.0  0.02574  0.87293  0.42580  1.0000
  C   C272      1.0  0.01983  0.85406  0.36006  1.0000
  H   H127      1.0  0.01211  0.87779  0.47264  1.0000
  H   H128      1.0  0.10497  0.88686  0.48676  1.0000
  N   N35       1.0  0.05425  0.90616  0.49023  1.0000
  N   N36       1.0  0.14437  0.91563  0.50953  1.0000
  O   O69       1.0  0.05316  0.89783  0.56952  1.0000
  O   O70       1.0  0.16728  0.90829  0.50130  1.0000
  O   O71       1.0  0.03840  0.92434  0.48175  1.0000
  O   O72       1.0  0.14401  0.93812  0.54150  1.0000
  C   C273      1.0  0.41158  0.59517  0.40843  1.0000
  C   C274      1.0  0.42873  0.61626  0.41067  1.0000
  H   H129      1.0  0.41280  0.58147  0.45794  1.0000
  H   H130      1.0  0.44171  0.61737  0.46241  1.0000
  C   C275      1.0  0.34892  0.53806  0.39805  1.0000
  C   C276      1.0  0.36212  0.56189  0.39894  1.0000
  H   H131      1.0  0.33753  0.53325  0.45174  1.0000
  H   H132      1.0  0.35952  0.57399  0.45266  1.0000
  C   C277      1.0  0.59739  0.40705  0.40811  1.0000
  C   C278      1.0  0.58060  0.38566  0.41104  1.0000
  H   H133      1.0  0.59796  0.41930  0.46217  1.0000
  H   H134      1.0  0.56958  0.38295  0.46743  1.0000
  C   C279      1.0  0.65836  0.46588  0.38864  1.0000
  C   C280      1.0  0.64528  0.44197  0.38865  1.0000
  H   H135      1.0  0.67122  0.46974  0.43913  1.0000
  H   H136      1.0  0.64947  0.42890  0.43824  1.0000
  C   C281      1.0  0.59675  0.59553  0.40978  1.0000
  C   C282      1.0  0.61779  0.57849  0.41251  1.0000
  H   H137      1.0  0.58317  0.59443  0.45964  1.0000
  H   H138      1.0  0.61897  0.56566  0.46482  1.0000
  C   C283      1.0  0.53941  0.65764  0.39637  1.0000
  C   C284      1.0  0.56325  0.64470  0.39769  1.0000
  H   H139      1.0  0.53463  0.66930  0.44939  1.0000
  H   H140      1.0  0.57538  0.64774  0.45101  1.0000
  C   C285      1.0  0.40970  0.41005  0.40957  1.0000
  C   C286      1.0  0.38859  0.42701  0.41228  1.0000
  H   H141      1.0  0.42326  0.41119  0.45948  1.0000
  H   H142      1.0  0.38735  0.43981  0.46463  1.0000
  C   C287      1.0  0.46702  0.34790  0.39661  1.0000
  C   C288      1.0  0.44320  0.36087  0.39779  1.0000
  H   H143      1.0  0.47170  0.33618  0.44958  1.0000
  H   H144      1.0  0.43102  0.35781  0.45095  1.0000
