data_image0
_chemical_formula_structural       C2H2CN2CH2C16H16C16H16C16H16C4H2C2H2NC4H2C2H2NC4H2C2H2NC4H2C2H2NC4H2C2H2NC4H2C2H2NC4NC8NC36H22C4H4C3NC3NC5NC5NC36H26C4H4C3NC3NC5NC5NC36H26C4H4C6H4NC6H4NC6H4NC6H4NC6H4NC6H4N
_chemical_formula_sum              "C288 H186 N24"
_cell_length_a       75.2693
_cell_length_b       75.2692
_cell_length_c       14.9686
_cell_angle_alpha    89.7434
_cell_angle_beta     90.2566
_cell_angle_gamma    120

_space_group_name_H-M_alt    "P 1"
_space_group_IT_number       1

loop_
  _space_group_symop_operation_xyz
  'x, y, z'

loop_
  _atom_site_type_symbol
  _atom_site_label
  _atom_site_symmetry_multiplicity
  _atom_site_fract_x
  _atom_site_fract_y
  _atom_site_fract_z
  _atom_site_occupancy
  C   C1        1.0  0.01437  0.58801  0.34526  1.0000
  C   C2        1.0  0.01220  0.51043  0.34605  1.0000
  H   H1        1.0  0.01306  0.61624  0.34548  1.0000
  H   H2        1.0  0.00925  0.48017  0.34497  1.0000
  C   C3        1.0  0.02158  0.60911  0.34501  1.0000
  N   N1        1.0  0.03139  0.58617  0.34488  1.0000
  N   N2        1.0  0.02979  0.52884  0.34577  1.0000
  C   C4        1.0  0.01841  0.49576  0.34507  1.0000
  H   H3        1.0  0.03103  0.57324  0.34574  1.0000
  H   H4        1.0  0.03015  0.54176  0.34754  1.0000
  C   C5        1.0  0.11035  0.66194  0.27779  1.0000
  C   C6        1.0  0.09419  0.64149  0.27267  1.0000
  C   C7        1.0  0.13644  0.70792  0.31286  1.0000
  C   C8        1.0  0.15305  0.72812  0.32022  1.0000
  C   C9        1.0  0.10696  0.52862  0.27334  1.0000
  C   C10       1.0  0.09190  0.53448  0.26993  1.0000
  C   C11       1.0  0.16294  0.52464  0.31734  1.0000
  C   C12       1.0  0.14716  0.52946  0.30983  1.0000
  C   C13       1.0  0.96616  0.47387  0.27380  1.0000
  C   C14       1.0  0.95018  0.45333  0.27924  1.0000
  C   C15       1.0  0.90864  0.38683  0.31907  1.0000
  C   C16       1.0  0.92497  0.40718  0.31133  1.0000
  C   C17       1.0  0.96914  0.58054  0.26985  1.0000
  C   C18       1.0  0.95393  0.58619  0.27328  1.0000
  C   C19       1.0  0.91346  0.58467  0.30974  1.0000
  C   C20       1.0  0.89749  0.58917  0.31726  1.0000
  H   H5        1.0  0.88422  0.58038  0.28228  1.0000
  H   H6        1.0  0.91119  0.57270  0.26984  1.0000
  H   H7        1.0  0.94766  0.58747  0.21450  1.0000
  H   H8        1.0  0.97335  0.57762  0.20920  1.0000
  H   H9        1.0  0.97055  0.48074  0.21245  1.0000
  H   H10       1.0  0.94319  0.44591  0.22134  1.0000
  H   H11       1.0  0.08767  0.53755  0.20928  1.0000
  H   H12       1.0  0.11312  0.52735  0.21456  1.0000
  H   H13       1.0  0.14959  0.54156  0.27013  1.0000
  H   H14       1.0  0.17621  0.53335  0.28244  1.0000
  H   H15       1.0  0.08907  0.63493  0.21128  1.0000
  H   H16       1.0  0.11673  0.66962  0.21953  1.0000
  H   H17       1.0  0.15307  0.73937  0.28145  1.0000
  H   H18       1.0  0.12484  0.70515  0.26920  1.0000
  H   H19       1.0  0.93605  0.41036  0.26461  1.0000
  H   H20       1.0  0.90830  0.37591  0.27745  1.0000
  C   C21       1.0  0.42470  0.53007  0.28178  1.0000
  C   C22       1.0  0.44515  0.53436  0.27670  1.0000
  C   C23       1.0  0.37872  0.51006  0.31666  1.0000
  C   C24       1.0  0.35851  0.50643  0.32389  1.0000
  C   C25       1.0  0.55800  0.66002  0.27727  1.0000
  C   C26       1.0  0.55215  0.63911  0.27389  1.0000
  C   C27       1.0  0.56200  0.71991  0.32117  1.0000
  C   C28       1.0  0.55717  0.69933  0.31377  1.0000
  C   C29       1.0  0.61276  0.57399  0.27786  1.0000
  C   C30       1.0  0.63329  0.57853  0.28324  1.0000
  C   C31       1.0  0.69980  0.60345  0.32254  1.0000
  C   C32       1.0  0.67945  0.59945  0.31503  1.0000
  C   C33       1.0  0.50610  0.47030  0.27374  1.0000
  C   C34       1.0  0.50046  0.44943  0.27713  1.0000
  C   C35       1.0  0.50197  0.41042  0.31354  1.0000
  C   C36       1.0  0.49747  0.38993  0.32105  1.0000
  H   H21       1.0  0.50626  0.38551  0.28603  1.0000
  H   H22       1.0  0.51394  0.42018  0.27365  1.0000
  H   H23       1.0  0.49918  0.44200  0.21834  1.0000
  H   H24       1.0  0.50904  0.47755  0.21310  1.0000
  H   H25       1.0  0.60587  0.57158  0.21655  1.0000
  H   H26       1.0  0.64070  0.57905  0.22531  1.0000
  H   H27       1.0  0.54909  0.63192  0.21325  1.0000
  H   H28       1.0  0.55929  0.66755  0.21848  1.0000
  H   H29       1.0  0.54508  0.68972  0.27395  1.0000
  H   H30       1.0  0.55332  0.72455  0.28619  1.0000
  H   H31       1.0  0.45173  0.53595  0.21532  1.0000
  H   H32       1.0  0.41702  0.52885  0.22351  1.0000
  H   H33       1.0  0.34728  0.49528  0.28499  1.0000
  H   H34       1.0  0.38151  0.50134  0.27295  1.0000
  H   H35       1.0  0.67625  0.60741  0.26825  1.0000
  H   H36       1.0  0.71070  0.61409  0.28080  1.0000
  C   C37       1.0  0.55658  0.97631  0.28552  1.0000
  C   C38       1.0  0.55229  0.99248  0.28043  1.0000
  C   C39       1.0  0.57657  0.95026  0.32039  1.0000
  C   C40       1.0  0.58020  0.93366  0.32765  1.0000
  C   C41       1.0  0.42671  0.97973  0.27928  1.0000
  C   C42       1.0  0.44763  0.99481  0.27645  1.0000
  C   C43       1.0  0.36677  0.92372  0.32107  1.0000
  C   C44       1.0  0.38736  0.93949  0.31435  1.0000
  C   C45       1.0  0.51262  0.12043  0.28162  1.0000
  C   C46       1.0  0.50808  0.13642  0.28703  1.0000
  C   C47       1.0  0.48316  0.17793  0.32640  1.0000
  C   C48       1.0  0.48716  0.16160  0.31887  1.0000
  C   C49       1.0  0.61624  0.11742  0.27620  1.0000
  C   C50       1.0  0.63711  0.13265  0.27907  1.0000
  C   C51       1.0  0.67614  0.17316  0.31413  1.0000
  C   C52       1.0  0.69665  0.18914  0.32101  1.0000
  H   H37       1.0  0.70102  0.20235  0.28556  1.0000
  H   H38       1.0  0.66633  0.17538  0.27435  1.0000
  H   H39       1.0  0.64447  0.13883  0.22007  1.0000
  H   H40       1.0  0.60892  0.11312  0.21572  1.0000
  H   H41       1.0  0.51502  0.11606  0.22029  1.0000
  H   H42       1.0  0.50755  0.14341  0.22911  1.0000
  H   H43       1.0  0.45489  0.99912  0.21599  1.0000
  H   H44       1.0  0.41926  0.97366  0.22027  1.0000
  H   H45       1.0  0.39703  0.93712  0.27475  1.0000
  H   H46       1.0  0.36218  0.91050  0.28585  1.0000
  H   H47       1.0  0.55073  0.99759  0.21905  1.0000
  H   H48       1.0  0.55781  0.96996  0.22725  1.0000
  H   H49       1.0  0.59135  0.93365  0.28877  1.0000
  H   H50       1.0  0.58532  0.96187  0.27677  1.0000
  H   H51       1.0  0.47920  0.15052  0.27209  1.0000
  H   H52       1.0  0.47253  0.17828  0.28463  1.0000
  C   C53       1.0  0.30261  0.50750  0.33035  1.0000
  C   C54       1.0  0.26314  0.50442  0.32702  1.0000
  C   C55       1.0  0.27732  0.51401  0.25644  1.0000
  C   C56       1.0  0.29669  0.51542  0.25785  1.0000
  H   H53       1.0  0.27403  0.52086  0.20481  1.0000
  H   H54       1.0  0.30678  0.52302  0.20711  1.0000
  C   C57       1.0  0.21386  0.50180  0.25257  1.0000
  C   C58       1.0  0.23200  0.50069  0.25100  1.0000
  H   H55       1.0  0.20565  0.49933  0.19475  1.0000
  H   H56       1.0  0.23630  0.49719  0.19193  1.0000
  N   N3        1.0  0.32159  0.51042  0.33067  1.0000
  C   C59       1.0  0.57913  0.87669  0.33410  1.0000
  C   C60       1.0  0.58225  0.84032  0.33075  1.0000
  C   C61       1.0  0.57265  0.84502  0.26018  1.0000
  C   C62       1.0  0.57122  0.86298  0.26159  1.0000
  H   H57       1.0  0.56580  0.83498  0.20854  1.0000
  H   H58       1.0  0.56362  0.86555  0.21085  1.0000
  C   C63       1.0  0.58488  0.79381  0.25632  1.0000
  C   C64       1.0  0.58599  0.81306  0.25474  1.0000
  H   H59       1.0  0.58734  0.78817  0.19847  1.0000
  H   H60       1.0  0.58948  0.82097  0.19566  1.0000
  N   N4        1.0  0.57620  0.89275  0.33441  1.0000
  C   C65       1.0  0.20996  0.78408  0.32769  1.0000
  C   C66       1.0  0.24632  0.82358  0.32584  1.0000
  C   C67       1.0  0.24178  0.80949  0.25507  1.0000
  C   C68       1.0  0.22383  0.79010  0.25572  1.0000
  H   H61       1.0  0.25195  0.81283  0.20392  1.0000
  H   H62       1.0  0.22139  0.78006  0.20497  1.0000
  C   C69       1.0  0.29302  0.87294  0.25354  1.0000
  C   C70       1.0  0.27377  0.85481  0.25109  1.0000
  H   H63       1.0  0.29880  0.88122  0.19597  1.0000
  H   H64       1.0  0.26600  0.85058  0.19166  1.0000
  N   N5        1.0  0.19393  0.76508  0.32747  1.0000
  C   C71       1.0  0.75622  0.60357  0.33253  1.0000
  C   C72       1.0  0.79594  0.60723  0.32843  1.0000
  C   C73       1.0  0.78150  0.59718  0.25902  1.0000
  C   C74       1.0  0.76201  0.59549  0.26077  1.0000
  H   H65       1.0  0.78469  0.59021  0.20803  1.0000
  H   H66       1.0  0.75173  0.58756  0.21093  1.0000
  C   C75       1.0  0.84527  0.61039  0.25306  1.0000
  C   C76       1.0  0.82695  0.61117  0.25165  1.0000
  H   H67       1.0  0.85326  0.61276  0.19490  1.0000
  H   H68       1.0  0.82229  0.61433  0.19234  1.0000
  N   N6        1.0  0.73714  0.60038  0.33316  1.0000
  C   C77       1.0  0.48307  0.23424  0.33633  1.0000
  C   C78       1.0  0.47943  0.27031  0.33223  1.0000
  C   C79       1.0  0.48947  0.26603  0.26280  1.0000
  C   C80       1.0  0.49117  0.24823  0.26459  1.0000
  H   H69       1.0  0.49643  0.27628  0.21180  1.0000
  H   H70       1.0  0.49908  0.24596  0.21471  1.0000
  C   C81       1.0  0.47626  0.31660  0.25681  1.0000
  C   C82       1.0  0.47549  0.29751  0.25541  1.0000
  H   H71       1.0  0.47388  0.32233  0.19865  1.0000
  H   H72       1.0  0.47232  0.28979  0.19612  1.0000
  N   N7        1.0  0.48625  0.21834  0.33696  1.0000
  C   C83       1.0  0.85238  0.33036  0.33005  1.0000
  C   C84       1.0  0.81633  0.29063  0.32736  1.0000
  C   C85       1.0  0.82044  0.30500  0.25778  1.0000
  C   C86       1.0  0.83824  0.32451  0.25887  1.0000
  H   H73       1.0  0.81008  0.30175  0.20721  1.0000
  H   H74       1.0  0.84039  0.33472  0.20894  1.0000
  C   C87       1.0  0.76984  0.24123  0.25399  1.0000
  C   C88       1.0  0.78893  0.25954  0.25175  1.0000
  H   H75       1.0  0.76398  0.23317  0.19609  1.0000
  H   H76       1.0  0.79652  0.26412  0.19212  1.0000
  N   N8        1.0  0.86827  0.34945  0.33017  1.0000
  C   C89       1.0  0.04276  0.61925  0.34538  1.0000
  C   C90       1.0  0.04897  0.60458  0.34550  1.0000
  C   C91       1.0  0.99332  0.57248  0.34640  1.0000
  C   C92       1.0  0.98603  0.55105  0.34707  1.0000
  N   N9        1.0  0.99720  0.54151  0.34553  1.0000
  C   C93       1.0  0.98519  0.52088  0.34775  1.0000
  C   C94       1.0  0.96498  0.51692  0.35071  1.0000
  C   C95       1.0  0.96550  0.53551  0.35023  1.0000
  C   C96       1.0  0.99147  0.50596  0.34760  1.0000
  C   C97       1.0  0.04680  0.52700  0.34554  1.0000
  C   C98       1.0  0.03959  0.50590  0.34467  1.0000
  C   C99       1.0  0.06785  0.54253  0.34649  1.0000
  C   C100      1.0  0.07515  0.56395  0.34685  1.0000
  N   N10       1.0  0.06398  0.57348  0.34538  1.0000
  C   C101      1.0  0.07599  0.59412  0.34706  1.0000
  C   C102      1.0  0.09620  0.59808  0.34947  1.0000
  C   C103      1.0  0.09569  0.57949  0.34941  1.0000
  C   C104      1.0  0.06971  0.60905  0.34690  1.0000
  C   C105      1.0  0.08543  0.63002  0.35129  1.0000
  C   C106      1.0  0.09300  0.63941  0.43495  1.0000
  C   C107      1.0  0.10920  0.65982  0.43975  1.0000
  C   C108      1.0  0.11832  0.67142  0.36138  1.0000
  C   C109      1.0  0.13531  0.69189  0.36690  1.0000
  C   C110      1.0  0.16913  0.73292  0.38178  1.0000
  C   C111      1.0  0.16816  0.71692  0.43517  1.0000
  C   C112      1.0  0.15160  0.69677  0.42756  1.0000
  C   C113      1.0  0.08280  0.53620  0.34925  1.0000
  C   C114      1.0  0.08897  0.53188  0.43184  1.0000
  C   C115      1.0  0.10397  0.52596  0.43493  1.0000
  C   C116      1.0  0.11328  0.52424  0.35584  1.0000
  C   C117      1.0  0.12883  0.51863  0.35972  1.0000
  C   C118      1.0  0.12670  0.50251  0.41595  1.0000
  C   C119      1.0  0.14245  0.49767  0.42346  1.0000
  C   C120      1.0  0.16089  0.50872  0.37467  1.0000
  C   C121      1.0  0.97577  0.48497  0.35213  1.0000
  C   C122      1.0  0.94327  0.44339  0.36293  1.0000
  C   C123      1.0  0.95322  0.45465  0.44094  1.0000
  C   C124      1.0  0.96922  0.47514  0.43579  1.0000
  C   C125      1.0  0.92654  0.42278  0.36899  1.0000
  C   C126      1.0  0.91099  0.41732  0.43377  1.0000
  C   C127      1.0  0.89471  0.39702  0.44175  1.0000
  C   C128      1.0  0.89330  0.38145  0.38467  1.0000
  C   C129      1.0  0.97836  0.57878  0.34917  1.0000
  C   C130      1.0  0.97217  0.58285  0.43179  1.0000
  C   C131      1.0  0.95702  0.58857  0.43490  1.0000
  C   C132      1.0  0.94757  0.59031  0.35581  1.0000
  C   C133      1.0  0.93182  0.59562  0.35973  1.0000
  C   C134      1.0  0.89934  0.60489  0.37483  1.0000
  C   C135      1.0  0.91780  0.61606  0.42375  1.0000
  C   C136      1.0  0.93375  0.61154  0.41617  1.0000
  H   H77       1.0  0.91974  0.62748  0.46649  1.0000
  H   H78       1.0  0.94682  0.62000  0.45282  1.0000
  H   H79       1.0  0.95258  0.59094  0.49611  1.0000
  H   H80       1.0  0.97849  0.58147  0.49026  1.0000
  H   H81       1.0  0.05193  0.63484  0.34600  1.0000
  H   H82       1.0  0.95283  0.53715  0.35249  1.0000
  H   H83       1.0  0.95188  0.50293  0.35320  1.0000
  H   H84       1.0  0.97595  0.48288  0.49352  1.0000
  H   H85       1.0  0.94898  0.44799  0.50271  1.0000
  H   H86       1.0  0.04811  0.49877  0.34429  1.0000
  H   H87       1.0  0.10931  0.61207  0.35138  1.0000
  H   H88       1.0  0.10836  0.57784  0.35137  1.0000
  H   H89       1.0  0.08272  0.53321  0.49030  1.0000
  H   H90       1.0  0.10839  0.52339  0.49612  1.0000
  H   H91       1.0  0.14037  0.48610  0.46605  1.0000
  H   H92       1.0  0.11362  0.49412  0.45249  1.0000
  H   H93       1.0  0.15166  0.68563  0.46672  1.0000
  H   H94       1.0  0.17954  0.71977  0.48032  1.0000
  H   H95       1.0  0.11424  0.66614  0.50156  1.0000
  H   H96       1.0  0.08694  0.63140  0.49288  1.0000
  H   H97       1.0  0.91125  0.42814  0.47573  1.0000
  H   H98       1.0  0.88386  0.39375  0.48986  1.0000
  C   C137      1.0  0.18526  0.75276  0.39353  1.0000
  C   C138      1.0  0.17681  0.50469  0.38858  1.0000
  C   C139      1.0  0.87746  0.36145  0.39647  1.0000
  C   C140      1.0  0.88324  0.60861  0.38881  1.0000
  H   H99       1.0  0.19104  0.75704  0.45476  1.0000
  H   H100      1.0  0.88254  0.61461  0.44694  1.0000
  H   H101      1.0  0.87224  0.35680  0.45814  1.0000
  H   H102      1.0  0.17758  0.49873  0.44701  1.0000
  C   C141      1.0  0.47754  0.49403  0.34907  1.0000
  C   C142      1.0  0.46740  0.50507  0.34948  1.0000
  C   C143      1.0  0.48206  0.52595  0.34958  1.0000
  N   N11       1.0  0.50047  0.52678  0.34892  1.0000
  C   C144      1.0  0.49863  0.50791  0.34925  1.0000
  C   C145      1.0  0.51417  0.50240  0.35035  1.0000
  C   C146      1.0  0.53559  0.51654  0.35102  1.0000
  N   N12       1.0  0.54513  0.53725  0.34957  1.0000
  C   C147      1.0  0.56576  0.54587  0.35180  1.0000
  C   C148      1.0  0.56973  0.52962  0.35465  1.0000
  C   C149      1.0  0.55114  0.51155  0.35418  1.0000
  C   C150      1.0  0.58068  0.56708  0.35176  1.0000
  C   C151      1.0  0.57620  0.58334  0.35028  1.0000
  N   N13       1.0  0.55779  0.58251  0.34995  1.0000
  C   C152      1.0  0.55963  0.60137  0.34969  1.0000
  C   C153      1.0  0.58073  0.61525  0.34896  1.0000
  C   C154      1.0  0.59087  0.60421  0.34941  1.0000
  C   C155      1.0  0.54410  0.60688  0.35049  1.0000
  C   C156      1.0  0.52268  0.59275  0.35086  1.0000
  N   N14       1.0  0.51315  0.57205  0.34945  1.0000
  C   C157      1.0  0.49251  0.56342  0.35112  1.0000
  C   C158      1.0  0.48855  0.57967  0.35344  1.0000
  C   C159      1.0  0.50713  0.59774  0.35333  1.0000
  C   C160      1.0  0.47759  0.54221  0.35098  1.0000
  C   C161      1.0  0.45661  0.53695  0.35535  1.0000
  C   C162      1.0  0.44721  0.53496  0.43898  1.0000
  C   C163      1.0  0.42680  0.53073  0.44375  1.0000
  C   C164      1.0  0.41520  0.52837  0.36535  1.0000
  C   C165      1.0  0.39472  0.52486  0.37082  1.0000
  C   C166      1.0  0.35367  0.51757  0.38547  1.0000
  C   C167      1.0  0.36964  0.53249  0.43901  1.0000
  C   C168      1.0  0.38980  0.53612  0.43152  1.0000
  C   C169      1.0  0.55042  0.62815  0.35322  1.0000
  C   C170      1.0  0.55473  0.63849  0.43581  1.0000
  C   C171      1.0  0.56065  0.65941  0.43887  1.0000
  C   C172      1.0  0.56238  0.67058  0.35976  1.0000
  C   C173      1.0  0.56800  0.69173  0.36362  1.0000
  C   C174      1.0  0.58413  0.70563  0.41982  1.0000
  C   C175      1.0  0.58897  0.72620  0.42730  1.0000
  C   C176      1.0  0.57794  0.73369  0.37846  1.0000
  C   C177      1.0  0.60167  0.57236  0.35623  1.0000
  C   C178      1.0  0.64326  0.58145  0.36688  1.0000
  C   C179      1.0  0.63202  0.58001  0.44493  1.0000
  C   C180      1.0  0.61152  0.57552  0.43986  1.0000
  C   C181      1.0  0.66388  0.58533  0.37285  1.0000
  C   C182      1.0  0.66938  0.57517  0.43766  1.0000
  C   C183      1.0  0.68968  0.57918  0.44547  1.0000
  C   C184      1.0  0.70522  0.59340  0.38816  1.0000
  C   C185      1.0  0.50787  0.48114  0.35309  1.0000
  C   C186      1.0  0.50379  0.47072  0.43569  1.0000
  C   C187      1.0  0.49808  0.44985  0.43876  1.0000
  C   C188      1.0  0.49634  0.43881  0.35965  1.0000
  C   C189      1.0  0.49102  0.41773  0.36354  1.0000
  C   C190      1.0  0.48175  0.37595  0.37858  1.0000
  C   C191      1.0  0.47058  0.38316  0.42750  1.0000
  C   C192      1.0  0.47510  0.40364  0.41995  1.0000
  H   H103      1.0  0.45915  0.37359  0.47022  1.0000
  H   H104      1.0  0.46664  0.40818  0.45661  1.0000
  H   H105      1.0  0.49570  0.44292  0.49995  1.0000
  H   H106      1.0  0.50517  0.47831  0.49417  1.0000
  H   H107      1.0  0.47041  0.47838  0.34953  1.0000
  H   H108      1.0  0.45180  0.49864  0.35012  1.0000
  H   H109      1.0  0.51339  0.53934  0.34974  1.0000
  H   H110      1.0  0.54487  0.56994  0.35142  1.0000
  H   H111      1.0  0.54949  0.49723  0.35639  1.0000
  H   H112      1.0  0.58372  0.53051  0.35723  1.0000
  H   H113      1.0  0.60379  0.57441  0.49762  1.0000
  H   H114      1.0  0.63869  0.58234  0.50668  1.0000
  H   H115      1.0  0.60646  0.61065  0.34933  1.0000
  H   H116      1.0  0.58786  0.63090  0.34855  1.0000
  H   H117      1.0  0.47456  0.57878  0.35529  1.0000
  H   H118      1.0  0.50878  0.61206  0.35521  1.0000
  H   H119      1.0  0.55341  0.63083  0.49427  1.0000
  H   H120      1.0  0.56323  0.66629  0.50004  1.0000
  H   H121      1.0  0.60055  0.73562  0.46985  1.0000
  H   H122      1.0  0.59252  0.70087  0.45636  1.0000
  H   H123      1.0  0.40092  0.54726  0.47077  1.0000
  H   H124      1.0  0.36676  0.54093  0.48416  1.0000
  H   H125      1.0  0.42047  0.52932  0.50555  1.0000
  H   H126      1.0  0.45522  0.53682  0.49693  1.0000
  H   H127      1.0  0.65858  0.56455  0.47975  1.0000
  H   H128      1.0  0.69298  0.57153  0.49359  1.0000
  C   C193      1.0  0.33382  0.51383  0.39699  1.0000
  C   C194      1.0  0.58199  0.75363  0.39232  1.0000
  C   C195      1.0  0.72522  0.59753  0.39968  1.0000
  C   C196      1.0  0.47803  0.35610  0.39253  1.0000
  H   H129      1.0  0.32949  0.51521  0.45814  1.0000
  H   H130      1.0  0.47201  0.34930  0.45065  1.0000
  H   H131      1.0  0.72992  0.59689  0.46128  1.0000
  H   H132      1.0  0.58798  0.76027  0.45069  1.0000
  C   C197      1.0  0.59261  0.06507  0.35269  1.0000
  C   C198      1.0  0.58158  0.04390  0.35324  1.0000
  C   C199      1.0  0.56070  0.03768  0.35332  1.0000
  N   N15       1.0  0.55986  0.05526  0.35258  1.0000
  C   C200      1.0  0.57873  0.07228  0.35275  1.0000
  C   C201      1.0  0.58423  0.09333  0.35357  1.0000
  C   C202      1.0  0.57009  0.10061  0.35434  1.0000
  N   N16       1.0  0.54938  0.08943  0.35309  1.0000
  C   C203      1.0  0.54075  0.10143  0.35539  1.0000
  C   C204      1.0  0.55699  0.12164  0.35814  1.0000
  C   C205      1.0  0.57507  0.12114  0.35740  1.0000
  C   C206      1.0  0.51954  0.09514  0.35545  1.0000
  C   C207      1.0  0.50328  0.07440  0.35387  1.0000
  N   N17       1.0  0.50412  0.05682  0.35352  1.0000
  C   C208      1.0  0.48526  0.03980  0.35311  1.0000
  C   C209      1.0  0.47138  0.04701  0.35225  1.0000
  C   C210      1.0  0.48241  0.06818  0.35287  1.0000
  C   C211      1.0  0.47976  0.01875  0.35389  1.0000
  C   C212      1.0  0.49389  0.01147  0.35436  1.0000
  N   N18       1.0  0.51460  0.02265  0.35309  1.0000
  C   C213      1.0  0.52323  0.01065  0.35476  1.0000
  C   C214      1.0  0.50699  0.99043  0.35698  1.0000
  C   C215      1.0  0.48891  0.99093  0.35675  1.0000
  C   C216      1.0  0.54444  0.01694  0.35468  1.0000
  C   C217      1.0  0.54971  0.00122  0.35907  1.0000
  C   C218      1.0  0.55169  0.99365  0.44272  1.0000
  C   C219      1.0  0.55592  0.97746  0.44749  1.0000
  C   C220      1.0  0.55828  0.96836  0.36910  1.0000
  C   C221      1.0  0.56178  0.95137  0.37458  1.0000
  C   C222      1.0  0.56904  0.91757  0.38919  1.0000
  C   C223      1.0  0.55413  0.91853  0.44274  1.0000
  C   C224      1.0  0.55051  0.93508  0.43526  1.0000
  C   C225      1.0  0.45849  0.00379  0.35610  1.0000
  C   C226      1.0  0.44805  0.99750  0.43843  1.0000
  C   C227      1.0  0.42712  0.98250  0.44093  1.0000
  C   C228      1.0  0.41605  0.97329  0.36150  1.0000
  C   C229      1.0  0.39490  0.95774  0.36476  1.0000
  C   C230      1.0  0.38093  0.95980  0.42078  1.0000
  C   C231      1.0  0.36034  0.94405  0.42756  1.0000
  C   C232      1.0  0.35291  0.92569  0.37821  1.0000
  C   C233      1.0  0.51425  0.11083  0.35997  1.0000
  C   C234      1.0  0.50516  0.14331  0.37069  1.0000
  C   C235      1.0  0.50660  0.13336  0.44872  1.0000
  C   C236      1.0  0.51110  0.11737  0.44360  1.0000
  C   C237      1.0  0.50128  0.16003  0.37668  1.0000
  C   C238      1.0  0.51144  0.17558  0.44151  1.0000
  C   C239      1.0  0.50744  0.19186  0.44930  1.0000
  C   C240      1.0  0.49322  0.19329  0.39198  1.0000
  C   C241      1.0  0.60549  0.10830  0.35585  1.0000
  C   C242      1.0  0.61600  0.11460  0.43821  1.0000
  C   C243      1.0  0.63687  0.12976  0.44075  1.0000
  C   C244      1.0  0.64782  0.13912  0.36134  1.0000
  C   C245      1.0  0.66890  0.15488  0.36466  1.0000
  C   C246      1.0  0.71070  0.18737  0.37831  1.0000
  C   C247      1.0  0.70356  0.16899  0.42777  1.0000
  C   C248      1.0  0.68306  0.15304  0.42091  1.0000
  H   H133      1.0  0.71318  0.16711  0.47035  1.0000
  H   H134      1.0  0.67857  0.14002  0.45790  1.0000
  H   H135      1.0  0.64386  0.13430  0.50178  1.0000
  H   H136      1.0  0.60847  0.10837  0.49690  1.0000
  H   H137      1.0  0.60826  0.07361  0.35299  1.0000
  H   H138      1.0  0.58802  0.03474  0.35388  1.0000
  H   H139      1.0  0.54730  0.05561  0.35311  1.0000
  H   H140      1.0  0.51669  0.05647  0.35529  1.0000
  H   H141      1.0  0.58939  0.13381  0.35961  1.0000
  H   H142      1.0  0.55610  0.13474  0.36075  1.0000
  H   H143      1.0  0.51221  0.11065  0.50135  1.0000
  H   H144      1.0  0.50428  0.13760  0.51047  1.0000
  H   H145      1.0  0.47597  0.07734  0.35278  1.0000
  H   H146      1.0  0.45572  0.03848  0.35183  1.0000
  H   H147      1.0  0.50788  0.97732  0.35875  1.0000
  H   H148      1.0  0.47459  0.97826  0.35850  1.0000
  H   H149      1.0  0.45564  0.00368  0.49711  1.0000
  H   H150      1.0  0.42017  0.97799  0.50193  1.0000
  H   H151      1.0  0.35087  0.94607  0.47001  1.0000
  H   H152      1.0  0.38563  0.97282  0.45767  1.0000
  H   H153      1.0  0.53938  0.93501  0.47452  1.0000
  H   H154      1.0  0.54569  0.90714  0.48787  1.0000
  H   H155      1.0  0.55732  0.97242  0.50930  1.0000
  H   H156      1.0  0.54983  0.99971  0.50065  1.0000
  H   H157      1.0  0.52206  0.17533  0.48358  1.0000
  H   H158      1.0  0.51509  0.20272  0.49740  1.0000
  C   C249      1.0  0.57278  0.90144  0.40071  1.0000
  C   C250      1.0  0.33295  0.90977  0.39136  1.0000
  C   C251      1.0  0.48910  0.20915  0.40348  1.0000
  C   C252      1.0  0.73058  0.20348  0.39149  1.0000
  H   H159      1.0  0.57141  0.89564  0.46188  1.0000
  H   H160      1.0  0.73749  0.20425  0.44942  1.0000
  H   H161      1.0  0.48974  0.21438  0.46509  1.0000
  H   H162      1.0  0.32622  0.90892  0.44959  1.0000
  C   C253      1.0  0.28827  0.49720  0.39939  1.0000
  C   C254      1.0  0.26890  0.49575  0.39775  1.0000
  C   C255      1.0  0.24410  0.50437  0.32896  1.0000
  C   C256      1.0  0.23723  0.50906  0.40870  1.0000
  C   C257      1.0  0.21909  0.51010  0.41043  1.0000
  C   C258      1.0  0.20709  0.50634  0.33240  1.0000
  H   H163      1.0  0.24580  0.51257  0.46594  1.0000
  H   H164      1.0  0.21505  0.51424  0.46854  1.0000
  H   H165      1.0  0.29195  0.49094  0.45207  1.0000
  H   H166      1.0  0.25904  0.48834  0.44942  1.0000
  N   N19       1.0  0.19059  0.50850  0.32920  1.0000
  C   C259      1.0  0.58943  0.87254  0.40315  1.0000
  C   C260      1.0  0.59091  0.85463  0.40150  1.0000
  C   C261      1.0  0.58231  0.82133  0.33270  1.0000
  C   C262      1.0  0.57764  0.80964  0.41245  1.0000
  C   C263      1.0  0.57659  0.79046  0.41418  1.0000
  C   C264      1.0  0.58034  0.78235  0.33614  1.0000
  H   H167      1.0  0.57410  0.81459  0.46966  1.0000
  H   H168      1.0  0.57243  0.78217  0.47226  1.0000
  H   H169      1.0  0.59569  0.88238  0.45582  1.0000
  H   H170      1.0  0.59831  0.85209  0.45316  1.0000
  N   N20       1.0  0.57816  0.76369  0.33294  1.0000
  C   C265      1.0  0.21395  0.79834  0.39687  1.0000
  C   C266      1.0  0.23185  0.81773  0.39596  1.0000
  C   C267      1.0  0.26531  0.84262  0.32864  1.0000
  C   C268      1.0  0.27682  0.84939  0.40892  1.0000
  C   C269      1.0  0.29600  0.86752  0.41152  1.0000
  C   C270      1.0  0.30429  0.87961  0.33387  1.0000
  H   H171      1.0  0.27173  0.84072  0.46588  1.0000
  H   H172      1.0  0.30416  0.87146  0.46995  1.0000
  H   H173      1.0  0.20399  0.79459  0.44916  1.0000
  H   H174      1.0  0.23428  0.82753  0.44774  1.0000
  N   N21       1.0  0.32297  0.89609  0.33147  1.0000
  C   C271      1.0  0.77081  0.61430  0.40039  1.0000
  C   C272      1.0  0.79031  0.61605  0.39838  1.0000
  C   C273      1.0  0.81515  0.60761  0.33009  1.0000
  C   C274      1.0  0.82249  0.60339  0.41013  1.0000
  C   C275      1.0  0.84083  0.60270  0.41171  1.0000
  C   C276      1.0  0.85252  0.60632  0.33316  1.0000
  H   H175      1.0  0.81415  0.59999  0.46780  1.0000
  H   H176      1.0  0.84520  0.59887  0.47009  1.0000
  H   H177      1.0  0.76725  0.62070  0.45246  1.0000
  H   H178      1.0  0.80035  0.62377  0.44917  1.0000
  N   N22       1.0  0.86920  0.60447  0.32988  1.0000
  C   C277      1.0  0.47234  0.23797  0.40418  1.0000
  C   C278      1.0  0.47061  0.25574  0.40218  1.0000
  C   C279      1.0  0.47905  0.28913  0.33386  1.0000
  C   C280      1.0  0.48327  0.30056  0.41390  1.0000
  C   C281      1.0  0.48397  0.31958  0.41544  1.0000
  C   C282      1.0  0.48033  0.32779  0.33691  1.0000
  H   H179      1.0  0.48667  0.29551  0.47156  1.0000
  H   H180      1.0  0.48778  0.32768  0.47384  1.0000
  H   H181      1.0  0.46594  0.22792  0.45624  1.0000
  H   H182      1.0  0.46289  0.25797  0.45296  1.0000
  N   N23       1.0  0.48218  0.34632  0.33361  1.0000
  C   C283      1.0  0.84881  0.31584  0.39799  1.0000
  C   C284      1.0  0.83106  0.29634  0.39669  1.0000
  C   C285      1.0  0.79751  0.27143  0.32982  1.0000
  C   C286      1.0  0.78627  0.26419  0.41036  1.0000
  C   C287      1.0  0.76723  0.24588  0.41273  1.0000
  C   C288      1.0  0.75883  0.23409  0.33456  1.0000
  H   H183      1.0  0.79143  0.27261  0.46776  1.0000
  H   H184      1.0  0.75926  0.24158  0.47146  1.0000
  H   H185      1.0  0.85898  0.31946  0.44965  1.0000
  H   H186      1.0  0.82894  0.28635  0.44755  1.0000
  N   N24       1.0  0.74028  0.21742  0.33208  1.0000
