data_image0
_chemical_formula_structural       C2HC6H3C7H3CNCNCHCH3C2H2C2HCHNCNC2NCNC2NCNC2H2NCNC2H3C8H4C2NC2H3CHC2H2C2H2C8H3CNCNCHCH3NCNC2NCNCN2C3H4C2H2CNCNCHCH2C2HC6H3C2NCNCH4C2HC2H3CNCNCN2C2HC4H2C2H3C2NCH2C2H2C2HC6H3C2NCNC2H3CH3C2HC4H2C2HC6H3C2HC6H3C6H2C2HC6H3C2NCNC2H3CH3C2NCNC2H3CH3C2NCNC2H3CH3C2NCNC2H3CH3C2NCNC2H3CH3C2HC6H3C2HC6H3C2HC6H3C5H2C2HC6H3C2HC6H3CNCNCNCNCNCNCNCNC2NCNCNCNCNCNCNCNCNCNCNCNCNCNCNCNCNCNCNCNCNCNCNCNCN2C2H2CH2C2NCNC2H3CH3C2HC6H3C2NCNCH3C2NCNC2H3CH3C2NCNC2H3CH3CNC2H3C2NCNC2H3CH3C2HC6H3C2HC6H3C2HC6H3C2HC6H3C2HC6H3C2NCNC2H3CH3C2NCNC2H3CH3C2NCNC2H3CH3NC2H3C2NCNC2H3CH3C2NCNC2H3CH3
_chemical_formula_sum              "C384 H240 N96"
_cell_length_a       62.1829
_cell_length_b       62.183
_cell_length_c       14.8703
_cell_angle_alpha    90
_cell_angle_beta     90
_cell_angle_gamma    120

_space_group_name_H-M_alt    "P 1"
_space_group_IT_number       1

loop_
  _space_group_symop_operation_xyz
  'x, y, z'

loop_
  _atom_site_type_symbol
  _atom_site_label
  _atom_site_symmetry_multiplicity
  _atom_site_fract_x
  _atom_site_fract_y
  _atom_site_fract_z
  _atom_site_occupancy
  C   C1        1.0  0.00667  0.12982  0.26028  1.0000
  C   C2        1.0  0.00670  0.15262  0.26238  1.0000
  H   H1        1.0  0.00680  0.16104  0.20300  1.0000
  C   C3        1.0  0.00654  0.09528  0.34233  1.0000
  C   C4        1.0  0.00655  0.04944  0.34243  1.0000
  C   C5        1.0  0.00663  0.06112  0.26066  1.0000
  C   C6        1.0  0.00664  0.08393  0.25943  1.0000
  C   C7        1.0  0.00673  0.09568  0.17804  1.0000
  C   C8        1.0  0.00676  0.11833  0.17845  1.0000
  H   H2        1.0  0.00680  0.08784  0.11762  1.0000
  H   H3        1.0  0.00684  0.12638  0.11832  1.0000
  H   H4        1.0  0.00669  0.05290  0.20103  1.0000
  C   C9        1.0  0.13186  0.00423  0.26029  1.0000
  C   C10       1.0  0.09746  0.00436  0.34234  1.0000
  C   C11       1.0  0.05161  0.00436  0.34245  1.0000
  C   C12       1.0  0.06321  0.00427  0.26067  1.0000
  C   C13       1.0  0.08602  0.00427  0.25944  1.0000
  C   C14       1.0  0.09767  0.00417  0.17805  1.0000
  C   C15       1.0  0.12029  0.00414  0.17846  1.0000
  H   H5        1.0  0.08976  0.00410  0.11763  1.0000
  H   H6        1.0  0.12826  0.00406  0.11833  1.0000
  H   H7        1.0  0.05493  0.00421  0.20104  1.0000
  C   C16       1.0  0.13565  0.36726  0.25855  1.0000
  N   N1        1.0  0.11773  0.34286  0.26357  1.0000
  C   C17       1.0  0.10856  0.32998  0.34142  1.0000
  N   N2        1.0  0.07956  0.29215  0.26356  1.0000
  C   C18       1.0  0.06076  0.26811  0.25880  1.0000
  H   H8        1.0  0.12663  0.37610  0.13211  1.0000
  C   C19       1.0  0.05149  0.25742  0.16860  1.0000
  H   H9        1.0  0.06196  0.27069  0.11541  1.0000
  H   H10       1.0  0.03200  0.25218  0.16184  1.0000
  H   H11       1.0  0.05328  0.24098  0.15914  1.0000
  C   C20       1.0  0.14127  0.56518  0.33937  1.0000
  C   C21       1.0  0.14075  0.56163  0.16668  1.0000
  H   H12       1.0  0.13697  0.57697  0.16594  1.0000
  H   H13       1.0  0.12539  0.54577  0.13322  1.0000
  C   C22       1.0  0.03279  0.55899  0.25811  1.0000
  C   C23       1.0  0.05897  0.57145  0.26063  1.0000
  H   H14       1.0  0.06875  0.57585  0.20153  1.0000
  C   C24       1.0  0.01952  0.55252  0.17624  1.0000
  H   H15       1.0  0.02874  0.55701  0.11605  1.0000
  N   N3        1.0  0.00654  0.98261  0.34111  1.0000
  C   C25       1.0  0.02866  0.00436  0.34094  1.0000
  N   N4        1.0  0.02830  0.02611  0.34111  1.0000
  C   C26       1.0  0.00655  0.02648  0.34093  1.0000
  C   C27       1.0  0.00657  0.18697  0.34290  1.0000
  N   N5        1.0  0.02838  0.20909  0.34160  1.0000
  C   C28       1.0  0.02855  0.23111  0.34065  1.0000
  N   N6        1.0  0.00656  0.23074  0.34131  1.0000
  C   C29       1.0  0.13232  0.58199  0.34051  1.0000
  C   C30       1.0  0.13805  0.62250  0.34236  1.0000
  N   N7        1.0  0.11302  0.61272  0.34291  1.0000
  C   C31       1.0  0.09765  0.58775  0.34229  1.0000
  N   N8        1.0  0.10739  0.57254  0.34113  1.0000
  C   C32       1.0  0.00657  0.16404  0.34456  1.0000
  C   C33       1.0  0.00654  0.11818  0.34273  1.0000
  H   H16       1.0  0.02267  0.16356  0.55356  1.0000
  H   H17       1.0  0.02290  0.04951  0.52125  1.0000
  N   N9        1.0  0.13203  0.00448  0.42037  1.0000
  C   C34       1.0  0.12036  0.00436  0.34274  1.0000
  N   N10       1.0  0.08574  0.00444  0.41961  1.0000
  C   C35       1.0  0.06378  0.00444  0.42353  1.0000
  C   C36       1.0  0.05359  0.00450  0.51337  1.0000
  H   H18       1.0  0.06560  0.00454  0.56701  1.0000
  H   H19       1.0  0.03533  0.98800  0.52126  1.0000
  H   H20       1.0  0.05182  0.02101  0.52095  1.0000
  C   C37       1.0  0.11816  0.34266  0.42406  1.0000
  C   C38       1.0  0.13682  0.36799  0.42195  1.0000
  C   C39       1.0  0.08956  0.30468  0.34142  1.0000
  C   C40       1.0  0.05056  0.25461  0.33963  1.0000
  C   C41       1.0  0.06042  0.26702  0.42204  1.0000
  C   C42       1.0  0.07996  0.29199  0.42410  1.0000
  C   C43       1.0  0.08970  0.30477  0.50582  1.0000
  C   C44       1.0  0.10864  0.32982  0.50581  1.0000
  H   H21       1.0  0.08296  0.29599  0.56607  1.0000
  H   H22       1.0  0.11524  0.33867  0.56603  1.0000
  H   H23       1.0  0.05280  0.25800  0.48133  1.0000
  H   H24       1.0  0.13404  0.64026  0.52195  1.0000
  C   C45       1.0  0.07175  0.57729  0.34353  1.0000
  C   C46       1.0  0.05779  0.57045  0.42455  1.0000
  N   N11       1.0  0.03260  0.55842  0.41906  1.0000
  C   C47       1.0  0.01961  0.55242  0.34078  1.0000
  C   C48       1.0  0.06836  0.57494  0.51644  1.0000
  H   H25       1.0  0.08859  0.58479  0.51697  1.0000
  H   H26       1.0  0.06173  0.55722  0.55079  1.0000
  H   H27       1.0  0.06228  0.58601  0.55417  1.0000
  C   C49       1.0  0.15464  0.00420  0.26239  1.0000
  H   H28       1.0  0.16296  0.00411  0.20301  1.0000
  C   C50       1.0  0.14585  0.38071  0.33951  1.0000
  C   C51       1.0  0.14284  0.37773  0.16683  1.0000
  H   H29       1.0  0.15728  0.39723  0.16660  1.0000
  H   H30       1.0  0.14972  0.36732  0.12927  1.0000
  C   C52       1.0  0.21606  0.95013  0.25882  1.0000
  C   C53       1.0  0.21463  0.95939  0.16862  1.0000
  H   H31       1.0  0.21743  0.94893  0.11542  1.0000
  H   H32       1.0  0.19641  0.95761  0.15915  1.0000
  C   C54       1.0  0.20301  0.74038  0.25976  1.0000
  C   C55       1.0  0.21750  0.76655  0.26253  1.0000
  C   C56       1.0  0.18164  0.70083  0.34182  1.0000
  C   C57       1.0  0.15349  0.64853  0.34333  1.0000
  C   C58       1.0  0.16048  0.66152  0.26083  1.0000
  C   C59       1.0  0.17463  0.68772  0.25894  1.0000
  C   C60       1.0  0.18183  0.70110  0.17732  1.0000
  C   C61       1.0  0.19593  0.72719  0.17773  1.0000
  H   H33       1.0  0.17694  0.69197  0.11699  1.0000
  H   H34       1.0  0.20103  0.73645  0.11768  1.0000
  H   H35       1.0  0.15503  0.65184  0.20153  1.0000
  C   C62       1.0  0.14379  0.55441  0.25865  1.0000
  N   N12       1.0  0.14898  0.53563  0.26434  1.0000
  C   C63       1.0  0.15192  0.52613  0.34266  1.0000
  N   N13       1.0  0.15892  0.49602  0.26507  1.0000
  C   C64       1.0  0.16366  0.47691  0.26036  1.0000
  H   H36       1.0  0.15770  0.56731  0.12823  1.0000
  C   C65       1.0  0.16593  0.46816  0.17020  1.0000
  H   H37       1.0  0.16299  0.47851  0.11690  1.0000
  H   H38       1.0  0.15213  0.44854  0.16252  1.0000
  H   H39       1.0  0.18443  0.47055  0.16184  1.0000
  N   N14       1.0  0.21125  0.02614  0.34360  1.0000
  C   C66       1.0  0.18913  0.00433  0.34290  1.0000
  N   N15       1.0  0.18943  0.98252  0.34161  1.0000
  C   C67       1.0  0.21127  0.98234  0.34067  1.0000
  C   C68       1.0  0.20575  0.43862  0.34430  1.0000
  N   N16       1.0  0.18855  0.41398  0.34284  1.0000
  C   C69       1.0  0.16384  0.40630  0.34124  1.0000
  N   N17       1.0  0.15650  0.42357  0.34079  1.0000
  C   C70       1.0  0.17353  0.44823  0.34225  1.0000
  N   N18       1.0  0.19804  0.45552  0.34396  1.0000
  N   N19       1.0  0.14767  0.60705  0.34123  1.0000
  C   C71       1.0  0.16620  0.00434  0.34457  1.0000
  C   C72       1.0  0.15398  0.00449  0.42532  1.0000
  C   C73       1.0  0.16329  0.00463  0.51708  1.0000
  H   H40       1.0  0.18081  0.00462  0.51739  1.0000
  H   H41       1.0  0.14961  0.98823  0.55356  1.0000
  H   H42       1.0  0.16610  0.02116  0.55286  1.0000
  H   H43       1.0  0.14369  0.37735  0.48127  1.0000
  C   C74       1.0  0.21276  0.96033  0.33965  1.0000
  C   C75       1.0  0.21532  0.95047  0.42205  1.0000
  H   H44       1.0  0.21392  0.95809  0.48134  1.0000
  H   H45       1.0  0.21496  0.44050  0.51880  1.0000
  C   C76       1.0  0.21697  0.76527  0.42612  1.0000
  N   N20       1.0  0.20302  0.74008  0.42047  1.0000
  C   C77       1.0  0.19577  0.72708  0.34219  1.0000
  N   N21       1.0  0.17448  0.68765  0.41976  1.0000
  C   C78       1.0  0.16084  0.66242  0.42442  1.0000
  H   H46       1.0  0.20630  0.77012  0.55595  1.0000
  C   C79       1.0  0.15420  0.65079  0.51453  1.0000
  H   H47       1.0  0.16176  0.66471  0.56787  1.0000
  H   H48       1.0  0.16158  0.63827  0.52305  1.0000
  C   C80       1.0  0.14961  0.53633  0.42508  1.0000
  C   C81       1.0  0.14416  0.55581  0.42229  1.0000
  H   H49       1.0  0.14167  0.56280  0.48133  1.0000
  C   C82       1.0  0.15677  0.50620  0.34304  1.0000
  C   C83       1.0  0.16652  0.46655  0.34144  1.0000
  C   C84       1.0  0.16453  0.47668  0.42396  1.0000
  C   C85       1.0  0.15952  0.49647  0.42591  1.0000
  C   C86       1.0  0.15734  0.50682  0.50753  1.0000
  C   C87       1.0  0.15233  0.52651  0.50713  1.0000
  H   H50       1.0  0.15924  0.50003  0.56786  1.0000
  H   H51       1.0  0.15067  0.53359  0.56717  1.0000
  H   H52       1.0  0.16698  0.46976  0.48321  1.0000
  C   C88       1.0  0.24357  0.86504  0.33951  1.0000
  C   C89       1.0  0.24032  0.87524  0.25855  1.0000
  N   N22       1.0  0.23382  0.89315  0.26357  1.0000
  C   C90       1.0  0.23012  0.90232  0.34141  1.0000
  N   N23       1.0  0.22130  0.93133  0.26357  1.0000
  C   C91       1.0  0.24359  0.86805  0.16682  1.0000
  H   H53       1.0  0.24867  0.85362  0.16659  1.0000
  H   H54       1.0  0.25818  0.88426  0.13210  1.0000
  H   H55       1.0  0.22631  0.86116  0.12926  1.0000
  H   H56       1.0  0.22889  0.97889  0.16186  1.0000
  C   C92       1.0  0.25677  0.04832  0.34376  1.0000
  C   C93       1.0  0.26927  0.05813  0.26149  1.0000
  H   H57       1.0  0.26031  0.05049  0.20213  1.0000
  C   C94       1.0  0.27052  0.46479  0.25974  1.0000
  C   C95       1.0  0.24435  0.45311  0.26250  1.0000
  H   H58       1.0  0.23459  0.44925  0.20345  1.0000
  H   H59       1.0  0.27444  0.46674  0.11766  1.0000
  H   H60       1.0  0.22338  0.77630  0.20348  1.0000
  C   C96       1.0  0.23326  0.02631  0.34271  1.0000
  N   N24       1.0  0.23289  0.00433  0.34132  1.0000
  C   C97       1.0  0.24158  0.80514  0.34429  1.0000
  N   N25       1.0  0.23414  0.82234  0.34284  1.0000
  C   C98       1.0  0.25117  0.84705  0.34121  1.0000
  N   N26       1.0  0.27579  0.85440  0.34076  1.0000
  N   N27       1.0  0.26619  0.81285  0.34395  1.0000
  C   C99       1.0  0.23321  0.89272  0.42405  1.0000
  C   C100      1.0  0.23988  0.87407  0.42194  1.0000
  H   H61       1.0  0.24237  0.86720  0.48125  1.0000
  C   C101      1.0  0.22383  0.92133  0.34143  1.0000
  C   C102      1.0  0.22074  0.93093  0.42410  1.0000
  C   C103      1.0  0.22377  0.92118  0.50583  1.0000
  C   C104      1.0  0.22988  0.90224  0.50581  1.0000
  H   H62       1.0  0.22174  0.92793  0.56607  1.0000
  H   H63       1.0  0.23213  0.89564  0.56603  1.0000
  C   C105      1.0  0.27017  0.05858  0.42472  1.0000
  C   C106      1.0  0.25938  0.04936  0.51485  1.0000
  H   H64       1.0  0.27259  0.05985  0.56816  1.0000
  H   H65       1.0  0.25414  0.02987  0.52181  1.0000
  H   H66       1.0  0.24293  0.05115  0.52391  1.0000
  C   C107      1.0  0.23151  0.44740  0.34536  1.0000
  C   C108      1.0  0.24562  0.45386  0.42608  1.0000
  N   N28       1.0  0.27081  0.46510  0.42043  1.0000
  C   C109      1.0  0.23518  0.44979  0.51807  1.0000
  H   H67       1.0  0.24236  0.46762  0.55215  1.0000
  H   H68       1.0  0.24077  0.43835  0.55592  1.0000
  C   C110      1.0  0.22460  0.77938  0.34540  1.0000
  C   C111      1.0  0.22333  0.77572  0.51810  1.0000
  H   H69       1.0  0.23425  0.79594  0.51882  1.0000
  H   H70       1.0  0.23399  0.76854  0.55219  1.0000
  C   C112      1.0  0.88110  0.87904  0.26027  1.0000
  C   C113      1.0  0.85829  0.85626  0.26237  1.0000
  H   H71       1.0  0.84987  0.84794  0.20299  1.0000
  C   C114      1.0  0.91563  0.91344  0.34233  1.0000
  C   C115      1.0  0.96147  0.95929  0.34243  1.0000
  C   C116      1.0  0.94978  0.94769  0.26066  1.0000
  C   C117      1.0  0.92698  0.92489  0.25943  1.0000
  C   C118      1.0  0.91523  0.91323  0.17803  1.0000
  C   C119      1.0  0.89258  0.89061  0.17845  1.0000
  H   H72       1.0  0.92307  0.92114  0.11761  1.0000
  H   H73       1.0  0.88453  0.88265  0.11831  1.0000
  H   H74       1.0  0.95801  0.95598  0.20103  1.0000
  C   C120      1.0  0.63019  0.76733  0.33952  1.0000
  C   C121      1.0  0.64364  0.77058  0.25856  1.0000
  N   N29       1.0  0.66804  0.77707  0.26358  1.0000
  C   C122      1.0  0.68092  0.78077  0.34142  1.0000
  N   N30       1.0  0.71875  0.78959  0.26357  1.0000
  C   C123      1.0  0.74279  0.79484  0.25882  1.0000
  C   C124      1.0  0.63318  0.76731  0.16684  1.0000
  H   H75       1.0  0.61367  0.76224  0.16661  1.0000
  H   H76       1.0  0.63480  0.75272  0.13212  1.0000
  H   H77       1.0  0.64358  0.78459  0.12927  1.0000
  C   C125      1.0  0.75348  0.79626  0.16862  1.0000
  H   H78       1.0  0.74021  0.79344  0.11542  1.0000
  H   H79       1.0  0.75873  0.78201  0.16188  1.0000
  H   H80       1.0  0.76991  0.81449  0.15912  1.0000
  C   C126      1.0  0.34489  0.11591  0.26007  1.0000
  C   C127      1.0  0.37021  0.13457  0.26235  1.0000
  H   H81       1.0  0.37962  0.14143  0.20310  1.0000
  C   C128      1.0  0.30684  0.08733  0.34241  1.0000
  C   C129      1.0  0.29423  0.07770  0.25964  1.0000
  C   C130      1.0  0.30707  0.08742  0.17800  1.0000
  C   C131      1.0  0.33211  0.10637  0.17821  1.0000
  H   H82       1.0  0.29835  0.08065  0.11770  1.0000
  H   H83       1.0  0.34101  0.11295  0.11806  1.0000
  C   C132      1.0  0.77975  0.66602  0.26008  1.0000
  C   C133      1.0  0.77308  0.64070  0.26235  1.0000
  H   H84       1.0  0.77054  0.63130  0.20309  1.0000
  C   C134      1.0  0.78922  0.70407  0.34246  1.0000
  C   C135      1.0  0.80028  0.75414  0.34385  1.0000
  C   C136      1.0  0.79759  0.74164  0.26155  1.0000
  C   C137      1.0  0.79219  0.71667  0.25969  1.0000
  C   C138      1.0  0.78906  0.70384  0.17804  1.0000
  C   C139      1.0  0.78297  0.67880  0.17823  1.0000
  H   H85       1.0  0.79102  0.71257  0.11775  1.0000
  H   H86       1.0  0.78065  0.66990  0.11808  1.0000
  H   H87       1.0  0.79888  0.75059  0.20221  1.0000
  C   C140      1.0  0.89498  0.23113  0.26007  1.0000
  C   C141      1.0  0.87632  0.23780  0.26234  1.0000
  H   H88       1.0  0.86946  0.24035  0.20308  1.0000
  C   C142      1.0  0.92355  0.22166  0.34243  1.0000
  C   C143      1.0  0.96257  0.21061  0.34382  1.0000
  C   C144      1.0  0.95277  0.21331  0.26152  1.0000
  C   C145      1.0  0.93320  0.21870  0.25966  1.0000
  C   C146      1.0  0.92348  0.22182  0.17802  1.0000
  C   C147      1.0  0.90452  0.22790  0.17821  1.0000
  H   H89       1.0  0.93027  0.21989  0.11772  1.0000
  H   H90       1.0  0.89796  0.23024  0.11806  1.0000
  H   H91       1.0  0.96042  0.21201  0.20217  1.0000
  C   C148      1.0  0.31006  0.48297  0.34180  1.0000
  C   C149      1.0  0.36237  0.50714  0.34332  1.0000
  C   C150      1.0  0.34937  0.50113  0.26082  1.0000
  C   C151      1.0  0.32317  0.48907  0.25893  1.0000
  C   C152      1.0  0.30980  0.48289  0.17730  1.0000
  C   C153      1.0  0.28371  0.47090  0.17771  1.0000
  H   H92       1.0  0.31893  0.48714  0.11697  1.0000
  H   H93       1.0  0.35905  0.50536  0.20152  1.0000
  C   C154      1.0  0.54609  0.80788  0.25973  1.0000
  C   C155      1.0  0.55776  0.79339  0.26249  1.0000
  H   H94       1.0  0.56164  0.78751  0.20345  1.0000
  C   C156      1.0  0.52791  0.82925  0.34178  1.0000
  C   C157      1.0  0.50375  0.85740  0.34329  1.0000
  C   C158      1.0  0.50976  0.85041  0.26079  1.0000
  C   C159      1.0  0.52182  0.83627  0.25891  1.0000
  C   C160      1.0  0.52800  0.82907  0.17729  1.0000
  C   C161      1.0  0.53998  0.81497  0.17770  1.0000
  H   H95       1.0  0.52375  0.83396  0.11695  1.0000
  H   H96       1.0  0.54414  0.80986  0.11765  1.0000
  H   H97       1.0  0.50553  0.85586  0.20149  1.0000
  C   C162      1.0  0.44951  0.22931  0.33889  1.0000
  C   C163      1.0  0.45609  0.24341  0.25815  1.0000
  N   N31       1.0  0.46734  0.26860  0.26372  1.0000
  C   C164      1.0  0.47302  0.28161  0.34195  1.0000
  N   N32       1.0  0.49129  0.32103  0.26427  1.0000
  C   C165      1.0  0.50289  0.34626  0.25953  1.0000
  C   C166      1.0  0.45208  0.23295  0.16620  1.0000
  H   H98       1.0  0.44275  0.21273  0.16553  1.0000
  H   H99       1.0  0.46994  0.24010  0.13235  1.0000
  H   H100      1.0  0.44070  0.23857  0.12809  1.0000
  C   C167      1.0  0.50801  0.35787  0.16938  1.0000
  H   H101      1.0  0.50171  0.34394  0.11608  1.0000
  H   H102      1.0  0.52793  0.37038  0.16116  1.0000
  H   H103      1.0  0.49842  0.36843  0.16158  1.0000
  C   C168      1.0  0.78848  0.56136  0.33894  1.0000
  C   C169      1.0  0.79604  0.55481  0.25818  1.0000
  N   N33       1.0  0.80998  0.54357  0.26375  1.0000
  C   C170      1.0  0.81732  0.53789  0.34198  1.0000
  N   N34       1.0  0.83847  0.51962  0.26428  1.0000
  C   C171      1.0  0.85208  0.50802  0.25954  1.0000
  C   C172      1.0  0.78959  0.55882  0.16623  1.0000
  H   H104      1.0  0.77868  0.56813  0.16554  1.0000
  H   H105      1.0  0.77889  0.54096  0.13235  1.0000
  H   H106      1.0  0.80658  0.57022  0.12815  1.0000
  C   C173      1.0  0.85858  0.50290  0.16938  1.0000
  H   H107      1.0  0.85095  0.50920  0.11609  1.0000
  H   H108      1.0  0.85116  0.48298  0.16116  1.0000
  H   H109      1.0  0.87872  0.51248  0.16158  1.0000
  C   C174      1.0  0.78159  0.22244  0.33894  1.0000
  C   C175      1.0  0.76749  0.21488  0.25818  1.0000
  N   N35       1.0  0.74230  0.20094  0.26375  1.0000
  C   C176      1.0  0.72929  0.19360  0.34198  1.0000
  N   N36       1.0  0.68987  0.17245  0.26429  1.0000
  C   C177      1.0  0.66465  0.15883  0.25955  1.0000
  C   C178      1.0  0.77795  0.22132  0.16622  1.0000
  H   H110      1.0  0.79817  0.23223  0.16554  1.0000
  H   H111      1.0  0.77079  0.23201  0.13232  1.0000
  H   H112      1.0  0.77235  0.20432  0.12816  1.0000
  C   C179      1.0  0.65303  0.15234  0.16940  1.0000
  H   H113      1.0  0.66696  0.15997  0.11610  1.0000
  H   H114      1.0  0.64053  0.15975  0.16119  1.0000
  H   H115      1.0  0.64248  0.13220  0.16158  1.0000
  C   C180      1.0  0.44570  0.57828  0.33935  1.0000
  C   C181      1.0  0.45648  0.59156  0.25863  1.0000
  N   N37       1.0  0.47527  0.61553  0.26432  1.0000
  C   C182      1.0  0.48477  0.62797  0.34265  1.0000
  N   N38       1.0  0.51488  0.66508  0.26506  1.0000
  C   C183      1.0  0.53399  0.68892  0.26035  1.0000
  C   C184      1.0  0.44927  0.58129  0.16667  1.0000
  H   H116      1.0  0.43393  0.56218  0.16593  1.0000
  H   H117      1.0  0.46513  0.58178  0.13326  1.0000
  H   H118      1.0  0.44360  0.59258  0.12817  1.0000
  C   C185      1.0  0.54274  0.69995  0.17019  1.0000
  H   H119      1.0  0.53239  0.68667  0.11690  1.0000
  H   H120      1.0  0.56236  0.70576  0.16249  1.0000
  H   H121      1.0  0.54035  0.71607  0.16186  1.0000
  C   C186      1.0  0.43263  0.86964  0.33945  1.0000
  C   C187      1.0  0.41934  0.86709  0.25871  1.0000
  N   N39       1.0  0.39537  0.86190  0.26438  1.0000
  C   C188      1.0  0.38292  0.85896  0.34269  1.0000
  N   N40       1.0  0.34581  0.85196  0.26508  1.0000
  C   C189      1.0  0.32197  0.84723  0.26036  1.0000
  C   C190      1.0  0.42961  0.87015  0.16674  1.0000
  H   H122      1.0  0.44873  0.87395  0.16599  1.0000
  H   H123      1.0  0.42909  0.88551  0.13330  1.0000
  H   H124      1.0  0.41834  0.85320  0.12827  1.0000
  C   C191      1.0  0.31095  0.84496  0.17020  1.0000
  H   H125      1.0  0.32423  0.84788  0.11690  1.0000
  H   H126      1.0  0.30514  0.85876  0.16249  1.0000
  H   H127      1.0  0.29483  0.82645  0.16185  1.0000
  C   C192      1.0  0.53863  0.14764  0.25920  1.0000
  C   C193      1.0  0.55814  0.14223  0.26197  1.0000
  H   H128      1.0  0.56521  0.13985  0.20292  1.0000
  C   C194      1.0  0.50840  0.15463  0.34124  1.0000
  C   C195      1.0  0.46874  0.16437  0.34288  1.0000
  C   C196      1.0  0.47895  0.16249  0.26036  1.0000
  C   C197      1.0  0.49874  0.15750  0.25839  1.0000
  C   C198      1.0  0.50917  0.15544  0.17677  1.0000
  C   C199      1.0  0.52889  0.15048  0.17716  1.0000
  H   H129      1.0  0.50243  0.15743  0.11645  1.0000
  H   H130      1.0  0.53604  0.14891  0.11712  1.0000
  H   H131      1.0  0.47206  0.16501  0.20112  1.0000
  C   C200      1.0  0.61772  0.47227  0.25923  1.0000
  C   C201      1.0  0.59281  0.45276  0.26202  1.0000
  H   H132      1.0  0.58336  0.44568  0.20298  1.0000
  C   C202      1.0  0.65494  0.50252  0.34125  1.0000
  C   C203      1.0  0.70433  0.54218  0.34286  1.0000
  C   C204      1.0  0.69225  0.53198  0.26034  1.0000
  C   C205      1.0  0.66746  0.51217  0.25839  1.0000
  C   C206      1.0  0.65497  0.50174  0.17678  1.0000
  C   C207      1.0  0.63029  0.48201  0.17719  1.0000
  H   H133      1.0  0.66370  0.50848  0.11645  1.0000
  H   H134      1.0  0.62158  0.47487  0.11715  1.0000
  H   H135      1.0  0.70165  0.53885  0.20111  1.0000
  C   C208      1.0  0.86328  0.39318  0.25926  1.0000
  C   C209      1.0  0.86868  0.41810  0.26206  1.0000
  H   H136      1.0  0.87104  0.42754  0.20301  1.0000
  C   C210      1.0  0.85630  0.35596  0.34127  1.0000
  C   C211      1.0  0.84660  0.30657  0.34287  1.0000
  C   C212      1.0  0.84846  0.31866  0.26036  1.0000
  C   C213      1.0  0.85344  0.34344  0.25841  1.0000
  C   C214      1.0  0.85550  0.35593  0.17680  1.0000
  C   C215      1.0  0.86045  0.38061  0.17721  1.0000
  H   H137      1.0  0.85352  0.34721  0.11647  1.0000
  H   H138      1.0  0.86202  0.38933  0.11717  1.0000
  H   H139      1.0  0.84594  0.30925  0.20112  1.0000
  C   C216      1.0  0.99340  0.53929  0.34088  1.0000
  C   C217      1.0  0.94129  0.51198  0.34387  1.0000
  C   C218      1.0  0.95401  0.51898  0.26088  1.0000
  C   C219      1.0  0.98018  0.53268  0.25826  1.0000
  C   C220      1.0  0.99341  0.53947  0.17632  1.0000
  H   H140      1.0  0.98418  0.53475  0.11618  1.0000
  H   H141      1.0  0.94417  0.51362  0.20188  1.0000
  C   C221      1.0  0.45192  0.47600  0.25814  1.0000
  C   C222      1.0  0.43946  0.48971  0.26066  1.0000
  H   H142      1.0  0.43504  0.49509  0.20156  1.0000
  C   C223      1.0  0.47161  0.45630  0.34090  1.0000
  C   C224      1.0  0.49892  0.43149  0.34387  1.0000
  C   C225      1.0  0.49192  0.43722  0.26088  1.0000
  C   C226      1.0  0.47822  0.44969  0.25827  1.0000
  C   C227      1.0  0.47142  0.45613  0.17634  1.0000
  C   C228      1.0  0.45838  0.46920  0.17627  1.0000
  H   H143      1.0  0.47614  0.45161  0.11620  1.0000
  H   H144      1.0  0.45388  0.47391  0.11608  1.0000
  H   H145      1.0  0.49727  0.43273  0.20188  1.0000
  C   C229      1.0  0.53491  0.97810  0.25813  1.0000
  C   C230      1.0  0.52120  0.95193  0.26065  1.0000
  H   H146      1.0  0.51583  0.94214  0.20155  1.0000
  C   C231      1.0  0.55462  0.01749  0.34090  1.0000
  C   C232      1.0  0.57943  0.06961  0.34389  1.0000
  C   C233      1.0  0.57371  0.05689  0.26090  1.0000
  C   C234      1.0  0.56123  0.03071  0.25828  1.0000
  C   C235      1.0  0.55479  0.01748  0.17634  1.0000
  C   C236      1.0  0.54172  0.99137  0.17626  1.0000
  H   H147      1.0  0.55931  0.02672  0.11620  1.0000
  H   H148      1.0  0.53701  0.98216  0.11608  1.0000
  H   H149      1.0  0.57818  0.06672  0.20190  1.0000
  C   C237      1.0  0.98443  0.98225  0.34093  1.0000
  N   N41       1.0  0.98480  0.00436  0.34111  1.0000
  C   C238      1.0  0.98458  0.20912  0.34269  1.0000
  N   N42       1.0  0.98475  0.18728  0.34360  1.0000
  C   C239      1.0  0.80178  0.77764  0.34273  1.0000
  N   N43       1.0  0.82362  0.79965  0.34362  1.0000
  C   C240      1.0  0.82394  0.82178  0.34289  1.0000
  N   N44       1.0  0.80182  0.82148  0.34158  1.0000
  C   C241      1.0  0.77980  0.79964  0.34066  1.0000
  N   N45       1.0  0.78016  0.77802  0.34134  1.0000
  C   C242      1.0  0.57227  0.76931  0.34429  1.0000
  N   N46       1.0  0.59692  0.77676  0.34284  1.0000
  C   C243      1.0  0.60461  0.75973  0.34124  1.0000
  N   N47       1.0  0.58733  0.73511  0.34080  1.0000
  C   C244      1.0  0.56268  0.72748  0.34225  1.0000
  N   N48       1.0  0.55538  0.74469  0.34396  1.0000
  C   C245      1.0  0.28341  0.83736  0.34223  1.0000
  C   C246      1.0  0.44075  0.20355  0.34012  1.0000
  N   N49       1.0  0.41612  0.18634  0.34165  1.0000
  C   C247      1.0  0.40846  0.16163  0.34330  1.0000
  N   N50       1.0  0.42575  0.15431  0.34367  1.0000
  C   C248      1.0  0.45040  0.17136  0.34214  1.0000
  N   N51       1.0  0.45767  0.19586  0.34038  1.0000
  C   C249      1.0  0.77150  0.57014  0.34010  1.0000
  N   N52       1.0  0.77894  0.59478  0.34164  1.0000
  C   C250      1.0  0.76190  0.60245  0.34327  1.0000
  N   N53       1.0  0.73728  0.58517  0.34363  1.0000
  C   C251      1.0  0.72967  0.56052  0.34209  1.0000
  N   N54       1.0  0.74689  0.55323  0.34035  1.0000
  C   C252      1.0  0.80735  0.23940  0.34011  1.0000
  N   N55       1.0  0.82454  0.23196  0.34163  1.0000
  C   C253      1.0  0.84926  0.24899  0.34327  1.0000
  N   N56       1.0  0.85661  0.27361  0.34362  1.0000
  C   C254      1.0  0.83957  0.28123  0.34209  1.0000
  N   N57       1.0  0.81507  0.26402  0.34036  1.0000
  C   C255      1.0  0.42890  0.55252  0.34051  1.0000
  N   N58       1.0  0.40384  0.54280  0.34121  1.0000
  C   C256      1.0  0.38840  0.51773  0.34236  1.0000
  N   N59       1.0  0.39818  0.50248  0.34294  1.0000
  C   C257      1.0  0.42315  0.51208  0.34233  1.0000
  N   N60       1.0  0.43835  0.53704  0.34115  1.0000
  C   C258      1.0  0.45839  0.87857  0.34054  1.0000
  N   N61       1.0  0.46810  0.86322  0.34123  1.0000
  C   C259      1.0  0.49316  0.87284  0.34234  1.0000
  N   N62       1.0  0.50842  0.89787  0.34289  1.0000
  C   C260      1.0  0.49883  0.91325  0.34230  1.0000
  N   N63       1.0  0.47387  0.90351  0.34117  1.0000
  C   C261      1.0  0.58421  0.13023  0.34373  1.0000
  N   N64       1.0  0.60927  0.14556  0.34233  1.0000
  C   C262      1.0  0.62470  0.13591  0.34149  1.0000
  N   N65       1.0  0.61490  0.11088  0.34210  1.0000
  C   C263      1.0  0.58993  0.09552  0.34352  1.0000
  N   N66       1.0  0.57475  0.10529  0.34433  1.0000
  C   C264      1.0  0.55474  0.42669  0.34376  1.0000
  N   N67       1.0  0.54500  0.40163  0.34235  1.0000
  C   C265      1.0  0.51993  0.38621  0.34149  1.0000
  N   N68       1.0  0.50470  0.39601  0.34208  1.0000
  C   C266      1.0  0.51432  0.42097  0.34351  1.0000
  N   N69       1.0  0.53928  0.43616  0.34435  1.0000
  C   C267      1.0  0.88066  0.45616  0.34376  1.0000
  N   N70       1.0  0.86534  0.46590  0.34236  1.0000
  C   C268      1.0  0.87499  0.49097  0.34148  1.0000
  N   N71       1.0  0.90003  0.50620  0.34206  1.0000
  C   C269      1.0  0.91537  0.49658  0.34350  1.0000
  N   N72       1.0  0.90559  0.47162  0.34435  1.0000
  C   C270      1.0  0.00641  0.15167  0.42531  1.0000
  N   N73       1.0  0.00642  0.12973  0.42036  1.0000
  N   N74       1.0  0.00647  0.08349  0.41959  1.0000
  C   C271      1.0  0.00647  0.06153  0.42351  1.0000
  C   C272      1.0  0.00627  0.16084  0.51707  1.0000
  H   H150      1.0  0.00628  0.17837  0.51738  1.0000
  H   H151      1.0  0.98974  0.14711  0.55285  1.0000
  C   C273      1.0  0.00641  0.05127  0.51336  1.0000
  H   H152      1.0  0.00636  0.06324  0.56699  1.0000
  H   H153      1.0  0.98990  0.03300  0.52094  1.0000
  C   C274      1.0  0.84687  0.84470  0.34455  1.0000
  C   C275      1.0  0.85924  0.85692  0.42530  1.0000
  N   N75       1.0  0.88118  0.87887  0.42035  1.0000
  C   C276      1.0  0.89273  0.89054  0.34273  1.0000
  N   N76       1.0  0.92742  0.92516  0.41959  1.0000
  C   C277      1.0  0.94938  0.94712  0.42351  1.0000
  C   C278      1.0  0.85008  0.84761  0.51706  1.0000
  H   H154      1.0  0.83254  0.83008  0.51737  1.0000
  H   H155      1.0  0.84735  0.86129  0.55355  1.0000
  H   H156      1.0  0.86380  0.84480  0.55284  1.0000
  C   C279      1.0  0.95964  0.95732  0.51336  1.0000
  H   H157      1.0  0.94767  0.94530  0.56699  1.0000
  H   H158      1.0  0.96140  0.97558  0.52126  1.0000
  H   H159      1.0  0.97791  0.95908  0.52094  1.0000
  C   C280      1.0  0.66824  0.77768  0.42406  1.0000
  C   C281      1.0  0.64291  0.77100  0.42195  1.0000
  H   H160      1.0  0.63355  0.76852  0.48127  1.0000
  C   C282      1.0  0.70622  0.78706  0.34142  1.0000
  C   C283      1.0  0.75631  0.79816  0.33963  1.0000
  C   C284      1.0  0.74388  0.79557  0.42202  1.0000
  C   C285      1.0  0.71890  0.79014  0.42409  1.0000
  C   C286      1.0  0.70613  0.78711  0.50582  1.0000
  C   C287      1.0  0.68108  0.78100  0.50582  1.0000
  H   H161      1.0  0.71491  0.78913  0.56606  1.0000
  H   H162      1.0  0.67222  0.77873  0.56603  1.0000
  H   H163      1.0  0.75289  0.79697  0.48131  1.0000
  C   C288      1.0  0.38287  0.14363  0.34487  1.0000
  C   C289      1.0  0.36936  0.13345  0.42574  1.0000
  N   N77       1.0  0.34496  0.11554  0.42055  1.0000
  C   C290      1.0  0.33214  0.10634  0.34262  1.0000
  N   N78       1.0  0.29422  0.07738  0.42018  1.0000
  C   C291      1.0  0.37977  0.14066  0.51753  1.0000
  H   H164      1.0  0.39928  0.15509  0.51788  1.0000
  H   H165      1.0  0.37811  0.12445  0.55239  1.0000
  H   H166      1.0  0.36935  0.14757  0.55489  1.0000
  C   C292      1.0  0.76950  0.62804  0.34486  1.0000
  C   C293      1.0  0.77282  0.64154  0.42574  1.0000
  N   N79       1.0  0.77931  0.66595  0.42057  1.0000
  C   C294      1.0  0.78293  0.67877  0.34264  1.0000
  N   N80       1.0  0.79187  0.71668  0.42023  1.0000
  C   C295      1.0  0.79713  0.74073  0.42480  1.0000
  C   C296      1.0  0.76962  0.63113  0.51752  1.0000
  H   H167      1.0  0.76455  0.61162  0.51786  1.0000
  H   H168      1.0  0.75507  0.63278  0.55238  1.0000
  H   H169      1.0  0.78695  0.64155  0.55489  1.0000
  C   C297      1.0  0.79869  0.75152  0.51492  1.0000
  H   H170      1.0  0.79597  0.73830  0.56823  1.0000
  H   H171      1.0  0.78445  0.75676  0.52187  1.0000
  H   H172      1.0  0.81693  0.76797  0.52399  1.0000
  C   C298      1.0  0.86724  0.24138  0.34485  1.0000
  C   C299      1.0  0.87743  0.23806  0.42573  1.0000
  N   N81       1.0  0.89534  0.23157  0.42055  1.0000
  C   C300      1.0  0.90454  0.22794  0.34262  1.0000
  N   N82       1.0  0.93350  0.21900  0.42020  1.0000
  C   C301      1.0  0.95230  0.21375  0.42477  1.0000
  C   C302      1.0  0.87022  0.24126  0.51751  1.0000
  H   H173      1.0  0.85578  0.24634  0.51786  1.0000
  H   H174      1.0  0.88642  0.25581  0.55235  1.0000
  H   H175      1.0  0.86332  0.22394  0.55489  1.0000
  C   C303      1.0  0.96153  0.21219  0.51488  1.0000
  H   H176      1.0  0.95104  0.21491  0.56820  1.0000
  H   H177      1.0  0.98102  0.22644  0.52184  1.0000
  H   H178      1.0  0.95975  0.19395  0.52395  1.0000
  C   C304      1.0  0.28381  0.47085  0.34217  1.0000
  N   N83       1.0  0.32324  0.48899  0.41975  1.0000
  C   C305      1.0  0.34847  0.50058  0.42441  1.0000
  C   C306      1.0  0.36010  0.50557  0.51452  1.0000
  H   H179      1.0  0.34618  0.49921  0.56786  1.0000
  H   H180      1.0  0.37262  0.52548  0.52305  1.0000
  H   H181      1.0  0.37064  0.49595  0.52194  1.0000
  C   C307      1.0  0.56348  0.78628  0.34536  1.0000
  C   C308      1.0  0.55702  0.79393  0.42608  1.0000
  N   N84       1.0  0.54578  0.80787  0.42043  1.0000
  C   C309      1.0  0.54003  0.81512  0.34216  1.0000
  N   N85       1.0  0.52188  0.83641  0.41973  1.0000
  C   C310      1.0  0.51030  0.85005  0.42438  1.0000
  C   C311      1.0  0.56110  0.78756  0.51807  1.0000
  H   H182      1.0  0.57039  0.77663  0.51880  1.0000
  H   H183      1.0  0.54327  0.77691  0.55218  1.0000
  H   H184      1.0  0.57255  0.80459  0.55591  1.0000
  C   C312      1.0  0.50531  0.85669  0.51449  1.0000
  H   H185      1.0  0.51166  0.84912  0.56784  1.0000
  H   H186      1.0  0.48540  0.84931  0.52301  1.0000
  H   H187      1.0  0.51493  0.87684  0.52192  1.0000
  C   C313      1.0  0.46688  0.26833  0.42441  1.0000
  C   C314      1.0  0.45519  0.24216  0.42172  1.0000
  H   H188      1.0  0.45125  0.23241  0.48081  1.0000
  C   C315      1.0  0.48516  0.30787  0.34225  1.0000
  C   C316      1.0  0.50932  0.36017  0.34058  1.0000
  C   C317      1.0  0.50319  0.34718  0.42312  1.0000
  C   C318      1.0  0.49115  0.32099  0.42509  1.0000
  C   C319      1.0  0.48488  0.30762  0.50674  1.0000
  C   C320      1.0  0.47291  0.28153  0.50641  1.0000
  H   H189      1.0  0.48907  0.31676  0.56705  1.0000
  H   H190      1.0  0.46869  0.27228  0.56649  1.0000
  H   H191      1.0  0.50735  0.35687  0.48238  1.0000
  C   C321      1.0  0.81018  0.54404  0.42445  1.0000
  C   C322      1.0  0.79569  0.55572  0.42176  1.0000
  H   H192      1.0  0.78987  0.55964  0.48085  1.0000
  C   C323      1.0  0.83144  0.52576  0.34227  1.0000
  C   C324      1.0  0.85957  0.50158  0.34058  1.0000
  C   C325      1.0  0.85272  0.50772  0.42312  1.0000
  C   C326      1.0  0.83857  0.51977  0.42510  1.0000
  C   C327      1.0  0.83147  0.52603  0.50676  1.0000
  C   C328      1.0  0.81736  0.53801  0.50644  1.0000
  H   H193      1.0  0.83643  0.52185  0.56707  1.0000
  H   H194      1.0  0.81233  0.54224  0.56652  1.0000
  H   H195      1.0  0.85825  0.50356  0.48238  1.0000
  C   C329      1.0  0.74257  0.20074  0.42445  1.0000
  C   C330      1.0  0.76874  0.21523  0.42176  1.0000
  H   H196      1.0  0.77849  0.22105  0.48084  1.0000
  C   C331      1.0  0.70304  0.17948  0.34228  1.0000
  C   C332      1.0  0.65073  0.15134  0.34060  1.0000
  C   C333      1.0  0.66372  0.15819  0.42314  1.0000
  C   C334      1.0  0.68992  0.17235  0.42511  1.0000
  C   C335      1.0  0.70328  0.17945  0.50677  1.0000
  C   C336      1.0  0.72937  0.19356  0.50644  1.0000
  H   H197      1.0  0.69414  0.17448  0.56707  1.0000
  H   H198      1.0  0.73862  0.19859  0.56652  1.0000
  H   H199      1.0  0.65403  0.15266  0.48240  1.0000
  C   C337      1.0  0.47458  0.61546  0.42507  1.0000
  C   C338      1.0  0.45509  0.59054  0.42226  1.0000
  H   H200      1.0  0.44809  0.58105  0.48131  1.0000
  C   C339      1.0  0.50470  0.65275  0.34303  1.0000
  C   C340      1.0  0.54436  0.70214  0.34143  1.0000
  C   C341      1.0  0.53422  0.69002  0.42395  1.0000
  C   C342      1.0  0.51443  0.66523  0.42590  1.0000
  C   C343      1.0  0.50409  0.65270  0.50752  1.0000
  C   C344      1.0  0.48439  0.62800  0.50711  1.0000
  H   H201      1.0  0.51088  0.66139  0.56785  1.0000
  H   H202      1.0  0.47731  0.61925  0.56715  1.0000
  H   H203      1.0  0.54115  0.69940  0.48320  1.0000
  C   C345      1.0  0.39542  0.86126  0.42513  1.0000
  C   C346      1.0  0.42035  0.86671  0.42235  1.0000
  H   H204      1.0  0.42984  0.86922  0.48139  1.0000
  C   C347      1.0  0.35814  0.85411  0.34306  1.0000
  C   C348      1.0  0.30875  0.84438  0.34143  1.0000
  C   C349      1.0  0.32087  0.84635  0.42395  1.0000
  C   C350      1.0  0.34566  0.85136  0.42592  1.0000
  C   C351      1.0  0.35818  0.85354  0.50755  1.0000
  C   C352      1.0  0.38288  0.85854  0.50716  1.0000
  H   H205      1.0  0.34949  0.85163  0.56787  1.0000
  H   H206      1.0  0.39162  0.86020  0.56721  1.0000
  H   H207      1.0  0.31148  0.84391  0.48320  1.0000
  C   C353      1.0  0.56740  0.13917  0.34487  1.0000
  C   C354      1.0  0.55653  0.14153  0.42560  1.0000
  N   N86       1.0  0.53775  0.14672  0.41992  1.0000
  C   C355      1.0  0.52834  0.14979  0.34162  1.0000
  N   N87       1.0  0.49815  0.15667  0.41922  1.0000
  C   C356      1.0  0.47903  0.16140  0.42394  1.0000
  C   C357      1.0  0.56363  0.13830  0.51754  1.0000
  H   H208      1.0  0.57898  0.13455  0.51829  1.0000
  H   H209      1.0  0.54773  0.12285  0.55050  1.0000
  H   H210      1.0  0.56923  0.15516  0.55646  1.0000
  C   C358      1.0  0.47022  0.16357  0.51412  1.0000
  H   H211      1.0  0.48053  0.16058  0.56739  1.0000
  H   H212      1.0  0.45060  0.14976  0.52157  1.0000
  H   H213      1.0  0.47260  0.18207  0.52271  1.0000
  C   C359      1.0  0.58050  0.44348  0.34494  1.0000
  C   C360      1.0  0.59372  0.45438  0.42565  1.0000
  N   N88       1.0  0.61769  0.47317  0.41996  1.0000
  C   C361      1.0  0.63017  0.48257  0.34165  1.0000
  N   N89       1.0  0.66724  0.51277  0.41922  1.0000
  C   C362      1.0  0.69108  0.53189  0.42393  1.0000
  C   C363      1.0  0.58339  0.44727  0.51759  1.0000
  H   H214      1.0  0.56429  0.43191  0.51833  1.0000
  H   H215      1.0  0.58382  0.46317  0.55054  1.0000
  H   H216      1.0  0.59467  0.44169  0.55651  1.0000
  C   C364      1.0  0.70207  0.54070  0.51410  1.0000
  H   H217      1.0  0.68877  0.53038  0.56738  1.0000
  H   H218      1.0  0.70788  0.56032  0.52156  1.0000
  H   H219      1.0  0.71819  0.53832  0.52267  1.0000
  C   C365      1.0  0.87169  0.43040  0.34497  1.0000
  C   C366      1.0  0.86937  0.41718  0.42566  1.0000
  N   N90       1.0  0.86420  0.39321  0.41998  1.0000
  C   C367      1.0  0.86113  0.38073  0.34167  1.0000
  N   N91       1.0  0.85425  0.34366  0.41924  1.0000
  C   C368      1.0  0.84954  0.31982  0.42394  1.0000
  C   C369      1.0  0.87261  0.42751  0.51760  1.0000
  H   H220      1.0  0.87633  0.44660  0.51835  1.0000
  H   H221      1.0  0.88808  0.42709  0.55051  1.0000
  H   H222      1.0  0.85576  0.41623  0.55656  1.0000
  C   C370      1.0  0.84735  0.30883  0.51410  1.0000
  H   H223      1.0  0.85032  0.32212  0.56740  1.0000
  H   H224      1.0  0.86116  0.30302  0.52160  1.0000
  H   H225      1.0  0.82885  0.29271  0.52266  1.0000
  N   N92       1.0  0.98047  0.53225  0.41930  1.0000
  C   C371      1.0  0.95528  0.51900  0.42470  1.0000
  C   C372      1.0  0.94383  0.51234  0.51511  1.0000
  H   H226      1.0  0.95787  0.51968  0.56808  1.0000
  H   H227      1.0  0.93309  0.49219  0.52218  1.0000
  H   H228      1.0  0.93153  0.51995  0.52460  1.0000
  C   C373      1.0  0.43361  0.49665  0.34358  1.0000
  C   C374      1.0  0.44046  0.48953  0.42458  1.0000
  N   N93       1.0  0.45248  0.47636  0.41909  1.0000
  C   C375      1.0  0.45848  0.46938  0.34080  1.0000
  N   N94       1.0  0.47865  0.45040  0.41931  1.0000
  C   C376      1.0  0.49189  0.43845  0.42471  1.0000
  C   C377      1.0  0.43596  0.49560  0.51648  1.0000
  H   H229      1.0  0.42611  0.50599  0.51701  1.0000
  H   H230      1.0  0.45367  0.50669  0.55085  1.0000
  H   H231      1.0  0.42489  0.47845  0.55420  1.0000
  C   C378      1.0  0.49855  0.43366  0.51511  1.0000
  H   H232      1.0  0.49121  0.44037  0.56808  1.0000
  H   H233      1.0  0.51870  0.44308  0.52219  1.0000
  H   H234      1.0  0.49094  0.41375  0.52459  1.0000
  C   C379      1.0  0.51428  0.93915  0.34356  1.0000
  C   C380      1.0  0.52137  0.95311  0.42457  1.0000
  N   N95       1.0  0.53454  0.97829  0.41909  1.0000
  C   C381      1.0  0.54153  0.99128  0.34080  1.0000
  N   N96       1.0  0.56050  0.03043  0.41932  1.0000
  C   C382      1.0  0.57245  0.05562  0.42472  1.0000
  C   C383      1.0  0.51531  0.94254  0.51646  1.0000
  H   H235      1.0  0.50492  0.92230  0.51698  1.0000
  H   H236      1.0  0.50421  0.94916  0.55082  1.0000
  H   H237      1.0  0.53245  0.94862  0.55419  1.0000
  C   C384      1.0  0.57724  0.06707  0.51513  1.0000
  H   H238      1.0  0.57053  0.05302  0.56810  1.0000
  H   H239      1.0  0.56782  0.07780  0.52219  1.0000
  H   H240      1.0  0.59715  0.07936  0.52463  1.0000
