data_image0
_chemical_formula_structural       C2HC2HC3H2C3H2N2C4H4C4H4C3H2C3H2N12C4H2C4H2C2HC4H2C4H2C2HC4H2C4H2C4H2C4H2C4H2C4H2C14H7C24H15C14H7C24H15C24H15C24H15C24H15C24H15C24H15C24H15C24H15C24H15C4H2C4H2C4H2C4H2C4H2C4H2N22
_chemical_formula_sum              "C360 H216 N36"
_cell_length_a       75.5609
_cell_length_b       75.5609
_cell_length_c       14.9455
_cell_angle_alpha    90
_cell_angle_beta     90
_cell_angle_gamma    120

_space_group_name_H-M_alt    "P 1"
_space_group_IT_number       1

loop_
  _space_group_symop_operation_xyz
  'x, y, z'

loop_
  _atom_site_type_symbol
  _atom_site_label
  _atom_site_symmetry_multiplicity
  _atom_site_fract_x
  _atom_site_fract_y
  _atom_site_fract_z
  _atom_site_occupancy
  C   C1        1.0  0.00910  0.80616  0.23972  1.0000
  C   C2        1.0  0.01991  0.80738  0.31888  1.0000
  H   H1        1.0  0.01660  0.81260  0.18128  1.0000
  C   C3        1.0  0.01993  0.19994  0.31919  1.0000
  C   C4        1.0  0.00912  0.19026  0.24015  1.0000
  H   H2        1.0  0.01661  0.19125  0.18179  1.0000
  C   C5        1.0  0.05394  0.20562  0.27151  1.0000
  C   C6        1.0  0.04177  0.21086  0.32517  1.0000
  C   C7        1.0  0.05212  0.22726  0.38609  1.0000
  H   H3        1.0  0.04733  0.19356  0.22814  1.0000
  H   H4        1.0  0.04409  0.23170  0.42640  1.0000
  C   C8        1.0  0.05214  0.81234  0.38586  1.0000
  C   C9        1.0  0.04177  0.81832  0.32479  1.0000
  C   C10       1.0  0.05391  0.83567  0.27078  1.0000
  H   H5        1.0  0.04412  0.79992  0.42644  1.0000
  H   H6        1.0  0.04728  0.84108  0.22727  1.0000
  N   N1        1.0  0.00830  0.79724  0.39133  1.0000
  N   N2        1.0  0.00831  0.19854  0.39152  1.0000
  C   C11       1.0  0.10760  0.24414  0.34183  1.0000
  C   C12       1.0  0.08572  0.23304  0.33717  1.0000
  C   C13       1.0  0.07539  0.21646  0.27729  1.0000
  C   C14       1.0  0.07363  0.23822  0.39148  1.0000
  H   H7        1.0  0.08344  0.21224  0.23589  1.0000
  H   H8        1.0  0.08039  0.24990  0.43677  1.0000
  H   H9        1.0  0.11117  0.21818  0.34223  1.0000
  H   H10       1.0  0.11073  0.27348  0.34121  1.0000
  C   C15       1.0  0.10761  0.85090  0.34073  1.0000
  C   C16       1.0  0.08573  0.84010  0.33636  1.0000
  C   C17       1.0  0.07366  0.82289  0.39104  1.0000
  C   C18       1.0  0.07536  0.84630  0.27636  1.0000
  H   H11       1.0  0.08044  0.81801  0.43643  1.0000
  H   H12       1.0  0.08339  0.85850  0.23463  1.0000
  H   H13       1.0  0.11077  0.82471  0.34085  1.0000
  H   H14       1.0  0.11115  0.88041  0.34040  1.0000
  C   C19       1.0  0.14028  0.27703  0.34620  1.0000
  C   C20       1.0  0.11864  0.26575  0.34426  1.0000
  C   C21       1.0  0.11891  0.23382  0.34151  1.0000
  H   H15       1.0  0.13342  0.21293  0.23535  1.0000
  H   H16       1.0  0.13226  0.30164  0.44745  1.0000
  C   C22       1.0  0.11867  0.84034  0.34345  1.0000
  C   C23       1.0  0.14032  0.85072  0.34489  1.0000
  C   C24       1.0  0.11890  0.87252  0.33975  1.0000
  H   H17       1.0  0.13314  0.90778  0.23314  1.0000
  H   H18       1.0  0.13241  0.81822  0.44692  1.0000
  N   N3        1.0  0.19354  0.37597  0.28525  1.0000
  N   N4        1.0  0.20351  0.39600  0.28293  1.0000
  N   N5        1.0  0.61499  0.80505  0.28468  1.0000
  N   N6        1.0  0.59496  0.79500  0.28278  1.0000
  N   N7        1.0  0.19375  0.80515  0.28512  1.0000
  N   N8        1.0  0.20376  0.79513  0.28300  1.0000
  N   N9        1.0  0.81043  0.60959  0.28467  1.0000
  N   N10       1.0  0.80037  0.58956  0.28277  1.0000
  N   N11       1.0  0.38138  0.18814  0.28522  1.0000
  N   N12       1.0  0.40141  0.19812  0.28292  1.0000
  N   N13       1.0  0.81063  0.18841  0.28501  1.0000
  N   N14       1.0  0.80060  0.19842  0.28289  1.0000
  C   C25       1.0  0.20594  0.17894  0.32158  1.0000
  C   C26       1.0  0.19658  0.18042  0.24219  1.0000
  C   C27       1.0  0.18585  0.19117  0.24218  1.0000
  C   C28       1.0  0.18437  0.20054  0.32156  1.0000
  H   H19       1.0  0.17966  0.19244  0.18339  1.0000
  H   H20       1.0  0.19785  0.17424  0.18341  1.0000
  C   C29       1.0  0.81280  0.01451  0.31892  1.0000
  C   C30       1.0  0.81159  0.00369  0.23978  1.0000
  C   C31       1.0  0.80074  0.98222  0.23944  1.0000
  C   C32       1.0  0.79101  0.97132  0.31826  1.0000
  H   H21       1.0  0.79967  0.97480  0.18075  1.0000
  H   H22       1.0  0.81802  0.01118  0.18133  1.0000
  C   C33       1.0  0.97672  0.78560  0.31818  1.0000
  C   C34       1.0  0.98763  0.79533  0.23936  1.0000
  H   H23       1.0  0.98021  0.79425  0.18066  1.0000
  C   C35       1.0  0.79155  0.80774  0.31603  1.0000
  C   C36       1.0  0.80157  0.80691  0.23756  1.0000
  C   C37       1.0  0.81230  0.79616  0.23754  1.0000
  C   C38       1.0  0.81315  0.78613  0.31600  1.0000
  H   H24       1.0  0.81895  0.79535  0.17927  1.0000
  H   H25       1.0  0.80076  0.81355  0.17929  1.0000
  C   C39       1.0  0.18396  0.97131  0.31838  1.0000
  C   C40       1.0  0.18503  0.98221  0.23969  1.0000
  C   C41       1.0  0.19568  0.00369  0.24003  1.0000
  C   C42       1.0  0.20536  0.01450  0.31907  1.0000
  H   H26       1.0  0.19666  0.01118  0.18169  1.0000
  H   H27       1.0  0.17863  0.97479  0.18108  1.0000
  C   C43       1.0  0.98764  0.17962  0.23980  1.0000
  C   C44       1.0  0.97674  0.17854  0.31850  1.0000
  H   H28       1.0  0.98022  0.17322  0.18118  1.0000
  C   C45       1.0  0.22455  0.58738  0.32250  1.0000
  C   C46       1.0  0.22451  0.59674  0.24053  1.0000
  C   C47       1.0  0.22457  0.61540  0.24062  1.0000
  C   C48       1.0  0.22463  0.62478  0.32266  1.0000
  H   H29       1.0  0.22615  0.62265  0.18093  1.0000
  H   H30       1.0  0.22610  0.59108  0.18082  1.0000
  C   C49       1.0  0.40398  0.62422  0.32805  1.0000
  C   C50       1.0  0.39484  0.61449  0.24632  1.0000
  C   C51       1.0  0.37641  0.59565  0.24678  1.0000
  C   C52       1.0  0.36704  0.58638  0.32895  1.0000
  H   H31       1.0  0.36932  0.58972  0.18707  1.0000
  H   H32       1.0  0.40047  0.62160  0.18635  1.0000
  C   C53       1.0  0.36758  0.76880  0.33402  1.0000
  C   C54       1.0  0.37728  0.76939  0.25216  1.0000
  C   C55       1.0  0.39589  0.76934  0.25222  1.0000
  C   C56       1.0  0.40496  0.76871  0.33413  1.0000
  H   H33       1.0  0.40177  0.76823  0.19228  1.0000
  H   H34       1.0  0.37030  0.76828  0.19220  1.0000
  C   C57       1.0  0.77410  0.39955  0.33415  1.0000
  C   C58       1.0  0.77475  0.39048  0.25224  1.0000
  C   C59       1.0  0.77476  0.37185  0.25223  1.0000
  C   C60       1.0  0.77416  0.36215  0.33410  1.0000
  H   H35       1.0  0.77368  0.36488  0.19226  1.0000
  H   H36       1.0  0.77362  0.39635  0.19230  1.0000
  C   C61       1.0  0.59184  0.36162  0.32895  1.0000
  C   C62       1.0  0.60108  0.37101  0.24679  1.0000
  C   C63       1.0  0.61994  0.38942  0.24639  1.0000
  C   C64       1.0  0.62966  0.39857  0.32814  1.0000
  H   H37       1.0  0.62704  0.39507  0.18641  1.0000
  H   H38       1.0  0.59518  0.36391  0.18707  1.0000
  C   C65       1.0  0.63018  0.21921  0.32259  1.0000
  C   C66       1.0  0.62079  0.21915  0.24056  1.0000
  C   C67       1.0  0.60215  0.21915  0.24054  1.0000
  C   C68       1.0  0.59279  0.21916  0.32252  1.0000
  H   H39       1.0  0.59649  0.22072  0.18082  1.0000
  H   H40       1.0  0.62805  0.22077  0.18088  1.0000
  C   C69       1.0  0.14055  0.24439  0.34254  1.0000
  C   C70       1.0  0.15091  0.26602  0.34523  1.0000
  C   C71       1.0  0.15101  0.29893  0.34872  1.0000
  C   C72       1.0  0.16830  0.31079  0.29408  1.0000
  C   C73       1.0  0.17869  0.33231  0.29687  1.0000
  C   C74       1.0  0.17244  0.34293  0.35525  1.0000
  C   C75       1.0  0.15502  0.33100  0.40921  1.0000
  C   C76       1.0  0.14456  0.30951  0.40608  1.0000
  C   C77       1.0  0.15150  0.23347  0.33831  1.0000
  C   C78       1.0  0.16858  0.23856  0.39376  1.0000
  C   C79       1.0  0.17919  0.22766  0.38880  1.0000
  C   C80       1.0  0.17341  0.21143  0.32713  1.0000
  C   C81       1.0  0.15621  0.20630  0.27224  1.0000
  C   C82       1.0  0.14553  0.21707  0.27760  1.0000
  H   H41       1.0  0.19151  0.23199  0.43000  1.0000
  H   H42       1.0  0.17328  0.25010  0.43964  1.0000
  H   H43       1.0  0.15094  0.19436  0.22830  1.0000
  H   H44       1.0  0.14941  0.33778  0.45074  1.0000
  H   H45       1.0  0.19116  0.34017  0.25638  1.0000
  H   H46       1.0  0.17333  0.30384  0.25032  1.0000
  H   H47       1.0  0.16655  0.27392  0.34594  1.0000
  C   C83       1.0  0.74673  0.88359  0.33915  1.0000
  C   C84       1.0  0.72510  0.87233  0.34218  1.0000
  C   C85       1.0  0.71407  0.85068  0.34341  1.0000
  C   C86       1.0  0.72536  0.84032  0.34126  1.0000
  C   C87       1.0  0.74698  0.85090  0.33848  1.0000
  C   C88       1.0  0.75728  0.87251  0.33811  1.0000
  C   C89       1.0  0.69217  0.83952  0.34636  1.0000
  C   C90       1.0  0.68024  0.84495  0.29223  1.0000
  C   C91       1.0  0.65871  0.83380  0.29541  1.0000
  C   C92       1.0  0.64814  0.81691  0.35375  1.0000
  C   C93       1.0  0.66015  0.81143  0.40723  1.0000
  C   C94       1.0  0.68163  0.82246  0.40369  1.0000
  C   C95       1.0  0.75769  0.90548  0.33466  1.0000
  C   C96       1.0  0.75264  0.91754  0.38984  1.0000
  C   C97       1.0  0.76365  0.93906  0.38491  1.0000
  C   C98       1.0  0.77997  0.94945  0.32358  1.0000
  C   C99       1.0  0.78504  0.93731  0.26888  1.0000
  C   C100      1.0  0.77415  0.91585  0.27417  1.0000
  C   C101      1.0  0.75810  0.84013  0.33361  1.0000
  C   C102      1.0  0.77475  0.84649  0.27396  1.0000
  C   C103      1.0  0.78569  0.83597  0.26825  1.0000
  C   C104      1.0  0.78050  0.81855  0.32175  1.0000
  C   C105      1.0  0.76401  0.81238  0.38234  1.0000
  C   C106      1.0  0.75295  0.82283  0.38767  1.0000
  H   H48       1.0  0.75935  0.94708  0.42599  1.0000
  H   H49       1.0  0.74106  0.91075  0.43560  1.0000
  H   H50       1.0  0.79703  0.94392  0.22519  1.0000
  H   H51       1.0  0.77827  0.90784  0.23210  1.0000
  H   H52       1.0  0.77894  0.85877  0.23267  1.0000
  H   H53       1.0  0.79779  0.84153  0.22510  1.0000
  H   H54       1.0  0.74124  0.81783  0.43281  1.0000
  H   H55       1.0  0.75960  0.79989  0.42252  1.0000
  H   H56       1.0  0.68954  0.81802  0.44474  1.0000
  H   H57       1.0  0.65342  0.79902  0.44871  1.0000
  H   H58       1.0  0.65081  0.83843  0.25527  1.0000
  H   H59       1.0  0.68714  0.85694  0.24850  1.0000
  H   H60       1.0  0.71721  0.88008  0.34299  1.0000
  H   H61       1.0  0.77293  0.88042  0.33875  1.0000
  H   H62       1.0  0.71764  0.82469  0.33832  1.0000
  C   C107      1.0  0.15093  0.87237  0.34317  1.0000
  C   C108      1.0  0.14054  0.88361  0.34024  1.0000
  C   C109      1.0  0.15108  0.83958  0.34767  1.0000
  C   C110      1.0  0.14469  0.82262  0.40543  1.0000
  C   C111      1.0  0.15517  0.81162  0.40881  1.0000
  C   C112      1.0  0.17255  0.81704  0.35471  1.0000
  C   C113      1.0  0.17875  0.83384  0.29593  1.0000
  C   C114      1.0  0.16833  0.84495  0.29290  1.0000
  C   C115      1.0  0.15145  0.90549  0.33542  1.0000
  C   C116      1.0  0.14531  0.91582  0.27498  1.0000
  C   C117      1.0  0.15589  0.93728  0.26939  1.0000
  C   C118      1.0  0.17315  0.94945  0.32380  1.0000
  C   C119      1.0  0.17913  0.93909  0.38505  1.0000
  C   C120      1.0  0.16862  0.91758  0.39027  1.0000
  H   H63       1.0  0.15046  0.94387  0.22579  1.0000
  H   H64       1.0  0.17345  0.91081  0.43594  1.0000
  H   H65       1.0  0.19149  0.94713  0.42591  1.0000
  H   H66       1.0  0.17333  0.85688  0.24886  1.0000
  H   H67       1.0  0.19120  0.83842  0.25534  1.0000
  H   H68       1.0  0.14959  0.79927  0.45061  1.0000
  H   H69       1.0  0.16657  0.88013  0.34352  1.0000
  C   C121      1.0  0.85630  0.74157  0.33844  1.0000
  C   C122      1.0  0.84573  0.71995  0.34131  1.0000
  C   C123      1.0  0.85609  0.70867  0.34339  1.0000
  C   C124      1.0  0.87774  0.71970  0.34210  1.0000
  C   C125      1.0  0.88900  0.74132  0.33904  1.0000
  C   C126      1.0  0.87792  0.75188  0.33799  1.0000
  C   C127      1.0  0.84493  0.68676  0.34636  1.0000
  C   C128      1.0  0.82792  0.67623  0.40388  1.0000
  C   C129      1.0  0.81689  0.65475  0.40748  1.0000
  C   C130      1.0  0.82235  0.64274  0.35383  1.0000
  C   C131      1.0  0.83920  0.65331  0.29529  1.0000
  C   C132      1.0  0.85033  0.67484  0.29206  1.0000
  C   C133      1.0  0.84554  0.75269  0.33356  1.0000
  C   C134      1.0  0.82825  0.74755  0.38768  1.0000
  C   C135      1.0  0.81778  0.75860  0.38231  1.0000
  C   C136      1.0  0.82395  0.77508  0.32170  1.0000
  C   C137      1.0  0.84136  0.78026  0.26813  1.0000
  C   C138      1.0  0.85188  0.76933  0.27387  1.0000
  C   C139      1.0  0.91089  0.75229  0.33455  1.0000
  C   C140      1.0  0.92126  0.76873  0.27402  1.0000
  C   C141      1.0  0.94272  0.77962  0.26876  1.0000
  C   C142      1.0  0.95486  0.77456  0.32348  1.0000
  C   C143      1.0  0.94446  0.75824  0.38480  1.0000
  C   C144      1.0  0.92294  0.74723  0.38976  1.0000
  H   H70       1.0  0.80531  0.75420  0.42258  1.0000
  H   H71       1.0  0.82325  0.73584  0.43285  1.0000
  H   H72       1.0  0.84692  0.79237  0.22501  1.0000
  H   H73       1.0  0.86416  0.77352  0.23255  1.0000
  H   H74       1.0  0.91325  0.77286  0.23194  1.0000
  H   H75       1.0  0.94933  0.79162  0.22504  1.0000
  H   H76       1.0  0.91615  0.73566  0.43551  1.0000
  H   H77       1.0  0.95248  0.75394  0.42592  1.0000
  H   H78       1.0  0.86230  0.68174  0.24822  1.0000
  H   H79       1.0  0.84380  0.64541  0.25502  1.0000
  H   H80       1.0  0.80451  0.64802  0.44908  1.0000
  H   H81       1.0  0.82349  0.68414  0.44504  1.0000
  H   H82       1.0  0.83010  0.71222  0.33839  1.0000
  H   H83       1.0  0.88582  0.76752  0.33861  1.0000
  H   H84       1.0  0.88549  0.71181  0.34288  1.0000
  C   C145      1.0  0.24955  0.10217  0.34177  1.0000
  C   C146      1.0  0.27116  0.11321  0.34426  1.0000
  C   C147      1.0  0.28244  0.13485  0.34616  1.0000
  C   C148      1.0  0.27142  0.14548  0.34523  1.0000
  C   C149      1.0  0.24980  0.13511  0.34254  1.0000
  C   C150      1.0  0.23923  0.11348  0.34147  1.0000
  C   C151      1.0  0.30434  0.14559  0.34865  1.0000
  C   C152      1.0  0.31492  0.13912  0.40593  1.0000
  C   C153      1.0  0.33641  0.14958  0.40905  1.0000
  C   C154      1.0  0.34834  0.16701  0.35518  1.0000
  C   C155      1.0  0.33772  0.17328  0.29687  1.0000
  C   C156      1.0  0.31619  0.16289  0.29410  1.0000
  C   C157      1.0  0.23845  0.08029  0.33710  1.0000
  C   C158      1.0  0.24364  0.06820  0.39140  1.0000
  C   C159      1.0  0.23269  0.04669  0.38595  1.0000
  C   C160      1.0  0.21628  0.03635  0.32506  1.0000
  C   C161      1.0  0.21103  0.04851  0.27143  1.0000
  C   C162      1.0  0.22186  0.06996  0.27726  1.0000
  C   C163      1.0  0.23887  0.14606  0.33834  1.0000
  C   C164      1.0  0.22247  0.14009  0.27765  1.0000
  C   C165      1.0  0.21170  0.15078  0.27231  1.0000
  C   C166      1.0  0.21683  0.16798  0.32718  1.0000
  C   C167      1.0  0.23306  0.17376  0.38885  1.0000
  C   C168      1.0  0.24396  0.16315  0.39380  1.0000
  H   H85       1.0  0.23712  0.03866  0.42625  1.0000
  H   H86       1.0  0.25533  0.07496  0.43663  1.0000
  H   H87       1.0  0.19897  0.04190  0.22807  1.0000
  H   H88       1.0  0.21765  0.07801  0.23583  1.0000
  H   H89       1.0  0.21833  0.12798  0.23539  1.0000
  H   H90       1.0  0.19975  0.14551  0.22835  1.0000
  H   H91       1.0  0.25552  0.16785  0.43962  1.0000
  H   H92       1.0  0.23740  0.18608  0.43000  1.0000
  H   H93       1.0  0.30924  0.16793  0.25040  1.0000
  H   H94       1.0  0.34558  0.18577  0.25646  1.0000
  H   H95       1.0  0.34319  0.14396  0.45052  1.0000
  H   H96       1.0  0.30706  0.12681  0.44725  1.0000
  H   H97       1.0  0.27889  0.10531  0.34107  1.0000
  H   H98       1.0  0.22358  0.10574  0.34221  1.0000
  H   H99       1.0  0.27932  0.16112  0.34594  1.0000
  C   C169      1.0  0.88903  0.13513  0.34023  1.0000
  C   C170      1.0  0.87780  0.14552  0.34313  1.0000
  C   C171      1.0  0.85615  0.13492  0.34477  1.0000
  C   C172      1.0  0.84577  0.11327  0.34329  1.0000
  C   C173      1.0  0.85632  0.10221  0.34063  1.0000
  C   C174      1.0  0.87794  0.11350  0.33972  1.0000
  C   C175      1.0  0.84501  0.14569  0.34752  1.0000
  C   C176      1.0  0.85041  0.16297  0.29290  1.0000
  C   C177      1.0  0.83931  0.17339  0.29593  1.0000
  C   C178      1.0  0.82247  0.16716  0.35453  1.0000
  C   C179      1.0  0.81702  0.14975  0.40848  1.0000
  C   C180      1.0  0.82802  0.13927  0.40512  1.0000
  C   C181      1.0  0.91091  0.14604  0.33545  1.0000
  C   C182      1.0  0.92300  0.16320  0.39033  1.0000
  C   C183      1.0  0.94452  0.17372  0.38511  1.0000
  C   C184      1.0  0.95488  0.16773  0.32390  1.0000
  C   C185      1.0  0.94271  0.15048  0.26949  1.0000
  C   C186      1.0  0.92125  0.13991  0.27501  1.0000
  C   C187      1.0  0.84552  0.08032  0.33628  1.0000
  C   C188      1.0  0.85172  0.06995  0.27634  1.0000
  C   C189      1.0  0.84110  0.04850  0.27080  1.0000
  C   C190      1.0  0.82374  0.03636  0.32479  1.0000
  C   C191      1.0  0.81775  0.04675  0.38579  1.0000
  C   C192      1.0  0.82830  0.06826  0.39095  1.0000
  H   H100      1.0  0.95256  0.18608  0.42601  1.0000
  H   H101      1.0  0.91624  0.16803  0.43600  1.0000
  H   H102      1.0  0.94930  0.14505  0.22588  1.0000
  H   H103      1.0  0.91321  0.12773  0.23318  1.0000
  H   H104      1.0  0.86393  0.07797  0.23466  1.0000
  H   H105      1.0  0.84652  0.04187  0.22736  1.0000
  H   H106      1.0  0.82342  0.07505  0.43626  1.0000
  H   H107      1.0  0.80532  0.03873  0.42634  1.0000
  H   H108      1.0  0.82360  0.12697  0.44650  1.0000
  H   H109      1.0  0.80464  0.14414  0.45012  1.0000
  H   H110      1.0  0.84391  0.18585  0.25542  1.0000
  H   H111      1.0  0.86236  0.16798  0.24897  1.0000
  H   H112      1.0  0.88556  0.16116  0.34350  1.0000
  H   H113      1.0  0.88583  0.10574  0.34040  1.0000
  H   H114      1.0  0.83013  0.10538  0.34062  1.0000
  C   C193      1.0  0.25046  0.52865  0.33188  1.0000
  C   C194      1.0  0.23947  0.50711  0.32663  1.0000
  C   C195      1.0  0.24958  0.49553  0.32742  1.0000
  C   C196      1.0  0.27127  0.50622  0.33028  1.0000
  C   C197      1.0  0.28261  0.52777  0.33547  1.0000
  C   C198      1.0  0.27197  0.53869  0.33565  1.0000
  C   C199      1.0  0.23813  0.47366  0.33130  1.0000
  C   C200      1.0  0.22113  0.46356  0.38930  1.0000
  C   C201      1.0  0.21013  0.44213  0.39607  1.0000
  C   C202      1.0  0.21565  0.42977  0.34551  1.0000
  C   C203      1.0  0.23243  0.43987  0.28621  1.0000
  C   C204      1.0  0.24355  0.46136  0.27982  1.0000
  C   C205      1.0  0.24065  0.54051  0.33573  1.0000
  C   C206      1.0  0.22884  0.54096  0.26347  1.0000
  C   C207      1.0  0.22266  0.55574  0.26038  1.0000
  C   C208      1.0  0.22794  0.57041  0.32946  1.0000
  C   C209      1.0  0.23864  0.56890  0.40430  1.0000
  C   C210      1.0  0.24499  0.55433  0.40719  1.0000
  C   C211      1.0  0.30428  0.53895  0.34183  1.0000
  C   C212      1.0  0.31368  0.55259  0.41394  1.0000
  C   C213      1.0  0.33457  0.56728  0.41133  1.0000
  C   C214      1.0  0.34683  0.56911  0.33618  1.0000
  C   C215      1.0  0.33754  0.55448  0.26682  1.0000
  C   C216      1.0  0.31660  0.53963  0.26943  1.0000
  H   H115      1.0  0.21479  0.55602  0.20531  1.0000
  H   H116      1.0  0.22585  0.53147  0.20975  1.0000
  H   H117      1.0  0.24324  0.57931  0.45530  1.0000
  H   H118      1.0  0.25374  0.55459  0.46006  1.0000
  H   H119      1.0  0.30509  0.55285  0.46641  1.0000
  H   H120      1.0  0.34025  0.57768  0.46242  1.0000
  H   H121      1.0  0.31014  0.53035  0.21503  1.0000
  H   H122      1.0  0.34571  0.55496  0.21144  1.0000
  H   H123      1.0  0.25561  0.46797  0.23630  1.0000
  H   H124      1.0  0.23709  0.43166  0.24833  1.0000
  H   H125      1.0  0.19782  0.43571  0.43816  1.0000
  H   H126      1.0  0.21678  0.47175  0.42907  1.0000
  H   H127      1.0  0.22384  0.49980  0.32432  1.0000
  H   H128      1.0  0.28010  0.55436  0.33794  1.0000
  H   H129      1.0  0.27893  0.49825  0.33364  1.0000
  C   C217      1.0  0.46225  0.70914  0.33508  1.0000
  C   C218      1.0  0.48379  0.71970  0.32919  1.0000
  C   C219      1.0  0.49539  0.74139  0.32960  1.0000
  C   C220      1.0  0.48469  0.75239  0.33274  1.0000
  C   C221      1.0  0.46314  0.74219  0.33858  1.0000
  C   C222      1.0  0.45223  0.72063  0.33911  1.0000
  C   C223      1.0  0.51728  0.75182  0.33283  1.0000
  C   C224      1.0  0.52748  0.74491  0.39019  1.0000
  C   C225      1.0  0.54892  0.75533  0.39636  1.0000
  C   C226      1.0  0.56123  0.77324  0.34584  1.0000
  C   C227      1.0  0.55104  0.77994  0.28716  1.0000
  C   C228      1.0  0.52953  0.76957  0.28138  1.0000
  C   C229      1.0  0.45039  0.68746  0.33939  1.0000
  C   C230      1.0  0.45011  0.67510  0.26788  1.0000
  C   C231      1.0  0.43547  0.65409  0.26538  1.0000
  C   C232      1.0  0.42075  0.64472  0.33432  1.0000
  C   C233      1.0  0.42207  0.65704  0.40839  1.0000
  C   C234      1.0  0.43650  0.67801  0.41067  1.0000
  C   C235      1.0  0.45196  0.75269  0.34529  1.0000
  C   C236      1.0  0.43827  0.74837  0.41726  1.0000
  C   C237      1.0  0.42372  0.75477  0.41526  1.0000
  C   C238      1.0  0.42206  0.76546  0.34073  1.0000
  C   C239      1.0  0.43672  0.77084  0.27145  1.0000
  C   C240      1.0  0.45145  0.76459  0.27357  1.0000
  H   H130      1.0  0.43534  0.64586  0.21085  1.0000
  H   H131      1.0  0.45966  0.68154  0.21427  1.0000
  H   H132      1.0  0.41163  0.65125  0.45931  1.0000
  H   H133      1.0  0.43613  0.68654  0.46313  1.0000
  H   H134      1.0  0.43792  0.73941  0.46943  1.0000
  H   H135      1.0  0.41330  0.75004  0.46627  1.0000
  H   H136      1.0  0.46076  0.76748  0.21924  1.0000
  H   H137      1.0  0.43636  0.77871  0.21653  1.0000
  H   H138      1.0  0.52287  0.77504  0.23827  1.0000
  H   H139      1.0  0.55919  0.79282  0.24931  1.0000
  H   H140      1.0  0.55540  0.74942  0.43802  1.0000
  H   H141      1.0  0.51936  0.73236  0.42996  1.0000
  H   H142      1.0  0.49110  0.71138  0.32669  1.0000
  H   H143      1.0  0.43656  0.71309  0.34181  1.0000
  H   H144      1.0  0.49267  0.76802  0.33586  1.0000
  C   C241      1.0  0.28292  0.74248  0.33759  1.0000
  C   C242      1.0  0.27161  0.75272  0.33227  1.0000
  C   C243      1.0  0.24992  0.74174  0.32868  1.0000
  C   C244      1.0  0.23979  0.72005  0.32742  1.0000
  C   C245      1.0  0.25075  0.70947  0.33287  1.0000
  C   C246      1.0  0.27226  0.72091  0.33732  1.0000
  C   C247      1.0  0.23846  0.75216  0.33231  1.0000
  C   C248      1.0  0.24393  0.76991  0.28097  1.0000
  C   C249      1.0  0.23278  0.78026  0.28707  1.0000
  C   C250      1.0  0.21591  0.77352  0.34592  1.0000
  C   C251      1.0  0.21036  0.75562  0.39639  1.0000
  C   C252      1.0  0.22139  0.74522  0.38989  1.0000
  C   C253      1.0  0.30459  0.75293  0.34471  1.0000
  C   C254      1.0  0.31707  0.76488  0.27325  1.0000
  C   C255      1.0  0.33804  0.77106  0.27127  1.0000
  C   C256      1.0  0.34725  0.76557  0.34047  1.0000
  C   C257      1.0  0.33482  0.75481  0.41473  1.0000
  C   C258      1.0  0.31390  0.74849  0.41659  1.0000
  C   C259      1.0  0.24090  0.68779  0.33642  1.0000
  C   C260      1.0  0.24513  0.67824  0.40789  1.0000
  C   C261      1.0  0.23871  0.65731  0.40486  1.0000
  C   C262      1.0  0.22806  0.64515  0.32980  1.0000
  C   C263      1.0  0.22288  0.65463  0.26069  1.0000
  C   C264      1.0  0.22910  0.67560  0.26399  1.0000
  H   H145      1.0  0.34631  0.77896  0.21648  1.0000
  H   H146      1.0  0.31071  0.76782  0.21883  1.0000
  H   H147      1.0  0.34046  0.75004  0.46578  1.0000
  H   H148      1.0  0.30523  0.73949  0.46856  1.0000
  H   H149      1.0  0.25384  0.68667  0.46098  1.0000
  H   H150      1.0  0.24324  0.65143  0.45588  1.0000
  H   H151      1.0  0.22621  0.68215  0.21016  1.0000
  H   H152      1.0  0.21506  0.64652  0.20543  1.0000
  H   H153      1.0  0.21700  0.73266  0.42959  1.0000
  H   H154      1.0  0.19800  0.74970  0.43818  1.0000
  H   H155      1.0  0.23745  0.79313  0.24919  1.0000
  H   H156      1.0  0.25604  0.77540  0.23774  1.0000
  H   H157      1.0  0.27927  0.76834  0.33576  1.0000
  H   H158      1.0  0.28036  0.71335  0.33976  1.0000
  H   H159      1.0  0.22417  0.71176  0.32465  1.0000
  C   C265      1.0  0.74760  0.45775  0.33863  1.0000
  C   C266      1.0  0.75781  0.47930  0.33291  1.0000
  C   C267      1.0  0.74681  0.49000  0.32972  1.0000
  C   C268      1.0  0.72511  0.47840  0.32932  1.0000
  C   C269      1.0  0.71456  0.45687  0.33520  1.0000
  C   C270      1.0  0.72604  0.44684  0.33919  1.0000
  C   C271      1.0  0.75723  0.51189  0.33292  1.0000
  C   C272      1.0  0.77495  0.52413  0.28128  1.0000
  C   C273      1.0  0.78533  0.54564  0.28709  1.0000
  C   C274      1.0  0.77867  0.55584  0.34596  1.0000
  C   C275      1.0  0.76080  0.54353  0.39667  1.0000
  C   C276      1.0  0.75036  0.52209  0.39046  1.0000
  C   C277      1.0  0.75810  0.44657  0.34538  1.0000
  C   C278      1.0  0.76998  0.44605  0.27363  1.0000
  C   C279      1.0  0.77621  0.43129  0.27145  1.0000
  C   C280      1.0  0.77084  0.41664  0.34074  1.0000
  C   C281      1.0  0.76017  0.41831  0.41530  1.0000
  C   C282      1.0  0.75379  0.43288  0.41735  1.0000
  C   C283      1.0  0.69287  0.44501  0.33952  1.0000
  C   C284      1.0  0.68343  0.43114  0.41088  1.0000
  C   C285      1.0  0.66247  0.41669  0.40852  1.0000
  C   C286      1.0  0.65014  0.41536  0.33445  1.0000
  C   C287      1.0  0.65951  0.43008  0.26552  1.0000
  C   C288      1.0  0.68052  0.44473  0.26801  1.0000
  H   H160      1.0  0.78405  0.43091  0.21643  1.0000
  H   H161      1.0  0.77283  0.45531  0.21916  1.0000
  H   H162      1.0  0.75548  0.40793  0.46643  1.0000
  H   H163      1.0  0.74486  0.43256  0.46958  1.0000
  H   H164      1.0  0.69197  0.43075  0.46328  1.0000
  H   H165      1.0  0.65667  0.40625  0.45944  1.0000
  H   H166      1.0  0.68695  0.45425  0.21435  1.0000
  H   H167      1.0  0.65129  0.42993  0.21093  1.0000
  H   H168      1.0  0.73784  0.51396  0.43040  1.0000
  H   H169      1.0  0.75492  0.55001  0.43849  1.0000
  H   H170      1.0  0.79819  0.55379  0.24906  1.0000
  H   H171      1.0  0.78040  0.51747  0.23806  1.0000
  H   H172      1.0  0.77344  0.48728  0.33583  1.0000
  H   H173      1.0  0.71850  0.43118  0.34189  1.0000
  H   H174      1.0  0.71680  0.48571  0.32684  1.0000
  C   C289      1.0  0.53318  0.27721  0.33545  1.0000
  C   C290      1.0  0.51163  0.26587  0.33033  1.0000
  C   C291      1.0  0.50094  0.24418  0.32744  1.0000
  C   C292      1.0  0.51253  0.23408  0.32661  1.0000
  C   C293      1.0  0.53406  0.24506  0.33185  1.0000
  C   C294      1.0  0.54410  0.26658  0.33564  1.0000
  C   C295      1.0  0.47908  0.23273  0.33129  1.0000
  C   C296      1.0  0.46677  0.23816  0.27986  1.0000
  C   C297      1.0  0.44528  0.22704  0.28625  1.0000
  C   C298      1.0  0.43518  0.21025  0.34550  1.0000
  C   C299      1.0  0.44755  0.20473  0.39604  1.0000
  C   C300      1.0  0.46897  0.21573  0.38928  1.0000
  C   C301      1.0  0.54436  0.29888  0.34188  1.0000
  C   C302      1.0  0.54503  0.31120  0.26951  1.0000
  C   C303      1.0  0.55992  0.33213  0.26680  1.0000
  C   C304      1.0  0.57454  0.34142  0.33619  1.0000
  C   C305      1.0  0.57270  0.32916  0.41137  1.0000
  C   C306      1.0  0.55799  0.30828  0.41402  1.0000
  C   C307      1.0  0.54593  0.23526  0.33577  1.0000
  C   C308      1.0  0.55974  0.23959  0.40722  1.0000
  C   C309      1.0  0.57429  0.23321  0.40442  1.0000
  C   C310      1.0  0.57581  0.22253  0.32954  1.0000
  C   C311      1.0  0.56114  0.21725  0.26045  1.0000
  C   C312      1.0  0.54638  0.22345  0.26350  1.0000
  H   H175      1.0  0.56043  0.34030  0.21137  1.0000
  H   H176      1.0  0.53581  0.30474  0.21494  1.0000
  H   H177      1.0  0.58308  0.33486  0.46251  1.0000
  H   H178      1.0  0.55825  0.29969  0.46651  1.0000
  H   H179      1.0  0.56001  0.24834  0.46012  1.0000
  H   H180      1.0  0.58473  0.23784  0.45532  1.0000
  H   H181      1.0  0.53688  0.22045  0.20978  1.0000
  H   H182      1.0  0.56144  0.20940  0.20533  1.0000
  H   H183      1.0  0.47716  0.21137  0.42901  1.0000
  H   H184      1.0  0.44112  0.19241  0.43808  1.0000
  H   H185      1.0  0.43707  0.23169  0.24835  1.0000
  H   H186      1.0  0.47338  0.25022  0.23635  1.0000
  H   H187      1.0  0.50366  0.27353  0.33363  1.0000
  H   H188      1.0  0.55977  0.27470  0.33796  1.0000
  H   H189      1.0  0.50521  0.21845  0.32430  1.0000
  C   C313      1.0  0.71486  0.24531  0.33281  1.0000
  C   C314      1.0  0.72545  0.23437  0.32726  1.0000
  C   C315      1.0  0.74714  0.24450  0.32857  1.0000
  C   C316      1.0  0.75810  0.26619  0.33225  1.0000
  C   C317      1.0  0.74785  0.27750  0.33762  1.0000
  C   C318      1.0  0.72629  0.26682  0.33734  1.0000
  C   C319      1.0  0.75757  0.23306  0.33217  1.0000
  C   C320      1.0  0.75060  0.21595  0.38955  1.0000
  C   C321      1.0  0.76101  0.20492  0.39603  1.0000
  C   C322      1.0  0.77895  0.21051  0.34574  1.0000
  C   C323      1.0  0.78571  0.22742  0.28707  1.0000
  C   C324      1.0  0.77535  0.23856  0.28099  1.0000
  C   C325      1.0  0.69318  0.23545  0.33634  1.0000
  C   C326      1.0  0.68099  0.22371  0.26377  1.0000
  C   C327      1.0  0.66002  0.21747  0.26051  1.0000
  C   C328      1.0  0.65054  0.22262  0.32970  1.0000
  C   C329      1.0  0.66268  0.23322  0.40487  1.0000
  C   C330      1.0  0.68361  0.23964  0.40791  1.0000
  C   C331      1.0  0.75828  0.29917  0.34477  1.0000
  C   C332      1.0  0.75382  0.30846  0.41660  1.0000
  C   C333      1.0  0.76015  0.32939  0.41475  1.0000
  C   C334      1.0  0.77094  0.34182  0.34056  1.0000
  C   C335      1.0  0.77643  0.33261  0.27137  1.0000
  C   C336      1.0  0.77025  0.31165  0.27333  1.0000
  H   H190      1.0  0.65192  0.20965  0.20523  1.0000
  H   H191      1.0  0.68754  0.22080  0.21000  1.0000
  H   H192      1.0  0.65683  0.23778  0.45584  1.0000
  H   H193      1.0  0.69205  0.24836  0.46095  1.0000
  H   H194      1.0  0.74484  0.29980  0.46860  1.0000
  H   H195      1.0  0.75539  0.33504  0.46580  1.0000
  H   H196      1.0  0.77323  0.30530  0.21900  1.0000
  H   H197      1.0  0.78437  0.34090  0.21666  1.0000
  H   H198      1.0  0.78086  0.25070  0.23792  1.0000
  H   H199      1.0  0.79861  0.23212  0.24935  1.0000
  H   H200      1.0  0.75507  0.19253  0.43766  1.0000
  H   H201      1.0  0.73803  0.21153  0.42915  1.0000
  H   H202      1.0  0.71716  0.21874  0.32443  1.0000
  H   H203      1.0  0.71871  0.27490  0.33982  1.0000
  H   H204      1.0  0.77373  0.27387  0.33578  1.0000
  C   C337      1.0  0.20468  0.40796  0.35344  1.0000
  C   C338      1.0  0.19470  0.39756  0.43283  1.0000
  C   C339      1.0  0.18402  0.37610  0.43528  1.0000
  C   C340      1.0  0.18319  0.36481  0.35836  1.0000
  H   H205      1.0  0.17741  0.36898  0.49417  1.0000
  H   H206      1.0  0.19553  0.40536  0.49003  1.0000
  C   C341      1.0  0.58306  0.78408  0.35326  1.0000
  C   C342      1.0  0.59356  0.78441  0.43216  1.0000
  C   C343      1.0  0.61503  0.79519  0.43416  1.0000
  C   C344      1.0  0.62625  0.80577  0.35728  1.0000
  H   H207      1.0  0.62221  0.79562  0.49276  1.0000
  H   H208      1.0  0.58584  0.77736  0.48938  1.0000
  C   C345      1.0  0.20489  0.78432  0.35356  1.0000
  C   C346      1.0  0.19485  0.78472  0.43277  1.0000
  C   C347      1.0  0.18414  0.79547  0.43501  1.0000
  C   C348      1.0  0.18334  0.80594  0.35803  1.0000
  H   H209      1.0  0.17749  0.79595  0.49380  1.0000
  H   H210      1.0  0.19565  0.77775  0.49002  1.0000
  C   C349      1.0  0.78952  0.57766  0.35337  1.0000
  C   C350      1.0  0.78992  0.58817  0.43238  1.0000
  C   C351      1.0  0.80070  0.60964  0.43438  1.0000
  C   C352      1.0  0.81122  0.62086  0.35737  1.0000
  H   H211      1.0  0.80118  0.61681  0.49303  1.0000
  H   H212      1.0  0.78292  0.58045  0.48967  1.0000
  C   C353      1.0  0.41337  0.19927  0.35340  1.0000
  C   C354      1.0  0.40297  0.18927  0.43276  1.0000
  C   C355      1.0  0.38151  0.17859  0.43519  1.0000
  C   C356      1.0  0.37022  0.17777  0.35829  1.0000
  H   H213      1.0  0.37439  0.17196  0.49405  1.0000
  H   H214      1.0  0.41076  0.19008  0.48995  1.0000
  C   C357      1.0  0.78975  0.19950  0.35338  1.0000
  C   C358      1.0  0.79009  0.18941  0.43250  1.0000
  C   C359      1.0  0.80085  0.17869  0.43473  1.0000
  C   C360      1.0  0.81137  0.17794  0.35785  1.0000
  H   H215      1.0  0.80129  0.17200  0.49348  1.0000
  H   H216      1.0  0.78308  0.19016  0.48970  1.0000
  N   N15       1.0  0.19418  0.19878  0.39459  1.0000
  N   N16       1.0  0.20419  0.18876  0.39461  1.0000
  N   N17       1.0  0.79255  0.98286  0.39106  1.0000
  N   N18       1.0  0.80265  0.00290  0.39137  1.0000
  N   N19       1.0  0.98826  0.78714  0.39100  1.0000
  N   N20       1.0  0.80277  0.78734  0.38813  1.0000
  N   N21       1.0  0.79275  0.79736  0.38814  1.0000
  N   N22       1.0  0.20397  0.00289  0.39140  1.0000
  N   N23       1.0  0.19403  0.98285  0.39107  1.0000
  N   N24       1.0  0.98828  0.18861  0.39120  1.0000
  N   N25       1.0  0.22418  0.61450  0.39818  1.0000
  N   N26       1.0  0.22415  0.59721  0.39811  1.0000
  N   N27       1.0  0.37710  0.59659  0.40425  1.0000
  N   N28       1.0  0.39417  0.61408  0.40386  1.0000
  N   N29       1.0  0.39482  0.76858  0.40964  1.0000
  N   N30       1.0  0.37755  0.76862  0.40958  1.0000
  N   N31       1.0  0.77399  0.37213  0.40965  1.0000
  N   N32       1.0  0.77396  0.38941  0.40967  1.0000
  N   N33       1.0  0.61950  0.38877  0.40393  1.0000
  N   N34       1.0  0.60202  0.37169  0.40429  1.0000
  N   N35       1.0  0.60260  0.21872  0.39811  1.0000
  N   N36       1.0  0.61989  0.21874  0.39813  1.0000
