data_image0
_chemical_formula_structural       C2H2C4HCOH3C2H2C4HCOH3C2H2C4HCOH3C2H2C4HCOH3C6H3COH3C6H3COH3C2H2C4HCOH3C2H2C4HCOH3C6H3COH3C6H3COH3C2H2C4HCOH3C2H2C4HCOH3C2H2C4HCOH3C2H2C4HCOH3C6H3COH3C6H3COH3C6H3COH3C6H3COH3CNCNCNCNCNCNCNCNCNCNCNCNCNCNCNCNCNCNCNCNCNCNCNCNCNCNCNCNCNCNCNCNCNCNCNCNC6H3COH3C6H3COH3C6H3COH3C6H3COH3C2H2C4HCOH3C2H2C4HCOH3C6H3COH3C6H3COH3C2H2C4HCOH3C2H2C4HCOH3C6H3COH3C6H3COH3C6H3COH3C6H3COH3C2H2C4HCOH3C2H2C4HCOH3C2H2C4HCOH3C2H2C4HCOH3
_chemical_formula_sum              "C288 H216 O36 N36"
_cell_length_a       31.988
_cell_length_b       82.9424
_cell_length_c       14.8823
_cell_angle_alpha    90
_cell_angle_beta     90
_cell_angle_gamma    90

_space_group_name_H-M_alt    "P 1"
_space_group_IT_number       1

loop_
  _space_group_symop_operation_xyz
  'x, y, z'

loop_
  _atom_site_type_symbol
  _atom_site_label
  _atom_site_symmetry_multiplicity
  _atom_site_fract_x
  _atom_site_fract_y
  _atom_site_fract_z
  _atom_site_occupancy
  C   C1        1.0  0.45510  0.16143  0.29438  1.0000
  C   C2        1.0  0.41113  0.16228  0.29750  1.0000
  H   H1        1.0  0.46879  0.15429  0.24653  1.0000
  H   H2        1.0  0.39413  0.15589  0.25139  1.0000
  C   C3        1.0  0.52411  0.17150  0.33698  1.0000
  C   C4        1.0  0.61316  0.17401  0.32998  1.0000
  C   C5        1.0  0.58712  0.18533  0.28580  1.0000
  C   C6        1.0  0.54292  0.18440  0.28813  1.0000
  H   H3        1.0  0.60094  0.19459  0.25154  1.0000
  C   C7        1.0  0.51681  0.19665  0.23983  1.0000
  O   O1        1.0  0.53860  0.20920  0.19283  1.0000
  H   H4        1.0  0.49508  0.20234  0.28678  1.0000
  H   H5        1.0  0.49827  0.19030  0.18944  1.0000
  H   H6        1.0  0.55077  0.21658  0.23762  1.0000
  C   C8        1.0  0.55151  0.84660  0.29459  1.0000
  C   C9        1.0  0.59547  0.84574  0.29794  1.0000
  H   H7        1.0  0.53790  0.85378  0.24687  1.0000
  H   H8        1.0  0.61257  0.85219  0.25230  1.0000
  C   C10       1.0  0.48242  0.83648  0.33644  1.0000
  C   C11       1.0  0.39338  0.83397  0.32905  1.0000
  C   C12       1.0  0.41946  0.82269  0.28472  1.0000
  C   C13       1.0  0.46366  0.82362  0.28725  1.0000
  H   H9        1.0  0.40568  0.81345  0.25020  1.0000
  C   C14       1.0  0.48981  0.81140  0.23879  1.0000
  O   O2        1.0  0.46808  0.79889  0.19143  1.0000
  H   H10       1.0  0.51151  0.80568  0.28572  1.0000
  H   H11       1.0  0.50840  0.81779  0.18863  1.0000
  H   H12       1.0  0.45587  0.79148  0.23601  1.0000
  C   C15       1.0  0.95518  0.66200  0.29401  1.0000
  C   C16       1.0  0.91120  0.66283  0.29694  1.0000
  H   H13       1.0  0.96893  0.65486  0.24629  1.0000
  H   H14       1.0  0.89425  0.65640  0.25090  1.0000
  C   C17       1.0  0.02415  0.67207  0.33718  1.0000
  C   C18       1.0  0.11323  0.67452  0.33066  1.0000
  C   C19       1.0  0.08729  0.68585  0.28635  1.0000
  C   C20       1.0  0.04308  0.68494  0.28841  1.0000
  H   H15       1.0  0.10117  0.69508  0.25193  1.0000
  C   C21       1.0  0.01707  0.69718  0.23977  1.0000
  O   O3        1.0  0.03894  0.70969  0.19266  1.0000
  H   H16       1.0  0.99530  0.70291  0.28652  1.0000
  H   H17       1.0  0.99856  0.69081  0.18938  1.0000
  H   H18       1.0  0.05108  0.71709  0.23739  1.0000
  C   C22       1.0  0.05146  0.34603  0.29430  1.0000
  C   C23       1.0  0.09543  0.34518  0.29747  1.0000
  H   H19       1.0  0.03778  0.35322  0.24672  1.0000
  H   H20       1.0  0.11248  0.35168  0.25190  1.0000
  C   C24       1.0  0.98241  0.33592  0.33672  1.0000
  C   C25       1.0  0.89334  0.33346  0.32979  1.0000
  C   C26       1.0  0.91933  0.32217  0.28530  1.0000
  C   C27       1.0  0.96354  0.32308  0.28758  1.0000
  H   H21       1.0  0.90548  0.31297  0.25061  1.0000
  C   C28       1.0  0.98960  0.31088  0.23877  1.0000
  O   O4        1.0  0.96777  0.29841  0.19127  1.0000
  H   H22       1.0  0.01133  0.30512  0.28549  1.0000
  H   H23       1.0  0.00815  0.31729  0.18862  1.0000
  H   H24       1.0  0.95559  0.29097  0.23576  1.0000
  C   C29       1.0  0.07612  0.09909  0.34315  1.0000
  C   C30       1.0  0.10945  0.09598  0.28334  1.0000
  C   C31       1.0  0.14473  0.10634  0.27730  1.0000
  C   C32       1.0  0.14778  0.11977  0.33692  1.0000
  C   C33       1.0  0.17416  0.14650  0.29947  1.0000
  C   C34       1.0  0.20518  0.15850  0.30048  1.0000
  H   H25       1.0  0.14561  0.14925  0.27230  1.0000
  H   H26       1.0  0.19814  0.16951  0.27336  1.0000
  H   H27       1.0  0.10690  0.08648  0.23963  1.0000
  C   C35       1.0  0.17592  0.10284  0.20544  1.0000
  O   O5        1.0  0.15633  0.10438  0.11934  1.0000
  H   H28       1.0  0.20269  0.11100  0.20765  1.0000
  H   H29       1.0  0.18771  0.09056  0.21430  1.0000
  H   H30       1.0  0.17724  0.10163  0.07329  1.0000
  C   C36       1.0  0.92995  0.90914  0.34526  1.0000
  C   C37       1.0  0.89673  0.91214  0.28498  1.0000
  C   C38       1.0  0.86151  0.90174  0.27907  1.0000
  C   C39       1.0  0.85844  0.88837  0.33913  1.0000
  C   C40       1.0  0.83237  0.86159  0.30192  1.0000
  C   C41       1.0  0.80143  0.84956  0.30272  1.0000
  H   H31       1.0  0.86101  0.85886  0.27509  1.0000
  H   H32       1.0  0.80860  0.83855  0.27577  1.0000
  H   H33       1.0  0.89936  0.92156  0.24076  1.0000
  C   C42       1.0  0.83047  0.90511  0.20674  1.0000
  O   O6        1.0  0.85023  0.90345  0.12091  1.0000
  H   H34       1.0  0.80370  0.89695  0.20910  1.0000
  H   H35       1.0  0.81862  0.91740  0.21488  1.0000
  H   H36       1.0  0.82941  0.90611  0.07452  1.0000
  C   C43       1.0  0.88806  0.12209  0.28167  1.0000
  C   C44       1.0  0.92355  0.11212  0.27915  1.0000
  H   H37       1.0  0.88689  0.13178  0.23908  1.0000
  H   H38       1.0  0.94699  0.11488  0.23486  1.0000
  C   C45       1.0  0.82156  0.13058  0.34505  1.0000
  C   C46       1.0  0.75874  0.15529  0.34583  1.0000
  C   C47       1.0  0.75067  0.13983  0.30941  1.0000
  C   C48       1.0  0.78139  0.12744  0.30718  1.0000
  H   H39       1.0  0.72222  0.13782  0.28023  1.0000
  C   C49       1.0  0.77257  0.11173  0.26145  1.0000
  O   O7        1.0  0.73115  0.10947  0.22679  1.0000
  H   H40       1.0  0.77933  0.10174  0.30708  1.0000
  H   H41       1.0  0.79375  0.11068  0.20424  1.0000
  H   H42       1.0  0.71193  0.10825  0.27804  1.0000
  C   C50       1.0  0.11776  0.88560  0.28002  1.0000
  C   C51       1.0  0.08224  0.89556  0.27773  1.0000
  H   H43       1.0  0.11878  0.87585  0.23776  1.0000
  H   H44       1.0  0.05863  0.89276  0.23394  1.0000
  C   C52       1.0  0.18456  0.87720  0.34261  1.0000
  C   C53       1.0  0.24762  0.85257  0.34399  1.0000
  C   C54       1.0  0.25553  0.86802  0.30714  1.0000
  C   C55       1.0  0.22470  0.88036  0.30467  1.0000
  H   H45       1.0  0.28399  0.87005  0.27805  1.0000
  C   C56       1.0  0.23339  0.89605  0.25858  1.0000
  O   O8        1.0  0.27478  0.89833  0.22382  1.0000
  H   H46       1.0  0.22657  0.90607  0.30398  1.0000
  H   H47       1.0  0.21218  0.89703  0.20137  1.0000
  H   H48       1.0  0.29400  0.89962  0.27502  1.0000
  C   C57       1.0  0.57620  0.59906  0.34413  1.0000
  C   C58       1.0  0.60962  0.59596  0.28450  1.0000
  C   C59       1.0  0.64502  0.60627  0.27908  1.0000
  C   C60       1.0  0.64817  0.61962  0.33927  1.0000
  C   C61       1.0  0.67439  0.64639  0.30237  1.0000
  C   C62       1.0  0.70533  0.65841  0.30341  1.0000
  H   H49       1.0  0.64578  0.64913  0.27548  1.0000
  H   H50       1.0  0.69815  0.66943  0.27659  1.0000
  H   H51       1.0  0.60702  0.58652  0.24041  1.0000
  C   C63       1.0  0.67621  0.60283  0.20715  1.0000
  O   O9        1.0  0.65669  0.60452  0.12108  1.0000
  H   H52       1.0  0.70308  0.61093  0.20979  1.0000
  H   H53       1.0  0.68787  0.59051  0.21549  1.0000
  H   H54       1.0  0.67760  0.60181  0.07495  1.0000
  C   C64       1.0  0.42989  0.40917  0.34631  1.0000
  C   C65       1.0  0.39660  0.41215  0.28615  1.0000
  C   C66       1.0  0.36126  0.40181  0.28085  1.0000
  C   C67       1.0  0.35808  0.38853  0.34151  1.0000
  C   C68       1.0  0.33218  0.36170  0.30491  1.0000
  C   C69       1.0  0.30131  0.34965  0.30576  1.0000
  H   H55       1.0  0.36088  0.35897  0.27841  1.0000
  H   H56       1.0  0.30864  0.33863  0.27914  1.0000
  H   H57       1.0  0.39929  0.42151  0.24152  1.0000
  C   C70       1.0  0.33022  0.40512  0.20841  1.0000
  O   O10       1.0  0.34995  0.40328  0.12263  1.0000
  H   H58       1.0  0.30337  0.39700  0.21119  1.0000
  H   H59       1.0  0.31852  0.41744  0.21597  1.0000
  H   H60       1.0  0.32914  0.40591  0.07614  1.0000
  C   C71       1.0  0.38778  0.62191  0.27943  1.0000
  C   C72       1.0  0.42342  0.61201  0.27760  1.0000
  H   H61       1.0  0.38659  0.63156  0.23655  1.0000
  H   H62       1.0  0.44691  0.61476  0.23344  1.0000
  C   C73       1.0  0.32119  0.63043  0.34244  1.0000
  C   C74       1.0  0.25849  0.65520  0.34312  1.0000
  C   C75       1.0  0.25023  0.63971  0.30726  1.0000
  C   C76       1.0  0.28091  0.62730  0.30505  1.0000
  H   H63       1.0  0.22170  0.63772  0.27840  1.0000
  C   C77       1.0  0.27193  0.61156  0.25983  1.0000
  O   O11       1.0  0.23043  0.60930  0.22568  1.0000
  H   H64       1.0  0.27877  0.60160  0.30562  1.0000
  H   H65       1.0  0.29298  0.61046  0.20240  1.0000
  H   H66       1.0  0.21132  0.60813  0.27718  1.0000
  C   C78       1.0  0.61803  0.38576  0.27791  1.0000
  C   C79       1.0  0.58237  0.39565  0.27631  1.0000
  H   H67       1.0  0.61908  0.37606  0.23537  1.0000
  H   H68       1.0  0.55871  0.39286  0.23266  1.0000
  C   C80       1.0  0.68494  0.37734  0.34012  1.0000
  C   C81       1.0  0.74789  0.35265  0.34136  1.0000
  C   C82       1.0  0.75598  0.36812  0.30505  1.0000
  C   C83       1.0  0.72519  0.38049  0.30261  1.0000
  H   H69       1.0  0.78451  0.37014  0.27625  1.0000
  C   C84       1.0  0.73401  0.39621  0.25698  1.0000
  O   O12       1.0  0.77548  0.39850  0.22268  1.0000
  H   H70       1.0  0.72712  0.40619  0.30252  1.0000
  H   H71       1.0  0.71293  0.39724  0.19958  1.0000
  H   H72       1.0  0.79460  0.39974  0.27410  1.0000
  C   C85       1.0  0.21812  0.26806  0.29412  1.0000
  C   C86       1.0  0.20575  0.28432  0.29392  1.0000
  H   H73       1.0  0.20326  0.26022  0.25159  1.0000
  H   H74       1.0  0.18235  0.28783  0.25126  1.0000
  C   C87       1.0  0.26199  0.24600  0.34593  1.0000
  C   C88       1.0  0.28216  0.21246  0.34236  1.0000
  C   C89       1.0  0.30906  0.22409  0.30358  1.0000
  C   C90       1.0  0.29957  0.24079  0.30332  1.0000
  H   H75       1.0  0.33574  0.22019  0.27268  1.0000
  C   C91       1.0  0.32755  0.25251  0.25587  1.0000
  O   O13       1.0  0.36455  0.24611  0.21474  1.0000
  H   H76       1.0  0.33709  0.26208  0.30195  1.0000
  H   H77       1.0  0.30949  0.25810  0.20196  1.0000
  H   H78       1.0  0.38415  0.24301  0.26277  1.0000
  C   C92       1.0  0.78856  0.73997  0.29391  1.0000
  C   C93       1.0  0.80088  0.72371  0.29342  1.0000
  H   H79       1.0  0.80341  0.74783  0.25147  1.0000
  H   H80       1.0  0.82429  0.72021  0.25073  1.0000
  C   C94       1.0  0.74469  0.76201  0.34607  1.0000
  C   C95       1.0  0.72447  0.79555  0.34294  1.0000
  C   C96       1.0  0.69760  0.78392  0.30398  1.0000
  C   C97       1.0  0.70710  0.76723  0.30355  1.0000
  H   H81       1.0  0.67089  0.78784  0.27320  1.0000
  C   C98       1.0  0.67912  0.75552  0.25602  1.0000
  O   O14       1.0  0.64210  0.76193  0.21499  1.0000
  H   H82       1.0  0.66959  0.74594  0.30202  1.0000
  H   H83       1.0  0.69716  0.74995  0.20204  1.0000
  H   H84       1.0  0.62251  0.76501  0.26307  1.0000
  C   C99       1.0  0.78072  0.29563  0.33884  1.0000
  C   C100      1.0  0.74868  0.29020  0.28100  1.0000
  C   C101      1.0  0.73694  0.27373  0.27666  1.0000
  C   C102      1.0  0.75647  0.26254  0.33615  1.0000
  C   C103      1.0  0.77198  0.23431  0.30444  1.0000
  C   C104      1.0  0.76201  0.21781  0.30705  1.0000
  H   H85       1.0  0.79927  0.23777  0.27401  1.0000
  H   H86       1.0  0.78202  0.20977  0.27753  1.0000
  H   H87       1.0  0.73472  0.29831  0.23850  1.0000
  C   C105      1.0  0.70519  0.26911  0.20791  1.0000
  O   O15       1.0  0.72136  0.27240  0.12008  1.0000
  H   H88       1.0  0.69689  0.25636  0.21128  1.0000
  H   H89       1.0  0.67666  0.27610  0.21923  1.0000
  H   H90       1.0  0.69950  0.26963  0.07614  1.0000
  C   C106      1.0  0.22605  0.71227  0.33969  1.0000
  C   C107      1.0  0.25814  0.71765  0.28183  1.0000
  C   C108      1.0  0.26992  0.73412  0.27723  1.0000
  C   C109      1.0  0.25037  0.74535  0.33644  1.0000
  C   C110      1.0  0.23481  0.77355  0.30406  1.0000
  C   C111      1.0  0.24475  0.79006  0.30628  1.0000
  H   H91       1.0  0.20755  0.77006  0.27363  1.0000
  H   H92       1.0  0.22471  0.79807  0.27660  1.0000
  H   H93       1.0  0.27209  0.70952  0.23949  1.0000
  C   C112      1.0  0.30169  0.73869  0.20843  1.0000
  O   O16       1.0  0.28553  0.73537  0.12063  1.0000
  H   H94       1.0  0.31003  0.75144  0.21159  1.0000
  H   H95       1.0  0.33020  0.73170  0.21989  1.0000
  H   H96       1.0  0.30740  0.73811  0.07667  1.0000
  C   C113      1.0  0.00448  0.96054  0.33637  1.0000
  C   C114      1.0  0.03236  0.96915  0.28032  1.0000
  C   C115      1.0  0.03275  0.98627  0.27607  1.0000
  C   C116      1.0  0.00596  0.99525  0.33426  1.0000
  C   C117      1.0  0.97193  0.02112  0.30198  1.0000
  C   C118      1.0  0.97038  0.03810  0.30347  1.0000
  H   H97       1.0  0.94777  0.01499  0.27244  1.0000
  H   H98       1.0  0.94526  0.04370  0.27452  1.0000
  H   H99       1.0  0.05196  0.96277  0.23901  1.0000
  C   C119      1.0  0.06094  0.99383  0.20826  1.0000
  O   O17       1.0  0.04838  0.98894  0.12002  1.0000
  H   H100      1.0  0.06034  0.00698  0.21105  1.0000
  H   H101      1.0  0.09309  0.98995  0.22110  1.0000
  H   H102      1.0  0.06806  0.99374  0.07678  1.0000
  C   C120      1.0  0.50450  0.46053  0.33640  1.0000
  C   C121      1.0  0.53237  0.46914  0.28033  1.0000
  C   C122      1.0  0.53277  0.48626  0.27611  1.0000
  C   C123      1.0  0.50598  0.49525  0.33429  1.0000
  C   C124      1.0  0.47196  0.52112  0.30194  1.0000
  C   C125      1.0  0.47042  0.53810  0.30337  1.0000
  H   H103      1.0  0.44782  0.51499  0.27233  1.0000
  H   H104      1.0  0.44531  0.54370  0.27437  1.0000
  H   H105      1.0  0.55195  0.46277  0.23899  1.0000
  C   C126      1.0  0.56095  0.49383  0.20827  1.0000
  O   O18       1.0  0.54835  0.48894  0.12004  1.0000
  H   H106      1.0  0.56035  0.50698  0.21109  1.0000
  H   H107      1.0  0.59309  0.48994  0.22107  1.0000
  H   H108      1.0  0.56802  0.49374  0.07678  1.0000
  C   C127      1.0  0.34747  0.17614  0.35074  1.0000
  N   N1        1.0  0.31797  0.16435  0.34543  1.0000
  C   C128      1.0  0.27630  0.16786  0.34022  1.0000
  N   N2        1.0  0.26498  0.18373  0.33976  1.0000
  C   C129      1.0  0.29352  0.19588  0.34361  1.0000
  N   N3        1.0  0.33442  0.19170  0.34942  1.0000
  C   C130      1.0  0.65907  0.83184  0.35143  1.0000
  N   N4        1.0  0.68855  0.84365  0.34652  1.0000
  C   C131      1.0  0.73024  0.84015  0.34159  1.0000
  N   N5        1.0  0.74160  0.82429  0.34096  1.0000
  C   C132      1.0  0.71308  0.81213  0.34440  1.0000
  N   N6        1.0  0.67215  0.81629  0.34997  1.0000
  C   C133      1.0  0.65712  0.17664  0.33473  1.0000
  N   N7        1.0  0.68623  0.16464  0.33838  1.0000
  C   C134      1.0  0.72810  0.16785  0.34351  1.0000
  N   N8        1.0  0.74017  0.18363  0.34538  1.0000
  C   C135      1.0  0.71221  0.19597  0.34328  1.0000
  N   N9        1.0  0.67117  0.19206  0.33782  1.0000
  C   C136      1.0  0.34942  0.83133  0.33366  1.0000
  N   N10       1.0  0.32024  0.84330  0.33700  1.0000
  C   C137      1.0  0.27838  0.84006  0.34200  1.0000
  N   N11       1.0  0.26641  0.82426  0.34406  1.0000
  C   C138      1.0  0.29444  0.81195  0.34227  1.0000
  N   N12       1.0  0.33546  0.81589  0.33693  1.0000
  C   C139      1.0  0.84734  0.67653  0.35074  1.0000
  N   N13       1.0  0.81820  0.66457  0.34623  1.0000
  C   C140      1.0  0.77636  0.66787  0.34280  1.0000
  N   N14       1.0  0.76450  0.68366  0.34396  1.0000
  C   C141      1.0  0.79270  0.69590  0.34712  1.0000
  N   N15       1.0  0.83384  0.69206  0.35062  1.0000
  C   C142      1.0  0.15923  0.33145  0.35149  1.0000
  N   N16       1.0  0.18835  0.34343  0.34738  1.0000
  C   C143      1.0  0.23020  0.34015  0.34422  1.0000
  N   N17       1.0  0.24210  0.32436  0.34520  1.0000
  C   C144      1.0  0.21392  0.31211  0.34796  1.0000
  N   N18       1.0  0.17277  0.31594  0.35122  1.0000
  C   C145      1.0  0.15728  0.67700  0.33461  1.0000
  N   N19       1.0  0.18601  0.66484  0.33745  1.0000
  C   C146      1.0  0.22804  0.66783  0.34070  1.0000
  N   N20       1.0  0.24065  0.68353  0.34088  1.0000
  C   C147      1.0  0.21305  0.69597  0.33950  1.0000
  N   N21       1.0  0.17178  0.69239  0.33648  1.0000
  C   C148      1.0  0.84929  0.33096  0.33359  1.0000
  N   N22       1.0  0.82049  0.34310  0.33614  1.0000
  C   C149      1.0  0.77847  0.34007  0.33926  1.0000
  N   N23       1.0  0.76597  0.32435  0.33959  1.0000
  C   C150      1.0  0.79365  0.31194  0.33850  1.0000
  N   N24       1.0  0.83489  0.31555  0.33561  1.0000
  C   C151      1.0  0.03889  0.08975  0.34161  1.0000
  N   N25       1.0  0.03870  0.07333  0.34115  1.0000
  C   C152      1.0  0.00243  0.06460  0.34028  1.0000
  N   N26       1.0  0.96561  0.07299  0.33893  1.0000
  C   C153      1.0  0.96457  0.08943  0.33788  1.0000
  N   N27       1.0  0.00152  0.09746  0.33967  1.0000
  C   C154      1.0  0.96730  0.91840  0.34287  1.0000
  N   N28       1.0  0.96779  0.93483  0.34132  1.0000
  C   C155      1.0  0.00437  0.94331  0.33807  1.0000
  N   N29       1.0  0.04099  0.93483  0.33572  1.0000
  C   C156      1.0  0.04160  0.91840  0.33615  1.0000
  N   N30       1.0  0.00447  0.91052  0.33991  1.0000
  C   C157      1.0  0.53891  0.58976  0.34206  1.0000
  N   N31       1.0  0.53871  0.57333  0.34162  1.0000
  C   C158      1.0  0.50245  0.56461  0.34029  1.0000
  N   N32       1.0  0.46564  0.57300  0.33846  1.0000
  C   C159      1.0  0.46459  0.58943  0.33741  1.0000
  N   N33       1.0  0.50153  0.59747  0.33965  1.0000
  C   C160      1.0  0.46731  0.41839  0.34336  1.0000
  N   N34       1.0  0.46782  0.43482  0.34182  1.0000
  C   C161      1.0  0.50439  0.44331  0.33809  1.0000
  N   N35       1.0  0.54098  0.43482  0.33530  1.0000
  C   C162      1.0  0.54160  0.41839  0.33575  1.0000
  N   N36       1.0  0.50447  0.41051  0.33997  1.0000
  C   C163      1.0  0.39101  0.17308  0.35657  1.0000
  C   C164      1.0  0.41604  0.18218  0.41628  1.0000
  C   C165      1.0  0.46022  0.18112  0.41652  1.0000
  C   C166      1.0  0.48009  0.17095  0.35216  1.0000
  C   C167      1.0  0.54986  0.15980  0.37838  1.0000
  C   C168      1.0  0.59375  0.16094  0.37416  1.0000
  H   H109      1.0  0.53680  0.15064  0.41502  1.0000
  H   H110      1.0  0.61136  0.15268  0.40852  1.0000
  H   H111      1.0  0.40175  0.18998  0.46002  1.0000
  C   C169      1.0  0.48318  0.19131  0.48286  1.0000
  O   O19       1.0  0.47173  0.18655  0.57203  1.0000
  H   H112      1.0  0.51707  0.19025  0.47639  1.0000
  H   H113      1.0  0.47494  0.20396  0.47190  1.0000
  H   H114      1.0  0.48637  0.19371  0.61437  1.0000
  C   C170      1.0  0.61550  0.83488  0.35692  1.0000
  C   C171      1.0  0.59038  0.82574  0.41622  1.0000
  C   C172      1.0  0.54621  0.82680  0.41617  1.0000
  C   C173      1.0  0.52643  0.83701  0.35189  1.0000
  C   C174      1.0  0.45663  0.84816  0.37793  1.0000
  C   C175      1.0  0.41274  0.84701  0.37362  1.0000
  H   H115      1.0  0.46964  0.85728  0.41494  1.0000
  H   H116      1.0  0.39510  0.85524  0.40806  1.0000
  H   H117      1.0  0.60460  0.81791  0.45989  1.0000
  C   C176      1.0  0.52314  0.81656  0.48208  1.0000
  O   O20       1.0  0.53446  0.82124  0.57146  1.0000
  H   H118      1.0  0.48927  0.81762  0.47540  1.0000
  H   H119      1.0  0.53140  0.80391  0.47085  1.0000
  H   H120      1.0  0.51975  0.81404  0.61351  1.0000
  C   C177      1.0  0.89098  0.67363  0.35593  1.0000
  C   C178      1.0  0.91593  0.68273  0.41576  1.0000
  C   C179      1.0  0.96012  0.68169  0.41621  1.0000
  C   C180      1.0  0.98009  0.67153  0.35195  1.0000
  C   C181      1.0  0.04980  0.66036  0.37884  1.0000
  C   C182      1.0  0.09371  0.66147  0.37481  1.0000
  H   H121      1.0  0.03666  0.65121  0.41537  1.0000
  H   H122      1.0  0.11124  0.65318  0.40910  1.0000
  H   H123      1.0  0.90158  0.69049  0.45962  1.0000
  C   C183      1.0  0.98298  0.69186  0.48279  1.0000
  O   O21       1.0  0.97150  0.68704  0.57184  1.0000
  H   H124      1.0  0.01688  0.69083  0.47641  1.0000
  H   H125      1.0  0.97468  0.70451  0.47203  1.0000
  H   H126      1.0  0.98608  0.69418  0.61437  1.0000
  C   C184      1.0  0.11556  0.33434  0.35634  1.0000
  C   C185      1.0  0.09052  0.32519  0.41576  1.0000
  C   C186      1.0  0.04633  0.32623  0.41592  1.0000
  C   C187      1.0  0.02647  0.33644  0.35176  1.0000
  C   C188      1.0  0.95672  0.34760  0.37848  1.0000
  C   C189      1.0  0.91281  0.34648  0.37436  1.0000
  H   H127      1.0  0.96981  0.35672  0.41541  1.0000
  H   H128      1.0  0.89525  0.35474  0.40875  1.0000
  H   H129      1.0  0.10480  0.31739  0.45955  1.0000
  C   C190      1.0  0.02337  0.31601  0.48207  1.0000
  O   O22       1.0  0.03472  0.32075  0.57133  1.0000
  H   H130      1.0  0.98948  0.31704  0.47548  1.0000
  H   H131      1.0  0.03168  0.30336  0.47102  1.0000
  H   H132      1.0  0.02007  0.31356  0.61355  1.0000
  C   C191      1.0  0.11464  0.12269  0.39772  1.0000
  C   C192      1.0  0.07918  0.11270  0.39972  1.0000
  H   H133      1.0  0.11565  0.13238  0.44034  1.0000
  H   H134      1.0  0.05560  0.11543  0.44369  1.0000
  C   C193      1.0  0.18168  0.13106  0.33626  1.0000
  C   C194      1.0  0.24522  0.15549  0.33705  1.0000
  C   C195      1.0  0.25273  0.13994  0.37302  1.0000
  C   C196      1.0  0.22165  0.12769  0.37450  1.0000
  H   H135      1.0  0.28104  0.13777  0.40246  1.0000
  C   C197      1.0  0.22992  0.11191  0.41991  1.0000
  O   O23       1.0  0.27115  0.10945  0.45516  1.0000
  H   H136      1.0  0.22306  0.10198  0.37394  1.0000
  H   H137      1.0  0.20852  0.11089  0.47678  1.0000
  H   H138      1.0  0.29051  0.10819  0.40418  1.0000
  C   C198      1.0  0.89144  0.88558  0.40047  1.0000
  C   C199      1.0  0.92683  0.89560  0.40243  1.0000
  H   H139      1.0  0.89042  0.87593  0.44340  1.0000
  H   H140      1.0  0.95039  0.89294  0.44658  1.0000
  C   C200      1.0  0.82466  0.87704  0.33842  1.0000
  C   C201      1.0  0.76128  0.85255  0.33880  1.0000
  C   C202      1.0  0.75361  0.86809  0.37462  1.0000
  C   C203      1.0  0.78459  0.88038  0.37622  1.0000
  H   H141      1.0  0.72519  0.87026  0.40359  1.0000
  C   C204      1.0  0.77611  0.89618  0.42126  1.0000
  O   O24       1.0  0.73479  0.89861  0.45612  1.0000
  H   H142      1.0  0.78297  0.90609  0.37513  1.0000
  H   H143      1.0  0.79739  0.89726  0.47828  1.0000
  H   H144      1.0  0.71551  0.89982  0.40495  1.0000
  C   C205      1.0  0.92700  0.09856  0.33606  1.0000
  C   C206      1.0  0.89390  0.09544  0.39647  1.0000
  C   C207      1.0  0.85856  0.10577  0.40289  1.0000
  C   C208      1.0  0.85522  0.11919  0.34323  1.0000
  C   C209      1.0  0.82959  0.14593  0.38249  1.0000
  C   C210      1.0  0.79893  0.15806  0.38229  1.0000
  H   H145      1.0  0.85829  0.14852  0.40945  1.0000
  H   H146      1.0  0.80638  0.16900  0.40984  1.0000
  H   H147      1.0  0.89674  0.08600  0.44045  1.0000
  C   C211      1.0  0.82762  0.10228  0.47526  1.0000
  O   O25       1.0  0.84745  0.10393  0.56105  1.0000
  H   H148      1.0  0.80074  0.11038  0.47318  1.0000
  H   H149      1.0  0.81595  0.08997  0.46687  1.0000
  H   H150      1.0  0.82670  0.10118  0.60745  1.0000
  C   C212      1.0  0.07904  0.90919  0.33411  1.0000
  C   C213      1.0  0.11235  0.91237  0.39390  1.0000
  C   C214      1.0  0.14768  0.90204  0.40021  1.0000
  C   C215      1.0  0.15083  0.88856  0.34094  1.0000
  C   C216      1.0  0.17667  0.86186  0.38035  1.0000
  C   C217      1.0  0.20744  0.84977  0.38042  1.0000
  H   H151      1.0  0.14800  0.85925  0.40739  1.0000
  H   H152      1.0  0.20009  0.83885  0.40822  1.0000
  H   H153      1.0  0.10967  0.92187  0.43757  1.0000
  C   C218      1.0  0.17876  0.90559  0.47220  1.0000
  O   O26       1.0  0.15909  0.90404  0.55821  1.0000
  H   H154      1.0  0.20561  0.89747  0.47017  1.0000
  H   H155      1.0  0.19047  0.91788  0.46334  1.0000
  H   H156      1.0  0.17993  0.90682  0.60436  1.0000
  C   C219      1.0  0.61494  0.62252  0.39990  1.0000
  C   C220      1.0  0.57934  0.61260  0.40123  1.0000
  H   H157      1.0  0.61597  0.63217  0.44283  1.0000
  H   H158      1.0  0.55570  0.61531  0.44511  1.0000
  C   C221      1.0  0.68205  0.63092  0.33876  1.0000
  C   C222      1.0  0.74546  0.65541  0.33958  1.0000
  C   C223      1.0  0.75318  0.63985  0.37499  1.0000
  C   C224      1.0  0.72214  0.62757  0.37647  1.0000
  H   H159      1.0  0.78158  0.63769  0.40404  1.0000
  C   C225      1.0  0.73058  0.61176  0.42139  1.0000
  O   O27       1.0  0.77192  0.60930  0.45608  1.0000
  H   H160      1.0  0.72364  0.60186  0.37525  1.0000
  H   H161      1.0  0.70933  0.61068  0.47847  1.0000
  H   H162      1.0  0.79115  0.60809  0.40483  1.0000
  C   C226      1.0  0.39115  0.38576  0.40273  1.0000
  C   C227      1.0  0.42668  0.39572  0.40403  1.0000
  H   H163      1.0  0.39010  0.37616  0.44597  1.0000
  H   H164      1.0  0.45028  0.39306  0.44810  1.0000
  C   C228      1.0  0.32431  0.37718  0.34096  1.0000
  C   C229      1.0  0.26106  0.35262  0.34137  1.0000
  C   C230      1.0  0.25318  0.36819  0.37657  1.0000
  C   C231      1.0  0.28410  0.38051  0.37817  1.0000
  H   H165      1.0  0.22466  0.37034  0.40512  1.0000
  C   C232      1.0  0.27544  0.39634  0.42264  1.0000
  O   O28       1.0  0.23402  0.39877  0.45690  1.0000
  H   H166      1.0  0.28240  0.40621  0.37634  1.0000
  H   H167      1.0  0.29657  0.39749  0.47991  1.0000
  H   H168      1.0  0.21488  0.39992  0.40545  1.0000
  C   C233      1.0  0.42694  0.59852  0.33501  1.0000
  C   C234      1.0  0.39375  0.59542  0.39524  1.0000
  C   C235      1.0  0.35828  0.60569  0.40103  1.0000
  C   C236      1.0  0.35484  0.61903  0.34080  1.0000
  C   C237      1.0  0.32936  0.64580  0.37949  1.0000
  C   C238      1.0  0.29876  0.65795  0.37922  1.0000
  H   H169      1.0  0.35810  0.64839  0.40620  1.0000
  H   H170      1.0  0.30635  0.66890  0.40648  1.0000
  H   H171      1.0  0.39664  0.58603  0.43960  1.0000
  C   C239      1.0  0.32733  0.60225  0.47344  1.0000
  O   O29       1.0  0.34707  0.60406  0.55922  1.0000
  H   H172      1.0  0.30035  0.61030  0.47091  1.0000
  H   H173      1.0  0.31581  0.58991  0.46557  1.0000
  H   H174      1.0  0.32632  0.60134  0.60568  1.0000
  C   C240      1.0  0.57911  0.40922  0.33320  1.0000
  C   C241      1.0  0.61251  0.41239  0.39276  1.0000
  C   C242      1.0  0.64798  0.40212  0.39843  1.0000
  C   C243      1.0  0.65121  0.38871  0.33863  1.0000
  C   C244      1.0  0.67693  0.36198  0.37749  1.0000
  C   C245      1.0  0.70764  0.34987  0.37748  1.0000
  H   H175      1.0  0.64822  0.35937  0.40430  1.0000
  H   H176      1.0  0.70017  0.33894  0.40502  1.0000
  H   H177      1.0  0.60980  0.42184  0.43677  1.0000
  C   C246      1.0  0.67909  0.40562  0.47044  1.0000
  O   O30       1.0  0.65951  0.40392  0.55646  1.0000
  H   H178      1.0  0.70603  0.39755  0.46796  1.0000
  H   H179      1.0  0.69064  0.41794  0.46204  1.0000
  H   H180      1.0  0.68036  0.40667  0.60263  1.0000
  C   C247      1.0  0.22643  0.29574  0.34840  1.0000
  C   C248      1.0  0.25867  0.29030  0.40571  1.0000
  C   C249      1.0  0.27029  0.27382  0.41021  1.0000
  C   C250      1.0  0.25046  0.26260  0.35129  1.0000
  C   C251      1.0  0.23466  0.23441  0.38344  1.0000
  C   C252      1.0  0.24436  0.21788  0.38083  1.0000
  H   H181      1.0  0.20744  0.23793  0.41390  1.0000
  H   H182      1.0  0.22419  0.20989  0.41028  1.0000
  H   H183      1.0  0.27292  0.29842  0.44767  1.0000
  C   C253      1.0  0.30225  0.26921  0.47852  1.0000
  O   O31       1.0  0.28645  0.27259  0.56655  1.0000
  H   H184      1.0  0.31041  0.25644  0.47536  1.0000
  H   H185      1.0  0.33080  0.27615  0.46653  1.0000
  H   H186      1.0  0.30844  0.26983  0.61017  1.0000
  C   C254      1.0  0.78023  0.71227  0.34781  1.0000
  C   C255      1.0  0.74802  0.71769  0.40528  1.0000
  C   C256      1.0  0.73642  0.73417  0.41001  1.0000
  C   C257      1.0  0.75624  0.74541  0.35122  1.0000
  C   C258      1.0  0.77202  0.77360  0.38367  1.0000
  C   C259      1.0  0.76228  0.79012  0.38133  1.0000
  H   H187      1.0  0.79925  0.77006  0.41408  1.0000
  H   H188      1.0  0.78245  0.79811  0.41085  1.0000
  H   H189      1.0  0.73379  0.70955  0.44716  1.0000
  C   C260      1.0  0.70451  0.73876  0.47849  1.0000
  O   O32       1.0  0.72037  0.73533  0.56642  1.0000
  H   H190      1.0  0.69636  0.75153  0.47552  1.0000
  H   H191      1.0  0.67594  0.73183  0.46649  1.0000
  H   H192      1.0  0.69841  0.73808  0.61015  1.0000
  C   C261      1.0  0.78859  0.26799  0.39390  1.0000
  C   C262      1.0  0.80107  0.28423  0.39400  1.0000
  H   H193      1.0  0.80322  0.26016  0.43684  1.0000
  H   H194      1.0  0.82438  0.28774  0.43692  1.0000
  C   C263      1.0  0.74477  0.24597  0.34171  1.0000
  C   C264      1.0  0.72409  0.21249  0.34540  1.0000
  C   C265      1.0  0.69736  0.22420  0.38411  1.0000
  C   C266      1.0  0.70707  0.24087  0.38421  1.0000
  H   H195      1.0  0.67055  0.22037  0.41481  1.0000
  C   C267      1.0  0.67914  0.25268  0.43115  1.0000
  O   O33       1.0  0.64195  0.24638  0.47192  1.0000
  H   H196      1.0  0.66986  0.26224  0.38479  1.0000
  H   H197      1.0  0.69715  0.25825  0.48517  1.0000
  H   H198      1.0  0.62243  0.24329  0.42370  1.0000
  C   C268      1.0  0.21821  0.73994  0.39421  1.0000
  C   C269      1.0  0.20571  0.72371  0.39462  1.0000
  H   H199      1.0  0.20355  0.74781  0.43692  1.0000
  H   H200      1.0  0.18234  0.72024  0.43746  1.0000
  C   C270      1.0  0.26204  0.76193  0.34161  1.0000
  C   C271      1.0  0.28264  0.79542  0.34462  1.0000
  C   C272      1.0  0.30937  0.78375  0.38366  1.0000
  C   C273      1.0  0.29971  0.76707  0.38408  1.0000
  H   H201      1.0  0.33616  0.78761  0.41430  1.0000
  C   C274      1.0  0.32765  0.75531  0.43130  1.0000
  O   O34       1.0  0.36481  0.76165  0.47204  1.0000
  H   H202      1.0  0.33698  0.74572  0.38516  1.0000
  H   H203      1.0  0.30964  0.74976  0.48541  1.0000
  H   H204      1.0  0.38434  0.76471  0.42380  1.0000
  C   C275      1.0  0.97779  0.98662  0.38972  1.0000
  C   C276      1.0  0.97655  0.96963  0.38961  1.0000
  H   H205      1.0  0.95789  0.99270  0.43165  1.0000
  H   H206      1.0  0.95600  0.96393  0.43170  1.0000
  C   C277      1.0  0.00607  0.01258  0.33926  1.0000
  C   C278      1.0  0.00329  0.04731  0.34067  1.0000
  C   C279      1.0  0.03717  0.03870  0.37887  1.0000
  C   C280      1.0  0.03907  0.02157  0.38020  1.0000
  H   H207      1.0  0.06047  0.04516  0.40902  1.0000
  C   C281      1.0  0.07402  0.01312  0.42789  1.0000
  O   O35       1.0  0.10569  0.02307  0.46765  1.0000
  H   H208      1.0  0.08944  0.00467  0.38242  1.0000
  H   H209      1.0  0.06042  0.00611  0.48265  1.0000
  H   H210      1.0  0.12243  0.02786  0.41892  1.0000
  C   C282      1.0  0.47782  0.48662  0.38978  1.0000
  C   C283      1.0  0.47660  0.46963  0.38972  1.0000
  H   H211      1.0  0.45792  0.49270  0.43171  1.0000
  H   H212      1.0  0.45604  0.46393  0.43177  1.0000
  C   C284      1.0  0.50609  0.51258  0.33929  1.0000
  C   C285      1.0  0.50331  0.54731  0.34069  1.0000
  C   C286      1.0  0.53716  0.53870  0.37901  1.0000
  C   C287      1.0  0.53907  0.52156  0.38029  1.0000
  H   H213      1.0  0.56046  0.54516  0.40915  1.0000
  C   C288      1.0  0.57401  0.51312  0.42799  1.0000
  O   O36       1.0  0.60567  0.52307  0.46782  1.0000
  H   H214      1.0  0.58945  0.50468  0.38251  1.0000
  H   H215      1.0  0.56040  0.50610  0.48272  1.0000
  H   H216      1.0  0.62242  0.52786  0.41912  1.0000
