data_image0
_chemical_formula_structural       CNCHNHC4HC6H3C4HC6H3C4HC6H3CNCHNHCNCHNHCNCHNHCNCHNHC4HC6H3C4HC6H3CNCHNHC4HC6H3C4HC6H3C4HC6H3CNCHNHCNCHNHCNCHNHCNCHNHC4HC6H3C4HC6H3CNCHNHCNCHNHC4HC6H3C4HC6H3CNCHNHCNCHNHC4HC6H3C4HC6H3CNCHNHCNCHNHC4HC6H3C4HC6H3CNCHNHCNCHNHC4HC6H3C4HC6H3CNCNCNCNCNCNCNCNCNCNCNCNCNCNCNCNCNCNCNCNCNCNCNCNCNCNCNCNCNCNCNCNCNCNCNCNCNCNCNCNCNCNCNCNCNCNCNCNCNCNCNCNCNCNCNCNCNCNCNCNCNCNCNCNCNCNCNCNCNCNCNCNC4HC6H3CNCHNHCNCHNHCNCHNHC4HC6H3C4HC6H3C4HC6H3C4HC6H3CNCHNHCNCHNHC4HC6H3CNCHNHCNCHNHCNCHNHC4HC6H3C4HC6H3C4HC6H3C4HC6H3CNCHNHCNCHNHC4HC6H3C4HC6H3CNCHNHCNCHNHC4HC6H3C4HC6H3CNCHNHCNCHNHC4HC6H3C4HC6H3CNCHNHCNCHNHC4HC6H3C4HC6H3CNCHNHCNCHNH
_chemical_formula_sum              "C504 N144 H216"
_cell_length_a       63.2711
_cell_length_b       80.4489
_cell_length_c       14.9671
_cell_angle_alpha    90
_cell_angle_beta     90
_cell_angle_gamma    90

_space_group_name_H-M_alt    "P 1"
_space_group_IT_number       1

loop_
  _space_group_symop_operation_xyz
  'x, y, z'

loop_
  _atom_site_type_symbol
  _atom_site_label
  _atom_site_symmetry_multiplicity
  _atom_site_fract_x
  _atom_site_fract_y
  _atom_site_fract_z
  _atom_site_occupancy
  C   C1        1.0  0.49118  0.03786  0.34374  1.0000
  N   N1        1.0  0.50263  0.02360  0.34575  1.0000
  C   C2        1.0  0.54050  0.98092  0.34568  1.0000
  H   H1        1.0  0.49901  0.04868  0.33023  1.0000
  N   N2        1.0  0.52780  0.99454  0.34663  1.0000
  H   H2        1.0  0.55617  0.98264  0.33212  1.0000
  C   C3        1.0  0.03261  0.53741  0.31279  1.0000
  C   C4        1.0  0.00758  0.50818  0.30856  1.0000
  C   C5        1.0  0.02961  0.50709  0.29125  1.0000
  C   C6        1.0  0.04188  0.52176  0.29413  1.0000
  H   H3        1.0  0.05776  0.52099  0.28155  1.0000
  C   C7        1.0  0.99495  0.49367  0.30782  1.0000
  C   C8        1.0  0.96948  0.46462  0.30955  1.0000
  C   C9        1.0  0.99140  0.46369  0.29029  1.0000
  C   C10       1.0  0.00431  0.47801  0.28921  1.0000
  C   C11       1.0  0.02617  0.47706  0.27092  1.0000
  C   C12       1.0  0.03872  0.49147  0.27208  1.0000
  H   H4        1.0  0.03317  0.46586  0.25739  1.0000
  H   H5        1.0  0.05456  0.49045  0.25928  1.0000
  H   H6        1.0  0.99823  0.45242  0.27714  1.0000
  C   C13       1.0  0.40092  0.06631  0.32925  1.0000
  C   C14       1.0  0.35617  0.06868  0.31634  1.0000
  C   C15       1.0  0.36908  0.08174  0.28285  1.0000
  C   C16       1.0  0.39121  0.08035  0.28980  1.0000
  H   H7        1.0  0.40036  0.08991  0.26626  1.0000
  C   C17       1.0  0.33384  0.07039  0.31410  1.0000
  C   C18       1.0  0.28928  0.07500  0.31893  1.0000
  C   C19       1.0  0.30271  0.08716  0.28080  1.0000
  C   C20       1.0  0.32480  0.08512  0.27817  1.0000
  C   C21       1.0  0.33781  0.09775  0.24303  1.0000
  C   C22       1.0  0.35983  0.09607  0.24539  1.0000
  H   H8        1.0  0.33143  0.10844  0.21746  1.0000
  H   H9        1.0  0.36901  0.10557  0.22149  1.0000
  H   H10       1.0  0.29639  0.09793  0.25576  1.0000
  C   C23       1.0  0.60095  0.93704  0.32725  1.0000
  C   C24       1.0  0.64566  0.93465  0.31313  1.0000
  C   C25       1.0  0.63267  0.92184  0.27748  1.0000
  C   C26       1.0  0.61055  0.92324  0.28499  1.0000
  H   H11       1.0  0.60132  0.91382  0.26037  1.0000
  C   C27       1.0  0.66798  0.93283  0.31097  1.0000
  C   C28       1.0  0.71246  0.92790  0.31686  1.0000
  C   C29       1.0  0.69900  0.91604  0.27628  1.0000
  C   C30       1.0  0.67694  0.91824  0.27304  1.0000
  C   C31       1.0  0.66385  0.90589  0.23559  1.0000
  C   C32       1.0  0.64184  0.90767  0.23786  1.0000
  H   H12       1.0  0.67017  0.89531  0.20854  1.0000
  H   H13       1.0  0.63261  0.89835  0.21235  1.0000
  H   H14       1.0  0.70528  0.90536  0.25000  1.0000
  C   C33       1.0  0.11436  0.55321  0.31091  1.0000
  N   N3        1.0  0.13576  0.55492  0.31673  1.0000
  C   C34       1.0  0.20260  0.56029  0.31676  1.0000
  H   H15       1.0  0.10838  0.54286  0.28044  1.0000
  N   N4        1.0  0.18116  0.55856  0.31974  1.0000
  H   H16       1.0  0.21133  0.55120  0.28652  1.0000
  C   C35       1.0  0.88712  0.44957  0.31543  1.0000
  N   N5        1.0  0.86574  0.44789  0.32261  1.0000
  C   C36       1.0  0.79891  0.44259  0.32594  1.0000
  H   H17       1.0  0.89302  0.45984  0.28394  1.0000
  N   N6        1.0  0.82035  0.44430  0.32799  1.0000
  H   H18       1.0  0.79011  0.45165  0.29580  1.0000
  C   C37       1.0  0.48523  0.10180  0.34188  1.0000
  N   N7        1.0  0.49266  0.11769  0.34420  1.0000
  C   C38       1.0  0.51677  0.16681  0.33729  1.0000
  H   H19       1.0  0.49511  0.09259  0.32027  1.0000
  N   N8        1.0  0.50885  0.15108  0.34162  1.0000
  H   H20       1.0  0.53185  0.16840  0.31427  1.0000
  C   C39       1.0  0.51727  0.90096  0.35076  1.0000
  N   N9        1.0  0.50988  0.88507  0.35332  1.0000
  C   C40       1.0  0.48575  0.83602  0.34665  1.0000
  H   H21       1.0  0.50724  0.91017  0.33029  1.0000
  N   N10       1.0  0.49371  0.85173  0.35094  1.0000
  H   H22       1.0  0.47057  0.83448  0.32486  1.0000
  C   C41       1.0  0.03776  0.59801  0.30653  1.0000
  C   C42       1.0  0.02100  0.63074  0.30120  1.0000
  C   C43       1.0  0.04226  0.62786  0.27467  1.0000
  C   C44       1.0  0.05032  0.61156  0.27788  1.0000
  H   H23       1.0  0.06570  0.60961  0.25915  1.0000
  C   C45       1.0  0.01300  0.64721  0.30202  1.0000
  C   C46       1.0  0.99779  0.68044  0.31078  1.0000
  C   C47       1.0  0.01850  0.67691  0.28002  1.0000
  C   C48       1.0  0.02633  0.66055  0.27568  1.0000
  C   C49       1.0  0.04723  0.65745  0.24761  1.0000
  C   C50       1.0  0.05517  0.64120  0.24727  1.0000
  H   H24       1.0  0.05698  0.66700  0.22888  1.0000
  H   H25       1.0  0.07052  0.63925  0.22826  1.0000
  H   H26       1.0  0.02833  0.68641  0.26138  1.0000
  C   C51       1.0  0.96311  0.40424  0.30049  1.0000
  C   C52       1.0  0.97994  0.37155  0.29435  1.0000
  C   C53       1.0  0.95849  0.37435  0.27037  1.0000
  C   C54       1.0  0.95038  0.39064  0.27407  1.0000
  H   H27       1.0  0.93485  0.39255  0.25749  1.0000
  C   C55       1.0  0.98804  0.35512  0.29495  1.0000
  C   C56       1.0  0.00351  0.32197  0.30353  1.0000
  C   C57       1.0  0.98260  0.32538  0.27492  1.0000
  C   C58       1.0  0.97463  0.34170  0.27075  1.0000
  C   C59       1.0  0.95352  0.34469  0.24507  1.0000
  C   C60       1.0  0.94549  0.36092  0.24513  1.0000
  H   H28       1.0  0.94371  0.33509  0.22787  1.0000
  H   H29       1.0  0.93000  0.36279  0.22786  1.0000
  H   H30       1.0  0.97269  0.31582  0.25787  1.0000
  C   C61       1.0  0.45388  0.50438  0.30967  1.0000
  N   N11       1.0  0.47461  0.50877  0.31094  1.0000
  C   C62       1.0  0.53774  0.52414  0.30434  1.0000
  H   H31       1.0  0.44330  0.51246  0.28180  1.0000
  N   N12       1.0  0.51741  0.51881  0.30792  1.0000
  H   H32       1.0  0.54062  0.53547  0.27590  1.0000
  C   C63       1.0  0.05486  0.98826  0.33341  1.0000
  C   C64       1.0  0.01204  0.99866  0.32769  1.0000
  C   C65       1.0  0.02829  0.01009  0.30491  1.0000
  C   C66       1.0  0.04955  0.00472  0.30840  1.0000
  H   H33       1.0  0.06127  0.01295  0.29186  1.0000
  C   C67       1.0  0.99063  0.00374  0.32630  1.0000
  C   C68       1.0  0.94772  0.01390  0.32757  1.0000
  C   C69       1.0  0.96398  0.02518  0.30365  1.0000
  C   C70       1.0  0.98543  0.02032  0.30233  1.0000
  C   C71       1.0  0.00164  0.03154  0.27871  1.0000
  C   C72       1.0  0.02289  0.02647  0.27992  1.0000
  H   H34       1.0  0.99814  0.04353  0.26113  1.0000
  H   H35       1.0  0.03439  0.03487  0.26317  1.0000
  H   H36       1.0  0.96025  0.03715  0.28662  1.0000
  C   C73       1.0  0.37813  0.35691  0.33699  1.0000
  C   C74       1.0  0.38583  0.39162  0.32864  1.0000
  C   C75       1.0  0.40288  0.38034  0.31696  1.0000
  C   C76       1.0  0.39876  0.36312  0.32110  1.0000
  H   H37       1.0  0.41114  0.35504  0.31364  1.0000
  C   C77       1.0  0.38962  0.40895  0.32723  1.0000
  C   C78       1.0  0.39716  0.44371  0.32880  1.0000
  C   C79       1.0  0.41396  0.43231  0.31554  1.0000
  C   C80       1.0  0.41049  0.41499  0.31441  1.0000
  C   C81       1.0  0.42729  0.40368  0.30182  1.0000
  C   C82       1.0  0.42351  0.38649  0.30299  1.0000
  H   H38       1.0  0.44242  0.40786  0.29258  1.0000
  H   H39       1.0  0.43597  0.37851  0.29470  1.0000
  H   H40       1.0  0.42904  0.43660  0.30643  1.0000
  C   C83       1.0  0.62399  0.64578  0.32786  1.0000
  C   C84       1.0  0.61629  0.61113  0.31558  1.0000
  C   C85       1.0  0.59940  0.62247  0.30155  1.0000
  C   C86       1.0  0.60352  0.63967  0.30774  1.0000
  H   H41       1.0  0.59125  0.64780  0.29884  1.0000
  C   C87       1.0  0.61247  0.59382  0.31316  1.0000
  C   C88       1.0  0.60478  0.55911  0.31556  1.0000
  C   C89       1.0  0.58818  0.57050  0.29820  1.0000
  C   C90       1.0  0.59172  0.58782  0.29681  1.0000
  C   C91       1.0  0.57510  0.59917  0.28141  1.0000
  C   C92       1.0  0.57891  0.61636  0.28374  1.0000
  H   H42       1.0  0.56005  0.59503  0.26974  1.0000
  H   H43       1.0  0.56656  0.62436  0.27373  1.0000
  H   H44       1.0  0.57316  0.56622  0.28732  1.0000
  C   C93       1.0  0.14033  0.86837  0.33099  1.0000
  N   N13       1.0  0.13607  0.88488  0.33629  1.0000
  C   C94       1.0  0.12549  0.93626  0.33951  1.0000
  H   H45       1.0  0.15546  0.86491  0.31595  1.0000
  N   N14       1.0  0.12850  0.91954  0.34061  1.0000
  H   H46       1.0  0.13821  0.94367  0.32606  1.0000
  C   C95       1.0  0.86186  0.13355  0.32318  1.0000
  N   N15       1.0  0.86617  0.11703  0.32724  1.0000
  C   C96       1.0  0.87679  0.06557  0.33021  1.0000
  H   H47       1.0  0.84658  0.13704  0.31126  1.0000
  N   N16       1.0  0.87379  0.08230  0.33079  1.0000
  H   H48       1.0  0.86394  0.05811  0.32009  1.0000
  C   C97       1.0  0.28447  0.54224  0.32374  1.0000
  N   N17       1.0  0.30103  0.53145  0.32405  1.0000
  C   C98       1.0  0.35053  0.49647  0.32431  1.0000
  H   H49       1.0  0.26954  0.53745  0.31968  1.0000
  N   N18       1.0  0.33486  0.50803  0.32415  1.0000
  H   H50       1.0  0.34629  0.48423  0.32042  1.0000
  C   C99       1.0  0.71715  0.46056  0.33560  1.0000
  N   N19       1.0  0.70063  0.47138  0.33633  1.0000
  C   C100      1.0  0.65128  0.50646  0.33391  1.0000
  H   H51       1.0  0.73207  0.46530  0.32972  1.0000
  N   N20       1.0  0.66691  0.49487  0.33538  1.0000
  H   H52       1.0  0.65556  0.51865  0.32731  1.0000
  C   C101      1.0  0.21388  0.05940  0.33466  1.0000
  C   C102      1.0  0.18035  0.03587  0.33175  1.0000
  C   C103      1.0  0.17572  0.05309  0.32427  1.0000
  C   C104      1.0  0.19256  0.06458  0.32603  1.0000
  H   H53       1.0  0.18907  0.07697  0.32040  1.0000
  C   C105      1.0  0.16364  0.02413  0.33135  1.0000
  C   C106      1.0  0.13019  0.00053  0.33301  1.0000
  C   C107      1.0  0.12598  0.01775  0.32401  1.0000
  C   C108      1.0  0.14239  0.02964  0.32316  1.0000
  C   C109      1.0  0.13803  0.04677  0.31501  1.0000
  C   C110      1.0  0.15457  0.05840  0.31563  1.0000
  H   H54       1.0  0.12280  0.05094  0.30912  1.0000
  H   H55       1.0  0.15101  0.07078  0.31015  1.0000
  H   H56       1.0  0.11070  0.02182  0.31848  1.0000
  C   C111      1.0  0.78799  0.94289  0.33830  1.0000
  C   C112      1.0  0.82183  0.96615  0.33729  1.0000
  C   C113      1.0  0.82631  0.94887  0.33384  1.0000
  C   C114      1.0  0.80932  0.93751  0.33459  1.0000
  H   H57       1.0  0.81271  0.92507  0.33172  1.0000
  C   C115      1.0  0.83867  0.97776  0.33700  1.0000
  C   C116      1.0  0.87232  0.00118  0.33653  1.0000
  C   C117      1.0  0.87644  0.98388  0.33276  1.0000
  C   C118      1.0  0.85992  0.97207  0.33296  1.0000
  C   C119      1.0  0.86413  0.95487  0.32921  1.0000
  C   C120      1.0  0.84746  0.94336  0.32972  1.0000
  H   H58       1.0  0.87935  0.95057  0.32624  1.0000
  H   H59       1.0  0.85092  0.93093  0.32709  1.0000
  H   H60       1.0  0.89171  0.97970  0.32976  1.0000
  C   C121      1.0  0.21572  0.12345  0.34516  1.0000
  N   N21       1.0  0.21198  0.14008  0.34929  1.0000
  C   C122      1.0  0.19786  0.19114  0.35644  1.0000
  H   H61       1.0  0.20311  0.11569  0.33609  1.0000
  N   N22       1.0  0.20286  0.17471  0.35489  1.0000
  H   H62       1.0  0.18233  0.19438  0.34925  1.0000
  C   C123      1.0  0.78559  0.87904  0.34575  1.0000
  N   N23       1.0  0.78932  0.86242  0.35000  1.0000
  C   C124      1.0  0.80358  0.81145  0.35839  1.0000
  H   H63       1.0  0.79823  0.88681  0.33776  1.0000
  N   N24       1.0  0.79851  0.82786  0.35630  1.0000
  H   H64       1.0  0.81915  0.80826  0.35243  1.0000
  C   C125      1.0  0.26496  0.61725  0.31665  1.0000
  C   C126      1.0  0.27421  0.65172  0.30883  1.0000
  C   C127      1.0  0.25291  0.64629  0.30193  1.0000
  C   C128      1.0  0.24860  0.62911  0.30610  1.0000
  H   H65       1.0  0.23321  0.62528  0.30122  1.0000
  C   C129      1.0  0.27887  0.66893  0.30618  1.0000
  C   C130      1.0  0.28831  0.70341  0.30299  1.0000
  C   C131      1.0  0.26721  0.69771  0.29470  1.0000
  C   C132      1.0  0.26222  0.68063  0.29627  1.0000
  C   C133      1.0  0.24115  0.67508  0.28877  1.0000
  C   C134      1.0  0.23652  0.65803  0.29167  1.0000
  H   H66       1.0  0.22899  0.68338  0.28169  1.0000
  H   H67       1.0  0.22110  0.65428  0.28664  1.0000
  H   H68       1.0  0.25512  0.70608  0.28785  1.0000
  C   C135      1.0  0.73679  0.38558  0.32445  1.0000
  C   C136      1.0  0.72782  0.35108  0.31387  1.0000
  C   C137      1.0  0.74906  0.35664  0.30678  1.0000
  C   C138      1.0  0.75323  0.37383  0.31231  1.0000
  H   H69       1.0  0.76858  0.37775  0.30730  1.0000
  C   C139      1.0  0.72332  0.33385  0.30997  1.0000
  C   C140      1.0  0.71416  0.29933  0.30461  1.0000
  C   C141      1.0  0.73520  0.30515  0.29607  1.0000
  C   C142      1.0  0.74004  0.32226  0.29869  1.0000
  C   C143      1.0  0.76105  0.32795  0.29096  1.0000
  C   C144      1.0  0.76553  0.34502  0.29505  1.0000
  H   H70       1.0  0.77327  0.31974  0.28287  1.0000
  H   H71       1.0  0.78091  0.34887  0.28986  1.0000
  H   H72       1.0  0.74734  0.29686  0.28825  1.0000
  C   C145      1.0  0.31200  0.31492  0.34935  1.0000
  N   N25       1.0  0.29416  0.30549  0.35391  1.0000
  C   C146      1.0  0.23924  0.27585  0.34594  1.0000
  H   H73       1.0  0.31184  0.32541  0.31085  1.0000
  N   N26       1.0  0.25687  0.28545  0.35220  1.0000
  H   H74       1.0  0.22675  0.28017  0.30937  1.0000
  C   C147      1.0  0.69004  0.68755  0.34769  1.0000
  N   N27       1.0  0.70786  0.69699  0.35299  1.0000
  C   C148      1.0  0.76262  0.72674  0.34653  1.0000
  H   H75       1.0  0.69016  0.67727  0.30762  1.0000
  N   N28       1.0  0.74504  0.71707  0.35246  1.0000
  H   H76       1.0  0.77504  0.72258  0.30903  1.0000
  C   C149      1.0  0.17125  0.80912  0.28346  1.0000
  C   C150      1.0  0.20924  0.79067  0.27299  1.0000
  C   C151      1.0  0.19102  0.78497  0.22678  1.0000
  C   C152      1.0  0.17235  0.79439  0.23194  1.0000
  H   H77       1.0  0.15910  0.79002  0.20031  1.0000
  C   C153      1.0  0.22767  0.78070  0.27390  1.0000
  C   C154      1.0  0.26351  0.75982  0.28549  1.0000
  C   C155      1.0  0.24552  0.75478  0.23649  1.0000
  C   C156      1.0  0.22759  0.76506  0.22966  1.0000
  C   C157      1.0  0.20957  0.75977  0.18209  1.0000
  C   C158      1.0  0.19140  0.76972  0.18029  1.0000
  H   H78       1.0  0.20933  0.74850  0.15028  1.0000
  H   H79       1.0  0.17826  0.76544  0.14764  1.0000
  H   H80       1.0  0.24536  0.74340  0.20561  1.0000
  C   C159      1.0  0.83084  0.19299  0.27847  1.0000
  C   C160      1.0  0.79304  0.21171  0.27007  1.0000
  C   C161      1.0  0.81123  0.21737  0.22354  1.0000
  C   C162      1.0  0.82980  0.20780  0.22753  1.0000
  H   H81       1.0  0.84305  0.21215  0.19577  1.0000
  C   C163      1.0  0.77473  0.22182  0.27196  1.0000
  C   C164      1.0  0.73908  0.24288  0.28501  1.0000
  C   C165      1.0  0.75708  0.24792  0.23614  1.0000
  C   C166      1.0  0.77491  0.23754  0.22850  1.0000
  C   C167      1.0  0.79291  0.24278  0.18074  1.0000
  C   C168      1.0  0.81096  0.23271  0.17792  1.0000
  H   H82       1.0  0.79322  0.25410  0.14940  1.0000
  H   H83       1.0  0.82409  0.23693  0.14493  1.0000
  H   H84       1.0  0.75731  0.25933  0.20573  1.0000
  C   C169      1.0  0.48847  0.25531  0.32552  1.0000
  N   N29       1.0  0.47271  0.26674  0.32948  1.0000
  C   C170      1.0  0.42547  0.30351  0.33518  1.0000
  H   H85       1.0  0.50310  0.25922  0.30564  1.0000
  N   N30       1.0  0.44050  0.29141  0.33443  1.0000
  H   H86       1.0  0.42971  0.31525  0.31631  1.0000
  C   C171      1.0  0.51387  0.74755  0.32872  1.0000
  N   N31       1.0  0.52959  0.73608  0.33164  1.0000
  C   C172      1.0  0.57667  0.69921  0.33370  1.0000
  H   H87       1.0  0.49924  0.74374  0.30828  1.0000
  N   N32       1.0  0.56169  0.71134  0.33417  1.0000
  H   H88       1.0  0.57239  0.68755  0.31352  1.0000
  C   C173      1.0  0.01740  0.73817  0.32436  1.0000
  C   C174      1.0  0.04943  0.76272  0.31761  1.0000
  C   C175      1.0  0.05423  0.74609  0.29276  1.0000
  C   C176      1.0  0.03812  0.73401  0.29675  1.0000
  H   H89       1.0  0.04163  0.72205  0.27866  1.0000
  C   C177      1.0  0.06542  0.77499  0.31545  1.0000
  C   C178      1.0  0.09770  0.79943  0.31420  1.0000
  C   C179      1.0  0.10193  0.78284  0.28765  1.0000
  C   C180      1.0  0.08613  0.77053  0.28803  1.0000
  C   C181      1.0  0.09070  0.75403  0.26258  1.0000
  C   C182      1.0  0.07484  0.74187  0.26504  1.0000
  H   H90       1.0  0.10561  0.75070  0.24281  1.0000
  H   H91       1.0  0.07851  0.72994  0.24692  1.0000
  H   H92       1.0  0.11682  0.77947  0.26788  1.0000
  C   C183      1.0  0.98435  0.26417  0.31855  1.0000
  C   C184      1.0  0.95241  0.23954  0.31254  1.0000
  C   C185      1.0  0.94744  0.25621  0.28912  1.0000
  C   C186      1.0  0.96350  0.26832  0.29269  1.0000
  H   H93       1.0  0.95985  0.28031  0.27560  1.0000
  C   C187      1.0  0.93648  0.22722  0.31050  1.0000
  C   C188      1.0  0.90432  0.20267  0.30894  1.0000
  C   C189      1.0  0.89992  0.21933  0.28417  1.0000
  C   C190      1.0  0.91565  0.23168  0.28470  1.0000
  C   C191      1.0  0.91090  0.24823  0.26083  1.0000
  C   C192      1.0  0.92670  0.26043  0.26312  1.0000
  H   H94       1.0  0.89591  0.25156  0.24221  1.0000
  H   H95       1.0  0.92292  0.27239  0.24603  1.0000
  H   H96       1.0  0.88496  0.22272  0.26548  1.0000
  C   C193      1.0  0.07559  0.28920  0.33189  1.0000
  N   N33       1.0  0.09561  0.28310  0.33601  1.0000
  C   C194      1.0  0.15831  0.26606  0.34126  1.0000
  H   H97       1.0  0.07360  0.30146  0.31605  1.0000
  N   N34       1.0  0.13789  0.27125  0.34057  1.0000
  H   H98       1.0  0.16983  0.27466  0.32876  1.0000
  C   C195      1.0  0.92606  0.71342  0.33847  1.0000
  N   N35       1.0  0.90605  0.71956  0.34182  1.0000
  C   C196      1.0  0.84342  0.73660  0.34518  1.0000
  H   H99       1.0  0.92803  0.70112  0.32368  1.0000
  N   N36       1.0  0.86384  0.73142  0.34501  1.0000
  H   H100      1.0  0.83192  0.72796  0.33343  1.0000
  C   C197      1.0  0.44416  0.77875  0.32491  1.0000
  C   C198      1.0  0.40200  0.76693  0.31645  1.0000
  C   C199      1.0  0.41894  0.75580  0.29984  1.0000
  C   C200      1.0  0.43977  0.76191  0.30393  1.0000
  H   H101      1.0  0.45189  0.75375  0.29237  1.0000
  C   C201      1.0  0.38098  0.76096  0.31466  1.0000
  C   C202      1.0  0.33883  0.74913  0.31275  1.0000
  C   C203      1.0  0.35593  0.73819  0.29652  1.0000
  C   C204      1.0  0.37700  0.74389  0.29677  1.0000
  C   C205      1.0  0.39398  0.73299  0.27969  1.0000
  C   C206      1.0  0.41482  0.73892  0.28105  1.0000
  H   H102      1.0  0.39134  0.72067  0.26660  1.0000
  H   H103      1.0  0.42694  0.73077  0.26920  1.0000
  H   H104      1.0  0.35309  0.72591  0.28285  1.0000
  C   C207      1.0  0.55833  0.22415  0.31950  1.0000
  C   C208      1.0  0.60052  0.23591  0.31248  1.0000
  C   C209      1.0  0.58362  0.24714  0.29684  1.0000
  C   C210      1.0  0.56277  0.24106  0.30020  1.0000
  H   H105      1.0  0.55067  0.24927  0.28942  1.0000
  C   C211      1.0  0.62156  0.24185  0.31141  1.0000
  C   C212      1.0  0.66375  0.25360  0.31099  1.0000
  C   C213      1.0  0.64669  0.26462  0.29560  1.0000
  C   C214      1.0  0.62560  0.25896  0.29516  1.0000
  C   C215      1.0  0.60866  0.26995  0.27903  1.0000
  C   C216      1.0  0.58780  0.26407  0.27973  1.0000
  H   H106      1.0  0.61135  0.28231  0.26711  1.0000
  H   H107      1.0  0.57571  0.27228  0.26854  1.0000
  H   H108      1.0  0.64957  0.27693  0.28318  1.0000
  C   C217      1.0  0.42328  0.06602  0.34130  1.0000
  N   N37       1.0  0.43521  0.05198  0.34602  1.0000
  C   C218      1.0  0.45672  0.05251  0.35464  1.0000
  N   N38       1.0  0.46618  0.06775  0.35956  1.0000
  C   C219      1.0  0.45491  0.08213  0.35726  1.0000
  N   N39       1.0  0.43369  0.08070  0.34762  1.0000
  C   C220      1.0  0.57868  0.93713  0.34160  1.0000
  N   N40       1.0  0.56651  0.95107  0.34661  1.0000
  C   C221      1.0  0.54508  0.95028  0.35843  1.0000
  N   N41       1.0  0.53610  0.93490  0.36576  1.0000
  C   C222      1.0  0.54758  0.92066  0.36284  1.0000
  N   N42       1.0  0.56868  0.92231  0.35037  1.0000
  C   C223      1.0  0.07841  0.56572  0.32938  1.0000
  N   N43       1.0  0.06647  0.55168  0.32455  1.0000
  C   C224      1.0  0.04495  0.55224  0.31609  1.0000
  N   N44       1.0  0.03551  0.56749  0.31136  1.0000
  C   C225      1.0  0.04681  0.58185  0.31374  1.0000
  N   N45       1.0  0.06803  0.58041  0.32326  1.0000
  C   C226      1.0  0.92303  0.43685  0.33023  1.0000
  N   N46       1.0  0.93517  0.45080  0.32503  1.0000
  C   C227      1.0  0.95659  0.45003  0.31289  1.0000
  N   N47       1.0  0.96559  0.43466  0.30552  1.0000
  C   C228      1.0  0.95414  0.42041  0.30867  1.0000
  N   N48       1.0  0.93304  0.42203  0.32140  1.0000
  C   C229      1.0  0.40094  0.46119  0.33148  1.0000
  N   N49       1.0  0.38511  0.47266  0.32946  1.0000
  C   C230      1.0  0.38887  0.48935  0.33108  1.0000
  N   N50       1.0  0.40945  0.49435  0.33498  1.0000
  C   C231      1.0  0.42587  0.48347  0.33812  1.0000
  N   N51       1.0  0.42105  0.46705  0.33623  1.0000
  C   C232      1.0  0.60085  0.54169  0.32181  1.0000
  N   N52       1.0  0.61669  0.53027  0.32779  1.0000
  C   C233      1.0  0.61295  0.51365  0.33613  1.0000
  N   N53       1.0  0.59235  0.50873  0.33912  1.0000
  C   C234      1.0  0.57587  0.51953  0.33341  1.0000
  N   N54       1.0  0.58068  0.53588  0.32471  1.0000
  C   C235      1.0  0.10128  0.96057  0.34759  1.0000
  N   N55       1.0  0.11715  0.97198  0.34307  1.0000
  C   C236      1.0  0.11342  0.98862  0.33595  1.0000
  N   N56       1.0  0.09283  0.99355  0.33290  1.0000
  C   C237      1.0  0.07629  0.98278  0.33701  1.0000
  N   N57       1.0  0.08112  0.96640  0.34443  1.0000
  C   C238      1.0  0.90107  0.04126  0.33790  1.0000
  N   N58       1.0  0.88529  0.02975  0.33846  1.0000
  C   C239      1.0  0.88912  0.01307  0.33604  1.0000
  N   N59       1.0  0.90974  0.00813  0.33274  1.0000
  C   C240      1.0  0.92616  0.01904  0.33121  1.0000
  N   N60       1.0  0.92119  0.03544  0.33399  1.0000
  C   C241      1.0  0.26729  0.07844  0.32901  1.0000
  N   N61       1.0  0.25158  0.06683  0.32990  1.0000
  C   C242      1.0  0.23074  0.07125  0.33668  1.0000
  N   N62       1.0  0.22615  0.08778  0.34358  1.0000
  C   C243      1.0  0.24117  0.09982  0.34458  1.0000
  N   N63       1.0  0.26142  0.09460  0.33675  1.0000
  C   C244      1.0  0.73436  0.92424  0.32779  1.0000
  N   N64       1.0  0.75019  0.93574  0.33047  1.0000
  C   C245      1.0  0.77095  0.93118  0.33850  1.0000
  N   N65       1.0  0.77531  0.91461  0.34479  1.0000
  C   C246      1.0  0.76017  0.90267  0.34394  1.0000
  N   N66       1.0  0.74000  0.90801  0.33500  1.0000
  C   C247      1.0  0.23431  0.57847  0.33804  1.0000
  N   N67       1.0  0.25007  0.56690  0.33544  1.0000
  C   C248      1.0  0.27087  0.57138  0.32776  1.0000
  N   N68       1.0  0.27534  0.58793  0.32177  1.0000
  C   C249      1.0  0.26030  0.59994  0.32254  1.0000
  N   N69       1.0  0.24008  0.59467  0.33111  1.0000
  C   C250      1.0  0.76727  0.42438  0.34812  1.0000
  N   N70       1.0  0.75148  0.43592  0.34689  1.0000
  C   C251      1.0  0.73068  0.43142  0.33963  1.0000
  N   N71       1.0  0.72623  0.41487  0.33248  1.0000
  C   C252      1.0  0.74133  0.40290  0.33179  1.0000
  N   N72       1.0  0.76154  0.40819  0.34013  1.0000
  C   C253      1.0  0.35081  0.31694  0.37454  1.0000
  N   N73       1.0  0.35435  0.33341  0.36052  1.0000
  C   C254      1.0  0.37426  0.33950  0.34638  1.0000
  N   N74       1.0  0.39069  0.32845  0.34603  1.0000
  C   C255      1.0  0.38790  0.31187  0.35879  1.0000
  N   N75       1.0  0.36783  0.30678  0.37262  1.0000
  C   C256      1.0  0.65124  0.68549  0.37240  1.0000
  N   N76       1.0  0.64771  0.66912  0.35562  1.0000
  C   C257      1.0  0.62781  0.66312  0.34003  1.0000
  N   N77       1.0  0.61138  0.67418  0.34103  1.0000
  C   C258      1.0  0.61419  0.69068  0.35655  1.0000
  N   N78       1.0  0.63425  0.69567  0.37166  1.0000
  C   C259      1.0  0.15129  0.81657  0.30003  1.0000
  N   N79       1.0  0.14781  0.83298  0.31607  1.0000
  C   C260      1.0  0.12793  0.83904  0.33135  1.0000
  N   N80       1.0  0.11147  0.82801  0.33075  1.0000
  C   C261      1.0  0.11422  0.81149  0.31589  1.0000
  N   N81       1.0  0.13427  0.80643  0.30105  1.0000
  C   C262      1.0  0.85078  0.18545  0.29435  1.0000
  N   N82       1.0  0.85433  0.16899  0.30860  1.0000
  C   C263      1.0  0.87425  0.16292  0.32282  1.0000
  N   N83       1.0  0.89068  0.17398  0.32301  1.0000
  C   C264      1.0  0.88786  0.19055  0.31004  1.0000
  N   N84       1.0  0.86778  0.19561  0.29616  1.0000
  C   C265      1.0  0.22145  0.24882  0.37410  1.0000
  N   N85       1.0  0.20119  0.25422  0.36688  1.0000
  C   C266      1.0  0.18467  0.24342  0.36046  1.0000
  N   N86       1.0  0.18910  0.22683  0.36080  1.0000
  C   C267      1.0  0.20909  0.22077  0.36698  1.0000
  N   N87       1.0  0.22483  0.23215  0.37411  1.0000
  C   C268      1.0  0.78028  0.75373  0.37613  1.0000
  N   N88       1.0  0.80057  0.74839  0.36919  1.0000
  C   C269      1.0  0.81702  0.75924  0.36272  1.0000
  N   N89       1.0  0.81250  0.77582  0.36269  1.0000
  C   C270      1.0  0.79245  0.78180  0.36856  1.0000
  N   N90       1.0  0.77677  0.77037  0.37579  1.0000
  C   C271      1.0  0.28083  0.74883  0.29575  1.0000
  N   N91       1.0  0.30110  0.75419  0.30327  1.0000
  C   C272      1.0  0.31758  0.74336  0.30979  1.0000
  N   N92       1.0  0.31311  0.72677  0.30927  1.0000
  C   C273      1.0  0.29309  0.72076  0.30285  1.0000
  N   N93       1.0  0.27740  0.73217  0.29564  1.0000
  C   C274      1.0  0.72179  0.25391  0.29552  1.0000
  N   N94       1.0  0.70151  0.24853  0.30225  1.0000
  C   C275      1.0  0.68502  0.25934  0.30885  1.0000
  N   N95       1.0  0.68950  0.27593  0.30921  1.0000
  C   C276      1.0  0.70951  0.28196  0.30353  1.0000
  N   N96       1.0  0.72524  0.27057  0.29616  1.0000
  C   C277      1.0  0.01053  0.30519  0.31358  1.0000
  N   N97       1.0  0.03109  0.30053  0.32581  1.0000
  C   C278      1.0  0.03672  0.28423  0.33615  1.0000
  N   N98       1.0  0.02103  0.27267  0.33360  1.0000
  C   C279      1.0  0.00042  0.27653  0.32190  1.0000
  N   N99       1.0  0.99585  0.29286  0.31219  1.0000
  C   C280      1.0  0.99096  0.69726  0.32067  1.0000
  N   N100      1.0  0.97044  0.70201  0.33270  1.0000
  C   C281      1.0  0.96492  0.71834  0.34251  1.0000
  N   N101      1.0  0.98069  0.72983  0.33970  1.0000
  C   C282      1.0  0.00127  0.72587  0.32819  1.0000
  N   N102      1.0  0.00574  0.70951  0.31891  1.0000
  C   C283      1.0  0.49156  0.80533  0.35753  1.0000
  N   N103      1.0  0.47101  0.80066  0.34529  1.0000
  C   C284      1.0  0.46542  0.78435  0.33479  1.0000
  N   N104      1.0  0.48114  0.77282  0.33715  1.0000
  C   C285      1.0  0.50173  0.77669  0.34887  1.0000
  N   N105      1.0  0.50628  0.79303  0.35878  1.0000
  C   C286      1.0  0.51097  0.19749  0.35031  1.0000
  N   N106      1.0  0.53151  0.20221  0.33836  1.0000
  C   C287      1.0  0.53706  0.21854  0.32869  1.0000
  N   N107      1.0  0.52131  0.23005  0.33166  1.0000
  C   C288      1.0  0.50072  0.22612  0.34310  1.0000
  N   N108      1.0  0.49622  0.20976  0.35218  1.0000
  C   C289      1.0  0.46904  0.03766  0.35786  1.0000
  C   C290      1.0  0.49405  0.00842  0.36208  1.0000
  C   C291      1.0  0.47196  0.00730  0.37796  1.0000
  C   C292      1.0  0.45971  0.02198  0.37513  1.0000
  H   H109      1.0  0.44379  0.02119  0.38669  1.0000
  C   C293      1.0  0.50668  0.99390  0.36289  1.0000
  C   C294      1.0  0.53216  0.96485  0.36149  1.0000
  C   C295      1.0  0.51017  0.96390  0.37925  1.0000
  C   C296      1.0  0.49725  0.97821  0.38014  1.0000
  C   C297      1.0  0.47533  0.97724  0.39694  1.0000
  C   C298      1.0  0.46279  0.99165  0.39573  1.0000
  H   H110      1.0  0.46828  0.96602  0.40946  1.0000
  H   H111      1.0  0.44690  0.99061  0.40746  1.0000
  H   H112      1.0  0.50329  0.95260  0.39141  1.0000
  C   C299      1.0  0.01052  0.53759  0.32821  1.0000
  N   N109      1.0  0.99906  0.52333  0.32620  1.0000
  C   C300      1.0  0.96119  0.48066  0.32658  1.0000
  H   H113      1.0  0.00276  0.54839  0.34285  1.0000
  N   N110      1.0  0.97388  0.49428  0.32548  1.0000
  H   H114      1.0  0.94557  0.48234  0.34131  1.0000
  C   C301      1.0  0.38733  0.05343  0.35831  1.0000
  N   N111      1.0  0.36593  0.05511  0.35210  1.0000
  C   C302      1.0  0.29905  0.06030  0.35026  1.0000
  H   H115      1.0  0.39331  0.04300  0.38802  1.0000
  N   N112      1.0  0.32051  0.05865  0.34795  1.0000
  H   H116      1.0  0.29030  0.05111  0.37941  1.0000
  C   C303      1.0  0.61459  0.94975  0.35789  1.0000
  N   N113      1.0  0.63598  0.94803  0.35121  1.0000
  C   C304      1.0  0.70278  0.94250  0.34988  1.0000
  H   H117      1.0  0.60869  0.95996  0.39000  1.0000
  N   N114      1.0  0.68135  0.94430  0.34711  1.0000
  H   H118      1.0  0.71156  0.95146  0.38096  1.0000
  C   C305      1.0  0.10077  0.56598  0.34124  1.0000
  C   C306      1.0  0.14552  0.56841  0.35334  1.0000
  C   C307      1.0  0.13262  0.58134  0.38821  1.0000
  C   C308      1.0  0.11049  0.57993  0.38164  1.0000
  H   H119      1.0  0.10133  0.58941  0.40610  1.0000
  C   C309      1.0  0.16785  0.57017  0.35501  1.0000
  C   C310      1.0  0.21237  0.57493  0.34882  1.0000
  C   C311      1.0  0.19897  0.58694  0.38847  1.0000
  C   C312      1.0  0.17690  0.58483  0.39178  1.0000
  C   C313      1.0  0.16389  0.59732  0.42837  1.0000
  C   C314      1.0  0.14187  0.59559  0.42655  1.0000
  H   H120      1.0  0.17028  0.60796  0.45455  1.0000
  H   H121      1.0  0.13270  0.60501  0.45145  1.0000
  H   H122      1.0  0.20529  0.59766  0.41408  1.0000
  C   C315      1.0  0.90076  0.43676  0.34487  1.0000
  C   C316      1.0  0.85606  0.43445  0.36004  1.0000
  C   C317      1.0  0.86905  0.42151  0.39439  1.0000
  C   C318      1.0  0.89116  0.42287  0.38638  1.0000
  H   H123      1.0  0.90037  0.41337  0.41015  1.0000
  C   C319      1.0  0.83373  0.43270  0.36284  1.0000
  C   C320      1.0  0.78921  0.42795  0.35843  1.0000
  C   C321      1.0  0.80269  0.41594  0.39762  1.0000
  C   C322      1.0  0.82477  0.41805  0.40013  1.0000
  C   C323      1.0  0.83786  0.40556  0.43623  1.0000
  C   C324      1.0  0.85987  0.40728  0.43333  1.0000
  H   H124      1.0  0.83153  0.39494  0.46280  1.0000
  H   H125      1.0  0.86910  0.39787  0.45790  1.0000
  H   H126      1.0  0.79641  0.40522  0.42346  1.0000
  C   C325      1.0  0.46399  0.09828  0.36449  1.0000
  C   C326      1.0  0.48080  0.13100  0.36973  1.0000
  C   C327      1.0  0.45952  0.12814  0.39604  1.0000
  C   C328      1.0  0.45143  0.11185  0.39289  1.0000
  H   H127      1.0  0.43603  0.10992  0.41146  1.0000
  C   C329      1.0  0.48882  0.14746  0.36886  1.0000
  C   C330      1.0  0.50409  0.18067  0.36009  1.0000
  C   C331      1.0  0.48336  0.17717  0.39061  1.0000
  C   C332      1.0  0.47550  0.16082  0.39495  1.0000
  C   C333      1.0  0.45457  0.15775  0.42281  1.0000
  C   C334      1.0  0.44661  0.14151  0.42318  1.0000
  H   H128      1.0  0.44483  0.16731  0.44136  1.0000
  H   H129      1.0  0.43124  0.13958  0.44204  1.0000
  H   H130      1.0  0.47353  0.18668  0.40909  1.0000
  C   C335      1.0  0.53865  0.90448  0.37104  1.0000
  C   C336      1.0  0.52192  0.87175  0.37714  1.0000
  C   C337      1.0  0.54335  0.87460  0.40127  1.0000
  C   C338      1.0  0.55141  0.89090  0.39762  1.0000
  H   H131      1.0  0.56693  0.89284  0.41432  1.0000
  C   C339      1.0  0.51388  0.85530  0.37648  1.0000
  C   C340      1.0  0.49853  0.82212  0.36769  1.0000
  C   C341      1.0  0.51941  0.82557  0.39648  1.0000
  C   C342      1.0  0.52733  0.84191  0.40077  1.0000
  C   C343      1.0  0.54841  0.84495  0.42662  1.0000
  C   C344      1.0  0.55639  0.86119  0.42664  1.0000
  H   H132      1.0  0.55825  0.83536  0.44388  1.0000
  H   H133      1.0  0.57186  0.86309  0.44402  1.0000
  H   H134      1.0  0.52934  0.81603  0.41358  1.0000
  C   C345      1.0  0.01653  0.60156  0.32934  1.0000
  N   N115      1.0  0.00912  0.61745  0.32697  1.0000
  C   C346      1.0  0.98510  0.66660  0.33381  1.0000
  H   H135      1.0  0.00664  0.59236  0.35112  1.0000
  N   N116      1.0  0.99300  0.65086  0.32948  1.0000
  H   H136      1.0  0.97005  0.66821  0.35703  1.0000
  C   C347      1.0  0.98451  0.40077  0.32061  1.0000
  N   N117      1.0  0.99195  0.38489  0.31804  1.0000
  C   C348      1.0  0.01625  0.33589  0.32455  1.0000
  H   H137      1.0  0.99452  0.41000  0.34096  1.0000
  N   N118      1.0  0.00823  0.35159  0.32035  1.0000
  H   H138      1.0  0.03144  0.33438  0.34622  1.0000
  C   C349      1.0  0.44732  0.48873  0.34267  1.0000
  C   C350      1.0  0.49016  0.49892  0.34467  1.0000
  C   C351      1.0  0.48459  0.48322  0.38104  1.0000
  C   C352      1.0  0.46318  0.47829  0.37893  1.0000
  H   H139      1.0  0.45912  0.46693  0.40472  1.0000
  C   C353      1.0  0.51159  0.50395  0.34329  1.0000
  C   C354      1.0  0.55444  0.51413  0.33709  1.0000
  C   C355      1.0  0.54882  0.49856  0.37438  1.0000
  C   C356      1.0  0.52751  0.49334  0.37850  1.0000
  C   C357      1.0  0.52173  0.47791  0.41613  1.0000
  C   C358      1.0  0.50046  0.47288  0.41732  1.0000
  H   H140      1.0  0.53297  0.47013  0.44204  1.0000
  H   H141      1.0  0.49669  0.46155  0.44399  1.0000
  H   H142      1.0  0.56033  0.49098  0.39997  1.0000
  C   C359      1.0  0.03783  0.97751  0.35439  1.0000
  N   N119      1.0  0.01754  0.98294  0.35131  1.0000
  C   C360      1.0  0.95400  0.99749  0.34895  1.0000
  H   H143      1.0  0.04041  0.96548  0.37350  1.0000
  N   N120      1.0  0.97474  0.99311  0.34829  1.0000
  H   H144      1.0  0.94316  0.98873  0.36748  1.0000
  C   C361      1.0  0.36185  0.36886  0.34665  1.0000
  N   N121      1.0  0.36614  0.38539  0.34266  1.0000
  C   C362      1.0  0.37672  0.43685  0.33976  1.0000
  H   H145      1.0  0.34659  0.36537  0.35867  1.0000
  N   N122      1.0  0.37373  0.42013  0.33919  1.0000
  H   H146      1.0  0.36386  0.44430  0.34998  1.0000
  C   C363      1.0  0.64014  0.63378  0.33921  1.0000
  N   N123      1.0  0.63584  0.61728  0.33345  1.0000
  C   C364      1.0  0.62514  0.56594  0.32932  1.0000
  H   H147      1.0  0.65527  0.63720  0.35447  1.0000
  N   N124      1.0  0.62819  0.58265  0.32839  1.0000
  H   H148      1.0  0.63784  0.55851  0.34283  1.0000
  C   C365      1.0  0.12415  0.85640  0.34279  1.0000
  C   C366      1.0  0.11654  0.89108  0.35399  1.0000
  C   C367      1.0  0.09962  0.87979  0.36838  1.0000
  C   C368      1.0  0.10370  0.86257  0.36273  1.0000
  H   H149      1.0  0.09141  0.85447  0.37197  1.0000
  C   C369      1.0  0.11275  0.90840  0.35600  1.0000
  C   C370      1.0  0.10515  0.94313  0.35332  1.0000
  C   C371      1.0  0.08853  0.93176  0.37069  1.0000
  C   C372      1.0  0.09202  0.91444  0.37226  1.0000
  C   C373      1.0  0.07538  0.90313  0.38796  1.0000
  C   C374      1.0  0.07915  0.88593  0.38609  1.0000
  H   H150      1.0  0.06034  0.90730  0.39958  1.0000
  H   H151      1.0  0.06678  0.87796  0.39630  1.0000
  H   H152      1.0  0.07352  0.93607  0.38168  1.0000
  C   C375      1.0  0.87814  0.14552  0.33241  1.0000
  C   C376      1.0  0.88587  0.11081  0.34103  1.0000
  C   C377      1.0  0.90292  0.12211  0.35235  1.0000
  C   C378      1.0  0.89878  0.13932  0.34809  1.0000
  H   H153      1.0  0.91117  0.14741  0.35522  1.0000
  C   C379      1.0  0.88967  0.09348  0.34252  1.0000
  C   C380      1.0  0.89725  0.05873  0.34095  1.0000
  C   C381      1.0  0.91404  0.07015  0.35405  1.0000
  C   C382      1.0  0.91056  0.08747  0.35512  1.0000
  C   C383      1.0  0.92735  0.09878  0.36736  1.0000
  C   C384      1.0  0.92356  0.11597  0.36604  1.0000
  H   H154      1.0  0.94250  0.09462  0.37643  1.0000
  H   H155      1.0  0.93602  0.12396  0.37411  1.0000
  H   H156      1.0  0.92914  0.06588  0.36289  1.0000
  C   C385      1.0  0.28784  0.55962  0.32806  1.0000
  C   C386      1.0  0.32161  0.53630  0.32892  1.0000
  C   C387      1.0  0.32612  0.55357  0.33406  1.0000
  C   C388      1.0  0.30917  0.56495  0.33337  1.0000
  H   H157      1.0  0.31260  0.57737  0.33747  1.0000
  C   C389      1.0  0.33843  0.52467  0.32914  1.0000
  C   C390      1.0  0.37206  0.50123  0.32983  1.0000
  C   C391      1.0  0.37617  0.51852  0.33500  1.0000
  C   C392      1.0  0.35967  0.53033  0.33478  1.0000
  C   C393      1.0  0.36391  0.54751  0.34019  1.0000
  C   C394      1.0  0.34727  0.55904  0.33978  1.0000
  H   H158      1.0  0.37913  0.55178  0.34437  1.0000
  H   H159      1.0  0.35073  0.57146  0.34365  1.0000
  H   H160      1.0  0.39143  0.52268  0.33934  1.0000
  C   C395      1.0  0.71374  0.44319  0.34124  1.0000
  C   C396      1.0  0.68006  0.46660  0.34320  1.0000
  C   C397      1.0  0.67552  0.44936  0.35016  1.0000
  C   C398      1.0  0.69243  0.43793  0.34887  1.0000
  H   H161      1.0  0.68900  0.42552  0.35408  1.0000
  C   C399      1.0  0.66329  0.47827  0.34307  1.0000
  C   C400      1.0  0.62974  0.50178  0.34011  1.0000
  C   C401      1.0  0.62558  0.48454  0.34878  1.0000
  C   C402      1.0  0.64205  0.47270  0.35022  1.0000
  C   C403      1.0  0.63777  0.45554  0.35788  1.0000
  C   C404      1.0  0.65437  0.44397  0.35776  1.0000
  H   H162      1.0  0.62255  0.45133  0.36301  1.0000
  H   H163      1.0  0.65086  0.43158  0.36286  1.0000
  H   H164      1.0  0.61030  0.48043  0.35345  1.0000
  C   C405      1.0  0.21738  0.04205  0.34080  1.0000
  N   N125      1.0  0.20093  0.03116  0.33958  1.0000
  C   C406      1.0  0.15173  0.99591  0.34026  1.0000
  H   H165      1.0  0.23232  0.03737  0.34735  1.0000
  N   N126      1.0  0.16731  0.00754  0.33939  1.0000
  H   H166      1.0  0.15604  0.98373  0.34714  1.0000
  C   C407      1.0  0.78466  0.96029  0.34104  1.0000
  N   N127      1.0  0.80125  0.97105  0.34071  1.0000
  C   C408      1.0  0.85078  0.00596  0.34045  1.0000
  H   H167      1.0  0.76974  0.96512  0.34391  1.0000
  N   N128      1.0  0.83510  0.99441  0.34055  1.0000
  H   H168      1.0  0.84652  0.01820  0.34327  1.0000
  C   C409      1.0  0.23654  0.11713  0.35133  1.0000
  C   C410      1.0  0.22747  0.15164  0.36023  1.0000
  C   C411      1.0  0.24871  0.14612  0.36805  1.0000
  C   C412      1.0  0.25293  0.12893  0.36338  1.0000
  H   H169      1.0  0.26829  0.12504  0.36889  1.0000
  C   C413      1.0  0.22293  0.16887  0.36321  1.0000
  C   C414      1.0  0.21374  0.20340  0.36675  1.0000
  C   C415      1.0  0.23477  0.19760  0.37601  1.0000
  C   C416      1.0  0.23963  0.18049  0.37431  1.0000
  C   C417      1.0  0.26064  0.17483  0.38277  1.0000
  C   C418      1.0  0.26515  0.15777  0.37959  1.0000
  H   H170      1.0  0.27283  0.18308  0.39070  1.0000
  H   H171      1.0  0.28053  0.15395  0.38527  1.0000
  H   H172      1.0  0.24690  0.20591  0.38371  1.0000
  C   C419      1.0  0.76473  0.88535  0.35038  1.0000
  C   C420      1.0  0.77380  0.85086  0.35964  1.0000
  C   C421      1.0  0.75251  0.85635  0.36582  1.0000
  C   C422      1.0  0.74829  0.87354  0.36093  1.0000
  H   H173      1.0  0.73291  0.87743  0.36530  1.0000
  C   C423      1.0  0.77838  0.83365  0.36304  1.0000
  C   C424      1.0  0.78771  0.79915  0.36773  1.0000
  C   C425      1.0  0.76661  0.80490  0.37530  1.0000
  C   C426      1.0  0.76168  0.82199  0.37298  1.0000
  C   C427      1.0  0.74062  0.82761  0.37976  1.0000
  C   C428      1.0  0.73606  0.84467  0.37611  1.0000
  H   H174      1.0  0.72842  0.81934  0.38687  1.0000
  H   H175      1.0  0.72065  0.84846  0.38065  1.0000
  H   H176      1.0  0.75449  0.79656  0.38216  1.0000
  C   C429      1.0  0.28585  0.62349  0.32203  1.0000
  N   N129      1.0  0.28967  0.64010  0.31844  1.0000
  C   C430      1.0  0.30413  0.69108  0.31227  1.0000
  H   H177      1.0  0.29844  0.61567  0.33004  1.0000
  N   N130      1.0  0.29901  0.67467  0.31363  1.0000
  H   H178      1.0  0.31970  0.69424  0.31870  1.0000
  C   C431      1.0  0.71597  0.37921  0.32985  1.0000
  N   N131      1.0  0.71229  0.36259  0.32495  1.0000
  C   C432      1.0  0.69826  0.31156  0.31515  1.0000
  H   H179      1.0  0.70333  0.38694  0.33898  1.0000
  N   N132      1.0  0.70324  0.32799  0.31758  1.0000
  H   H180      1.0  0.68272  0.30831  0.32187  1.0000
  C   C433      1.0  0.33086  0.30940  0.39027  1.0000
  C   C434      1.0  0.29297  0.29078  0.39883  1.0000
  C   C435      1.0  0.31118  0.28502  0.44486  1.0000
  C   C436      1.0  0.32980  0.29454  0.44070  1.0000
  H   H181      1.0  0.34305  0.29013  0.47225  1.0000
  C   C437      1.0  0.27459  0.28074  0.39712  1.0000
  C   C438      1.0  0.23880  0.25980  0.38446  1.0000
  C   C439      1.0  0.25683  0.25469  0.43296  1.0000
  C   C440      1.0  0.27473  0.26500  0.44034  1.0000
  C   C441      1.0  0.29276  0.25966  0.48763  1.0000
  C   C442      1.0  0.31087  0.26967  0.49026  1.0000
  H   H182      1.0  0.29305  0.24832  0.51873  1.0000
  H   H183      1.0  0.32402  0.26536  0.52278  1.0000
  H   H184      1.0  0.25704  0.24326  0.46324  1.0000
  C   C443      1.0  0.67119  0.69293  0.38926  1.0000
  C   C444      1.0  0.70906  0.71152  0.39955  1.0000
  C   C445      1.0  0.69088  0.71707  0.44659  1.0000
  C   C446      1.0  0.67228  0.70756  0.44164  1.0000
  H   H185      1.0  0.65903  0.71184  0.47369  1.0000
  C   C447      1.0  0.72739  0.72160  0.39842  1.0000
  C   C448      1.0  0.76303  0.74266  0.38640  1.0000
  C   C449      1.0  0.74509  0.74758  0.43604  1.0000
  C   C450      1.0  0.72727  0.73719  0.44316  1.0000
  C   C451      1.0  0.70929  0.74232  0.49152  1.0000
  C   C452      1.0  0.69122  0.73227  0.49357  1.0000
  H   H186      1.0  0.70902  0.75354  0.52377  1.0000
  H   H187      1.0  0.67811  0.73642  0.52695  1.0000
  H   H188      1.0  0.74490  0.75892  0.46725  1.0000
  C   C453      1.0  0.19012  0.81462  0.32445  1.0000
  N   N133      1.0  0.20801  0.80526  0.31897  1.0000
  C   C454      1.0  0.26302  0.77579  0.32493  1.0000
  H   H189      1.0  0.19025  0.82501  0.36369  1.0000
  N   N134      1.0  0.24536  0.78536  0.31918  1.0000
  H   H190      1.0  0.27547  0.78005  0.36193  1.0000
  C   C455      1.0  0.81198  0.18753  0.31964  1.0000
  N   N135      1.0  0.79420  0.19703  0.31525  1.0000
  C   C456      1.0  0.73946  0.22685  0.32370  1.0000
  H   H191      1.0  0.81183  0.17711  0.35869  1.0000
  N   N136      1.0  0.75703  0.21719  0.31728  1.0000
  H   H192      1.0  0.72699  0.22259  0.36061  1.0000
  C   C457      1.0  0.48461  0.23844  0.34710  1.0000
  C   C458      1.0  0.45261  0.26301  0.35449  1.0000
  C   C459      1.0  0.44772  0.24632  0.37783  1.0000
  C   C460      1.0  0.46381  0.23424  0.37355  1.0000
  H   H193      1.0  0.46023  0.22223  0.39059  1.0000
  C   C461      1.0  0.43663  0.27530  0.35714  1.0000
  C   C462      1.0  0.40440  0.29979  0.35963  1.0000
  C   C463      1.0  0.40009  0.28311  0.38445  1.0000
  C   C464      1.0  0.41586  0.27079  0.38346  1.0000
  C   C465      1.0  0.41121  0.25422  0.40731  1.0000
  C   C466      1.0  0.42705  0.24205  0.40443  1.0000
  H   H194      1.0  0.39626  0.25085  0.42629  1.0000
  H   H195      1.0  0.42332  0.23008  0.42144  1.0000
  H   H196      1.0  0.38516  0.27970  0.40347  1.0000
  C   C467      1.0  0.51779  0.76434  0.35194  1.0000
  C   C468      1.0  0.54969  0.73968  0.35715  1.0000
  C   C469      1.0  0.55463  0.75628  0.38219  1.0000
  C   C470      1.0  0.53859  0.76841  0.37897  1.0000
  H   H197      1.0  0.54219  0.78035  0.39719  1.0000
  C   C471      1.0  0.56561  0.72735  0.35863  1.0000
  C   C472      1.0  0.59774  0.70279  0.35870  1.0000
  C   C473      1.0  0.60210  0.71935  0.38536  1.0000
  C   C474      1.0  0.58638  0.73172  0.38556  1.0000
  C   C475      1.0  0.59110  0.74818  0.41113  1.0000
  C   C476      1.0  0.57531  0.76040  0.40935  1.0000
  H   H198      1.0  0.60605  0.75145  0.43055  1.0000
  H   H199      1.0  0.57908  0.77231  0.42760  1.0000
  H   H200      1.0  0.61704  0.72267  0.40480  1.0000
  C   C477      1.0  0.01361  0.75499  0.34732  1.0000
  N   N137      1.0  0.02939  0.76641  0.34367  1.0000
  C   C478      1.0  0.07668  0.80310  0.33966  1.0000
  H   H201      1.0  0.99904  0.75886  0.36811  1.0000
  N   N138      1.0  0.06163  0.79103  0.33976  1.0000
  H   H202      1.0  0.07250  0.81479  0.35980  1.0000
  C   C479      1.0  0.98830  0.24732  0.34029  1.0000
  N   N139      1.0  0.97257  0.23586  0.33698  1.0000
  C   C480      1.0  0.92543  0.19899  0.33291  1.0000
  H   H203      1.0  0.00298  0.24345  0.35980  1.0000
  N   N140      1.0  0.94042  0.21112  0.33321  1.0000
  H   H204      1.0  0.92973  0.18726  0.35171  1.0000
  C   C481      1.0  0.05800  0.27867  0.34600  1.0000
  C   C482      1.0  0.10020  0.26693  0.35442  1.0000
  C   C483      1.0  0.08328  0.25577  0.37099  1.0000
  C   C484      1.0  0.06244  0.26183  0.36691  1.0000
  H   H205      1.0  0.05034  0.25366  0.37845  1.0000
  C   C485      1.0  0.12123  0.26099  0.35616  1.0000
  C   C486      1.0  0.16341  0.24920  0.35780  1.0000
  C   C487      1.0  0.14633  0.23825  0.37410  1.0000
  C   C488      1.0  0.12526  0.24392  0.37397  1.0000
  C   C489      1.0  0.10830  0.23300  0.39104  1.0000
  C   C490      1.0  0.08744  0.23889  0.38973  1.0000
  H   H206      1.0  0.11097  0.22068  0.40406  1.0000
  H   H207      1.0  0.07535  0.23072  0.40154  1.0000
  H   H208      1.0  0.14919  0.22597  0.38765  1.0000
  C   C491      1.0  0.94367  0.72398  0.35175  1.0000
  C   C492      1.0  0.90150  0.73579  0.35869  1.0000
  C   C493      1.0  0.91842  0.74700  0.37436  1.0000
  C   C494      1.0  0.93925  0.74089  0.37103  1.0000
  H   H209      1.0  0.95137  0.74909  0.38182  1.0000
  C   C495      1.0  0.88047  0.74175  0.35976  1.0000
  C   C496      1.0  0.83830  0.75351  0.36034  1.0000
  C   C497      1.0  0.85536  0.76452  0.37571  1.0000
  C   C498      1.0  0.87644  0.75886  0.37607  1.0000
  C   C499      1.0  0.89340  0.76983  0.39221  1.0000
  C   C500      1.0  0.91426  0.76393  0.39149  1.0000
  H   H210      1.0  0.89073  0.78219  0.40416  1.0000
  H   H211      1.0  0.92636  0.77213  0.40270  1.0000
  H   H212      1.0  0.85249  0.77684  0.38819  1.0000
  C   C501      1.0  0.42654  0.78925  0.33904  1.0000
  N   N141      1.0  0.40653  0.78311  0.33490  1.0000
  C   C502      1.0  0.34390  0.76599  0.32945  1.0000
  H   H213      1.0  0.42849  0.80151  0.35493  1.0000
  N   N142      1.0  0.36431  0.77120  0.33024  1.0000
  H   H214      1.0  0.33237  0.77458  0.34193  1.0000
  C   C503      1.0  0.57592  0.21358  0.33270  1.0000
  N   N143      1.0  0.59594  0.21969  0.32934  1.0000
  C   C504      1.0  0.65862  0.23669  0.32604  1.0000
  H   H215      1.0  0.57393  0.20127  0.34748  1.0000
  N   N144      1.0  0.63819  0.23152  0.32615  1.0000
  H   H216      1.0  0.67011  0.22804  0.33781  1.0000
