data_image0
_chemical_formula_structural       C3NC2NCH2CHCH2C3NC2NCH2CHCH2C3NC2NCH2CHCH2C3NC2NCH2CHCH2C3NC2NCH2CHCH2C3NC2NCH2CHCH2C3H2C2H4C2H5CH2C3H2C2H4C2H5CH2C3H2C2H4C2H5CH2C3H2C2H4C2H5CH2C3H2C2H4C2H5CH2C3H2C2H4C2H5CH2C3NC2NHCH2C3NC2NHCH2C3NC2NHCH2C3NC2NHCH2C3NC2NHCH2C3NC2NHCH2C6H3NHNHNHC6H3NHNHNHC6H3NHNHNHC6H3NHNHNHC6H3NHNHNHC6H3NHNHNHC6H3NHNHNHC6H3NHNHNHC6H3NHNHNHC6H3NHNHNHC6H3NHNHNHC6H3NHNHNHC3H2CH3CH4CH2C3H2CH3CH4CH2C3H2CH3CH4CH2C3H2CH3CH4CH2C3H2CH3CH4CH2C3H2CH3CH4CH2C3NC2NHCH2C3NC2NHCH2C3NC2NHCH2C3NC2NHCH2C3NC2NHCH2C3NC2NHCH2C3H2C2H4C2H5CH2C3H2C2H4C2H5CH2C3H2C2H4C2H5CH2C3H2C2H4C2H5CH2C3H2C2H4C2H5CH2C3H2C2H4C2H5CH2
_chemical_formula_sum              "C324 N72 H360"
_cell_length_a       58.6915
_cell_length_b       58.6915
_cell_length_c       15.042
_cell_angle_alpha    90
_cell_angle_beta     90
_cell_angle_gamma    120

_space_group_name_H-M_alt    "P 1"
_space_group_IT_number       1

loop_
  _space_group_symop_operation_xyz
  'x, y, z'

loop_
  _atom_site_type_symbol
  _atom_site_label
  _atom_site_symmetry_multiplicity
  _atom_site_fract_x
  _atom_site_fract_y
  _atom_site_fract_z
  _atom_site_occupancy
  C   C1        1.0  0.21439  0.47470  0.28061  1.0000
  C   C2        1.0  0.21792  0.45773  0.22233  1.0000
  C   C3        1.0  0.23528  0.44845  0.24536  1.0000
  N   N1        1.0  0.23783  0.43222  0.18689  1.0000
  C   C4        1.0  0.22511  0.42425  0.10754  1.0000
  C   C5        1.0  0.20766  0.43351  0.08440  1.0000
  N   N2        1.0  0.20498  0.44956  0.14355  1.0000
  C   C6        1.0  0.23089  0.40678  0.05211  1.0000
  H   H1        1.0  0.21254  0.38986  0.02948  1.0000
  H   H2        1.0  0.24094  0.39894  0.09237  1.0000
  C   C7        1.0  0.19141  0.42675  0.00234  1.0000
  H   H3        1.0  0.17081  0.41857  0.02160  1.0000
  C   C8        1.0  0.19414  0.48244  0.26605  1.0000
  H   H4        1.0  0.20279  0.50365  0.27577  1.0000
  H   H5        1.0  0.18660  0.47806  0.19799  1.0000
  C   C9        1.0  0.54060  0.75769  0.28109  1.0000
  C   C10       1.0  0.55751  0.77817  0.22266  1.0000
  C   C11       1.0  0.56676  0.80481  0.24554  1.0000
  N   N3        1.0  0.58293  0.82358  0.18688  1.0000
  C   C12       1.0  0.59085  0.81880  0.10750  1.0000
  C   C13       1.0  0.58163  0.79209  0.08452  1.0000
  N   N4        1.0  0.56565  0.77338  0.14384  1.0000
  C   C14       1.0  0.60824  0.84203  0.05185  1.0000
  H   H6        1.0  0.62517  0.84063  0.02914  1.0000
  H   H7        1.0  0.61607  0.85994  0.09197  1.0000
  C   C15       1.0  0.58836  0.78256  0.00248  1.0000
  H   H8        1.0  0.59661  0.77021  0.02176  1.0000
  C   C16       1.0  0.53281  0.72969  0.26646  1.0000
  H   H9        1.0  0.51159  0.71717  0.27628  1.0000
  H   H10       1.0  0.53714  0.72652  0.19836  1.0000
  C   C17       1.0  0.25742  0.80067  0.28095  1.0000
  C   C18       1.0  0.23692  0.79711  0.22258  1.0000
  C   C19       1.0  0.21028  0.77972  0.24551  1.0000
  N   N5        1.0  0.19151  0.77714  0.18694  1.0000
  C   C20       1.0  0.19628  0.78986  0.10758  1.0000
  C   C21       1.0  0.22298  0.80734  0.08454  1.0000
  N   N6        1.0  0.24170  0.81005  0.14378  1.0000
  C   C22       1.0  0.17303  0.78403  0.05203  1.0000
  H   H11       1.0  0.17444  0.80237  0.02938  1.0000
  H   H12       1.0  0.15513  0.77396  0.09221  1.0000
  C   C23       1.0  0.23249  0.82360  0.00251  1.0000
  H   H13       1.0  0.24486  0.84420  0.02179  1.0000
  C   C24       1.0  0.28540  0.82091  0.26638  1.0000
  H   H14       1.0  0.29796  0.81225  0.27612  1.0000
  H   H15       1.0  0.28857  0.82845  0.19832  1.0000
  C   C25       1.0  0.79382  0.54728  0.28086  1.0000
  C   C26       1.0  0.79027  0.56423  0.22253  1.0000
  C   C27       1.0  0.77289  0.57348  0.24550  1.0000
  N   N7        1.0  0.77031  0.58969  0.18696  1.0000
  C   C28       1.0  0.78303  0.59764  0.10761  1.0000
  C   C29       1.0  0.80051  0.58842  0.08453  1.0000
  N   N8        1.0  0.80321  0.57239  0.14374  1.0000
  C   C30       1.0  0.77722  0.61508  0.05209  1.0000
  H   H16       1.0  0.79556  0.63201  0.02946  1.0000
  H   H17       1.0  0.76715  0.62291  0.09230  1.0000
  C   C31       1.0  0.81677  0.59517  0.00249  1.0000
  H   H18       1.0  0.83737  0.60339  0.02177  1.0000
  C   C32       1.0  0.81406  0.53954  0.26629  1.0000
  H   H19       1.0  0.80541  0.51833  0.27606  1.0000
  H   H20       1.0  0.82160  0.54390  0.19823  1.0000
  C   C33       1.0  0.46764  0.26427  0.28096  1.0000
  C   C34       1.0  0.45071  0.24377  0.22258  1.0000
  C   C35       1.0  0.44148  0.21714  0.24550  1.0000
  N   N9        1.0  0.42530  0.19836  0.18690  1.0000
  C   C36       1.0  0.41735  0.20313  0.10753  1.0000
  C   C37       1.0  0.42656  0.22984  0.08451  1.0000
  N   N10       1.0  0.44256  0.24855  0.14378  1.0000
  C   C38       1.0  0.39994  0.17989  0.05195  1.0000
  H   H21       1.0  0.38301  0.18128  0.02928  1.0000
  H   H22       1.0  0.39212  0.16198  0.09210  1.0000
  C   C39       1.0  0.41981  0.23934  0.00247  1.0000
  H   H23       1.0  0.41157  0.25170  0.02176  1.0000
  C   C40       1.0  0.47540  0.29226  0.26635  1.0000
  H   H24       1.0  0.49662  0.30481  0.27610  1.0000
  H   H25       1.0  0.47104  0.29543  0.19828  1.0000
  C   C41       1.0  0.75075  0.22127  0.28091  1.0000
  C   C42       1.0  0.77124  0.22482  0.22255  1.0000
  C   C43       1.0  0.79788  0.24222  0.24549  1.0000
  N   N11       1.0  0.81666  0.24479  0.18693  1.0000
  C   C44       1.0  0.81189  0.23207  0.10758  1.0000
  C   C45       1.0  0.78518  0.21459  0.08453  1.0000
  N   N12       1.0  0.76646  0.21189  0.14376  1.0000
  C   C46       1.0  0.83513  0.23789  0.05204  1.0000
  H   H26       1.0  0.83372  0.21954  0.02940  1.0000
  H   H27       1.0  0.85303  0.24796  0.09223  1.0000
  C   C47       1.0  0.77568  0.19833  0.00249  1.0000
  H   H28       1.0  0.76329  0.17773  0.02178  1.0000
  C   C48       1.0  0.72276  0.20103  0.26634  1.0000
  H   H29       1.0  0.71020  0.20969  0.27607  1.0000
  H   H30       1.0  0.71959  0.19349  0.19828  1.0000
  C   C49       1.0  0.13493  0.60333  0.38588  1.0000
  C   C50       1.0  0.14401  0.59340  0.31721  1.0000
  C   C51       1.0  0.14218  0.56872  0.32420  1.0000
  H   H31       1.0  0.14918  0.56252  0.27295  1.0000
  H   H32       1.0  0.15175  0.60398  0.26003  1.0000
  C   C52       1.0  0.10827  0.60091  0.02201  1.0000
  C   C53       1.0  0.09437  0.58940  0.11152  1.0000
  H   H33       1.0  0.12803  0.61702  0.03740  1.0000
  H   H34       1.0  0.07421  0.57360  0.10045  1.0000
  H   H35       1.0  0.09358  0.60479  0.15000  1.0000
  H   H36       1.0  0.10508  0.58225  0.15081  1.0000
  C   C54       1.0  0.10000  0.54041  0.03216  1.0000
  C   C55       1.0  0.12446  0.54572  0.08668  1.0000
  H   H37       1.0  0.09057  0.52005  0.00865  1.0000
  H   H38       1.0  0.08549  0.54139  0.07425  1.0000
  H   H39       1.0  0.13491  0.56593  0.11093  1.0000
  H   H40       1.0  0.13791  0.54232  0.04605  1.0000
  H   H41       1.0  0.11836  0.53239  0.14336  1.0000
  C   C56       1.0  0.13562  0.62864  0.36673  1.0000
  H   H42       1.0  0.12587  0.62609  0.30227  1.0000
  H   H43       1.0  0.15634  0.64349  0.35834  1.0000
  C   C57       1.0  0.41155  0.54936  0.38593  1.0000
  C   C58       1.0  0.42144  0.56839  0.31731  1.0000
  C   C59       1.0  0.44606  0.59130  0.32437  1.0000
  H   H44       1.0  0.45223  0.60450  0.27314  1.0000
  H   H45       1.0  0.41085  0.56551  0.26011  1.0000
  C   C60       1.0  0.41407  0.52507  0.02192  1.0000
  C   C61       1.0  0.42557  0.52275  0.11155  1.0000
  H   H46       1.0  0.39785  0.52857  0.03717  1.0000
  H   H47       1.0  0.44144  0.51848  0.10066  1.0000
  H   H48       1.0  0.41021  0.50656  0.15001  1.0000
  H   H49       1.0  0.43264  0.54063  0.15078  1.0000
  C   C62       1.0  0.47448  0.57745  0.03223  1.0000
  C   C63       1.0  0.46913  0.59656  0.08682  1.0000
  H   H50       1.0  0.49484  0.58841  0.00870  1.0000
  H   H51       1.0  0.47353  0.56196  0.07429  1.0000
  H   H52       1.0  0.44892  0.58677  0.11107  1.0000
  H   H53       1.0  0.47251  0.61341  0.04624  1.0000
  H   H54       1.0  0.48246  0.60380  0.14352  1.0000
  C   C64       1.0  0.38629  0.52470  0.36673  1.0000
  H   H55       1.0  0.38889  0.51749  0.30237  1.0000
  H   H56       1.0  0.37141  0.53052  0.35811  1.0000
  C   C65       1.0  0.46561  0.88008  0.38574  1.0000
  C   C66       1.0  0.44659  0.87099  0.31709  1.0000
  C   C67       1.0  0.42373  0.87279  0.32412  1.0000
  H   H57       1.0  0.41053  0.86579  0.27288  1.0000
  H   H58       1.0  0.44944  0.86326  0.25990  1.0000
  C   C68       1.0  0.48986  0.90676  0.02184  1.0000
  C   C69       1.0  0.49226  0.92065  0.11138  1.0000
  H   H59       1.0  0.48625  0.88701  0.03722  1.0000
  H   H60       1.0  0.49659  0.94081  0.10033  1.0000
  H   H61       1.0  0.50843  0.92145  0.14983  1.0000
  H   H62       1.0  0.47438  0.90992  0.15067  1.0000
  C   C70       1.0  0.43761  0.91498  0.03207  1.0000
  C   C71       1.0  0.41847  0.89053  0.08662  1.0000
  H   H63       1.0  0.42666  0.92440  0.00856  1.0000
  H   H64       1.0  0.45310  0.92951  0.07414  1.0000
  H   H65       1.0  0.42824  0.88008  0.11087  1.0000
  H   H66       1.0  0.40162  0.87707  0.04603  1.0000
  H   H67       1.0  0.41124  0.89662  0.14333  1.0000
  C   C72       1.0  0.49023  0.87941  0.36655  1.0000
  H   H68       1.0  0.49744  0.88918  0.30213  1.0000
  H   H69       1.0  0.48438  0.85869  0.35810  1.0000
  C   C73       1.0  0.87324  0.41857  0.38593  1.0000
  C   C74       1.0  0.86416  0.42851  0.31726  1.0000
  C   C75       1.0  0.86599  0.45318  0.32427  1.0000
  H   H70       1.0  0.85899  0.45938  0.27302  1.0000
  H   H71       1.0  0.85643  0.41792  0.26009  1.0000
  C   C76       1.0  0.89990  0.42100  0.02207  1.0000
  C   C77       1.0  0.91381  0.43250  0.11157  1.0000
  H   H72       1.0  0.88014  0.40488  0.03747  1.0000
  H   H73       1.0  0.93396  0.44831  0.10049  1.0000
  H   H74       1.0  0.91460  0.41712  0.15004  1.0000
  H   H75       1.0  0.90309  0.43966  0.15088  1.0000
  C   C78       1.0  0.90816  0.48148  0.03224  1.0000
  C   C79       1.0  0.88369  0.47617  0.08676  1.0000
  H   H76       1.0  0.91758  0.50185  0.00873  1.0000
  H   H77       1.0  0.92267  0.48051  0.07432  1.0000
  H   H78       1.0  0.87325  0.45595  0.11101  1.0000
  H   H79       1.0  0.87024  0.47956  0.04614  1.0000
  H   H80       1.0  0.88978  0.48950  0.14345  1.0000
  C   C80       1.0  0.87256  0.39327  0.36678  1.0000
  H   H81       1.0  0.88231  0.39582  0.30233  1.0000
  H   H82       1.0  0.85183  0.37841  0.35838  1.0000
  C   C81       1.0  0.59654  0.47255  0.38581  1.0000
  C   C82       1.0  0.58663  0.45353  0.31717  1.0000
  C   C83       1.0  0.56199  0.43064  0.32423  1.0000
  H   H83       1.0  0.55581  0.41744  0.27300  1.0000
  H   H84       1.0  0.59721  0.45640  0.25998  1.0000
  C   C84       1.0  0.59405  0.49683  0.02183  1.0000
  C   C85       1.0  0.58257  0.49917  0.11147  1.0000
  H   H85       1.0  0.61025  0.49330  0.03708  1.0000
  H   H86       1.0  0.56672  0.50346  0.10057  1.0000
  H   H87       1.0  0.59793  0.51535  0.14991  1.0000
  H   H88       1.0  0.57548  0.48129  0.15069  1.0000
  C   C86       1.0  0.53362  0.44450  0.03214  1.0000
  C   C87       1.0  0.53895  0.42537  0.08670  1.0000
  H   H89       1.0  0.51326  0.43355  0.00862  1.0000
  H   H90       1.0  0.53458  0.45999  0.07421  1.0000
  H   H91       1.0  0.55916  0.43514  0.11094  1.0000
  H   H92       1.0  0.53556  0.40852  0.04612  1.0000
  H   H93       1.0  0.52562  0.41813  0.14341  1.0000
  C   C88       1.0  0.62181  0.49720  0.36663  1.0000
  H   H94       1.0  0.61922  0.50442  0.30227  1.0000
  H   H95       1.0  0.63668  0.49136  0.35803  1.0000
  C   C89       1.0  0.54254  0.14181  0.38578  1.0000
  C   C90       1.0  0.56156  0.15090  0.31711  1.0000
  C   C91       1.0  0.58443  0.14910  0.32413  1.0000
  H   H96       1.0  0.59762  0.15611  0.27289  1.0000
  H   H97       1.0  0.55871  0.15863  0.25993  1.0000
  C   C92       1.0  0.51830  0.11512  0.02188  1.0000
  C   C93       1.0  0.51591  0.10123  0.11141  1.0000
  H   H98       1.0  0.52191  0.13487  0.03726  1.0000
  H   H99       1.0  0.51158  0.08108  0.10035  1.0000
  H   H100      1.0  0.49973  0.10043  0.14987  1.0000
  H   H101      1.0  0.53378  0.11197  0.15071  1.0000
  C   C94       1.0  0.57056  0.10692  0.03209  1.0000
  C   C95       1.0  0.58970  0.13138  0.08664  1.0000
  H   H102      1.0  0.58152  0.09750  0.00858  1.0000
  H   H103      1.0  0.55507  0.09239  0.07417  1.0000
  H   H104      1.0  0.57992  0.14182  0.11088  1.0000
  H   H105      1.0  0.60655  0.14484  0.04604  1.0000
  H   H106      1.0  0.59693  0.12529  0.14334  1.0000
  C   C96       1.0  0.51792  0.14248  0.36661  1.0000
  H   H107      1.0  0.51071  0.13270  0.30220  1.0000
  H   H108      1.0  0.52377  0.16319  0.35815  1.0000
  C   C97       1.0  0.98450  0.37493  0.25941  1.0000
  C   C98       1.0  0.99846  0.36993  0.19270  1.0000
  C   C99       1.0  0.02492  0.37651  0.20715  1.0000
  N   N13       1.0  0.03747  0.37181  0.13997  1.0000
  C   C100      1.0  0.02674  0.36143  0.05957  1.0000
  C   C101      1.0  0.00028  0.35503  0.04466  1.0000
  N   N14       1.0  0.98765  0.35949  0.11245  1.0000
  H   H109      1.0  0.06123  0.35996  0.02815  1.0000
  C   C102      1.0  0.95649  0.36774  0.24997  1.0000
  H   H110      1.0  0.95556  0.38586  0.25485  1.0000
  H   H111      1.0  0.94821  0.35884  0.18546  1.0000
  C   C103      1.0  0.64034  0.62754  0.25937  1.0000
  C   C104      1.0  0.64529  0.64648  0.19264  1.0000
  C   C105      1.0  0.63859  0.66627  0.20701  1.0000
  N   N15       1.0  0.64323  0.68350  0.13978  1.0000
  C   C106      1.0  0.65364  0.68319  0.05942  1.0000
  C   C107      1.0  0.66015  0.66320  0.04458  1.0000
  N   N16       1.0  0.65574  0.64613  0.11240  1.0000
  H   H112      1.0  0.65497  0.71907  0.02788  1.0000
  C   C108      1.0  0.64757  0.60674  0.24992  1.0000
  H   H113      1.0  0.62945  0.58768  0.25449  1.0000
  H   H114      1.0  0.65655  0.60744  0.18552  1.0000
  C   C109      1.0  0.38760  0.03056  0.25937  1.0000
  C   C110      1.0  0.36865  0.01659  0.19267  1.0000
  C   C111      1.0  0.34879  0.99013  0.20711  1.0000
  N   N17       1.0  0.33155  0.97757  0.13992  1.0000
  C   C112      1.0  0.33188  0.98829  0.05953  1.0000
  C   C113      1.0  0.35193  0.01476  0.04462  1.0000
  N   N18       1.0  0.36902  0.02739  0.11241  1.0000
  H   H115      1.0  0.29594  0.95379  0.02809  1.0000
  C   C114      1.0  0.40843  0.05858  0.24992  1.0000
  H   H116      1.0  0.42748  0.05950  0.25473  1.0000
  H   H117      1.0  0.40779  0.06685  0.18543  1.0000
  C   C115      1.0  0.02369  0.64697  0.25920  1.0000
  C   C116      1.0  0.00974  0.65198  0.19249  1.0000
  C   C117      1.0  0.98328  0.64540  0.20693  1.0000
  N   N19       1.0  0.97074  0.65010  0.13974  1.0000
  C   C118      1.0  0.98146  0.66048  0.05935  1.0000
  C   C119      1.0  0.00792  0.66688  0.04444  1.0000
  N   N20       1.0  0.02055  0.66241  0.11223  1.0000
  H   H118      1.0  0.94699  0.66198  0.02793  1.0000
  C   C120      1.0  0.05171  0.65416  0.24979  1.0000
  H   H119      1.0  0.05263  0.63604  0.25468  1.0000
  H   H120      1.0  0.05998  0.66306  0.18527  1.0000
  C   C121      1.0  0.36792  0.39444  0.25931  1.0000
  C   C122      1.0  0.36295  0.37550  0.19257  1.0000
  C   C123      1.0  0.36961  0.35567  0.20696  1.0000
  N   N21       1.0  0.36494  0.33844  0.13975  1.0000
  C   C124      1.0  0.35454  0.33877  0.05937  1.0000
  C   C125      1.0  0.34808  0.35879  0.04451  1.0000
  N   N22       1.0  0.35251  0.37586  0.11233  1.0000
  H   H121      1.0  0.35314  0.30285  0.02788  1.0000
  C   C126      1.0  0.36069  0.41524  0.24991  1.0000
  H   H122      1.0  0.37880  0.43430  0.25464  1.0000
  H   H123      1.0  0.35174  0.41458  0.18546  1.0000
  C   C127      1.0  0.62057  0.99138  0.25942  1.0000
  C   C128      1.0  0.63953  0.00535  0.19270  1.0000
  C   C129      1.0  0.65939  0.03181  0.20712  1.0000
  N   N23       1.0  0.67663  0.04436  0.13992  1.0000
  C   C130      1.0  0.67629  0.03363  0.05953  1.0000
  C   C131      1.0  0.65624  0.00716  0.04465  1.0000
  N   N24       1.0  0.63915  0.99453  0.11245  1.0000
  H   H124      1.0  0.71224  0.06812  0.02806  1.0000
  C   C132      1.0  0.59974  0.96337  0.24999  1.0000
  H   H125      1.0  0.58070  0.96245  0.25481  1.0000
  H   H126      1.0  0.60038  0.95509  0.18549  1.0000
  C   C133      1.0  0.12255  0.48930  0.30608  1.0000
  C   C134      1.0  0.10071  0.46528  0.27817  1.0000
  C   C135      1.0  0.10276  0.44252  0.26789  1.0000
  C   C136      1.0  0.12674  0.44350  0.28672  1.0000
  C   C137      1.0  0.14885  0.46738  0.31205  1.0000
  C   C138      1.0  0.14678  0.49022  0.31999  1.0000
  H   H127      1.0  0.12824  0.42697  0.27942  1.0000
  H   H128      1.0  0.16310  0.50758  0.33702  1.0000
  H   H129      1.0  0.08320  0.46436  0.26431  1.0000
  N   N25       1.0  0.12128  0.51277  0.31314  1.0000
  H   H130      1.0  0.10328  0.50985  0.29280  1.0000
  N   N26       1.0  0.17237  0.46742  0.32984  1.0000
  H   H131      1.0  0.17805  0.47391  0.39385  1.0000
  N   N27       1.0  0.08083  0.41951  0.23594  1.0000
  H   H132      1.0  0.08583  0.41315  0.17950  1.0000
  C   C139      1.0  0.52557  0.65107  0.30633  1.0000
  C   C140      1.0  0.54953  0.65313  0.27839  1.0000
  C   C141      1.0  0.57235  0.67788  0.26792  1.0000
  C   C142      1.0  0.57150  0.70094  0.28670  1.0000
  C   C143      1.0  0.54770  0.69931  0.31225  1.0000
  C   C144      1.0  0.52479  0.67446  0.32032  1.0000
  H   H133      1.0  0.58809  0.71894  0.27930  1.0000
  H   H134      1.0  0.50749  0.67353  0.33740  1.0000
  H   H135      1.0  0.55035  0.63649  0.26450  1.0000
  N   N28       1.0  0.50204  0.62640  0.31342  1.0000
  H   H136      1.0  0.50490  0.61126  0.29328  1.0000
  N   N29       1.0  0.54780  0.72286  0.33008  1.0000
  H   H137      1.0  0.54137  0.72210  0.39416  1.0000
  N   N30       1.0  0.59529  0.67882  0.23591  1.0000
  H   H138      1.0  0.60159  0.69004  0.17915  1.0000
  C   C145      1.0  0.36391  0.89243  0.30619  1.0000
  C   C146      1.0  0.36176  0.91428  0.27826  1.0000
  C   C147      1.0  0.33697  0.91227  0.26800  1.0000
  C   C148      1.0  0.31396  0.88833  0.28690  1.0000
  C   C149      1.0  0.31569  0.86619  0.31232  1.0000
  C   C150      1.0  0.34058  0.86822  0.32024  1.0000
  H   H139      1.0  0.29594  0.88685  0.27960  1.0000
  H   H140      1.0  0.34158  0.85189  0.33728  1.0000
  H   H141      1.0  0.37837  0.93177  0.26430  1.0000
  N   N31       1.0  0.38862  0.89365  0.31315  1.0000
  H   H142      1.0  0.40372  0.91163  0.29276  1.0000
  N   N32       1.0  0.29219  0.84270  0.33014  1.0000
  H   H143      1.0  0.29299  0.83702  0.39416  1.0000
  N   N33       1.0  0.33593  0.93422  0.23599  1.0000
  H   H144      1.0  0.32460  0.92923  0.17949  1.0000
  C   C151      1.0  0.88562  0.53261  0.30618  1.0000
  C   C152      1.0  0.90746  0.55662  0.27820  1.0000
  C   C153      1.0  0.90543  0.57939  0.26789  1.0000
  C   C154      1.0  0.88147  0.57843  0.28677  1.0000
  C   C155      1.0  0.85935  0.55457  0.31223  1.0000
  C   C156      1.0  0.86140  0.53172  0.32020  1.0000
  H   H145      1.0  0.87999  0.59498  0.27943  1.0000
  H   H146      1.0  0.84508  0.51438  0.33728  1.0000
  H   H147      1.0  0.92495  0.55752  0.26426  1.0000
  N   N34       1.0  0.88687  0.50914  0.31322  1.0000
  H   H148      1.0  0.90486  0.51204  0.29285  1.0000
  N   N35       1.0  0.83586  0.55456  0.33004  1.0000
  H   H149      1.0  0.83018  0.54809  0.39407  1.0000
  N   N36       1.0  0.92737  0.60238  0.23583  1.0000
  H   H150      1.0  0.92237  0.60872  0.17934  1.0000
  C   C157      1.0  0.48252  0.37083  0.30624  1.0000
  C   C158      1.0  0.45853  0.36872  0.27831  1.0000
  C   C159      1.0  0.43573  0.34395  0.26794  1.0000
  C   C160      1.0  0.43663  0.32092  0.28680  1.0000
  C   C161      1.0  0.46046  0.32259  0.31225  1.0000
  C   C162      1.0  0.48334  0.34746  0.32026  1.0000
  H   H151      1.0  0.42006  0.30290  0.27938  1.0000
  H   H152      1.0  0.50066  0.34843  0.33732  1.0000
  H   H153      1.0  0.45768  0.38534  0.26437  1.0000
  N   N37       1.0  0.50603  0.39552  0.31329  1.0000
  H   H154      1.0  0.50314  0.41064  0.29307  1.0000
  N   N38       1.0  0.46040  0.29907  0.33006  1.0000
  H   H155      1.0  0.46686  0.29985  0.39411  1.0000
  N   N39       1.0  0.41277  0.34296  0.23589  1.0000
  H   H156      1.0  0.40646  0.33169  0.17925  1.0000
  C   C163      1.0  0.64425  0.12949  0.30614  1.0000
  C   C164      1.0  0.64641  0.10764  0.27825  1.0000
  C   C165      1.0  0.67121  0.10966  0.26798  1.0000
  C   C166      1.0  0.69421  0.13361  0.28691  1.0000
  C   C167      1.0  0.69248  0.15574  0.31227  1.0000
  C   C168      1.0  0.66758  0.15371  0.32020  1.0000
  H   H157      1.0  0.71224  0.13509  0.27954  1.0000
  H   H158      1.0  0.66657  0.17004  0.33722  1.0000
  H   H159      1.0  0.62981  0.09015  0.26428  1.0000
  N   N40       1.0  0.61953  0.12826  0.31314  1.0000
  H   H160      1.0  0.60444  0.11026  0.29278  1.0000
  N   N41       1.0  0.71597  0.17924  0.33010  1.0000
  H   H161      1.0  0.71517  0.18492  0.39412  1.0000
  N   N42       1.0  0.67225  0.08772  0.23597  1.0000
  H   H162      1.0  0.68359  0.09271  0.17947  1.0000
  C   C169      1.0  0.47166  0.12757  0.39409  1.0000
  C   C170      1.0  0.44932  0.10250  0.37948  1.0000
  C   C171      1.0  0.42709  0.09962  0.33347  1.0000
  C   C172      1.0  0.42717  0.12224  0.30131  1.0000
  C   C173      1.0  0.44868  0.14740  0.31825  1.0000
  C   C174      1.0  0.47042  0.14994  0.36679  1.0000
  H   H163      1.0  0.41132  0.12040  0.26678  1.0000
  H   H164      1.0  0.48611  0.16831  0.37772  1.0000
  H   H165      1.0  0.44949  0.08600  0.40036  1.0000
  N   N43       1.0  0.49548  0.13057  0.43071  1.0000
  H   H166      1.0  0.49249  0.11238  0.44820  1.0000
  N   N44       1.0  0.44823  0.16961  0.28488  1.0000
  H   H167      1.0  0.46621  0.18220  0.25678  1.0000
  N   N45       1.0  0.40527  0.07410  0.32184  1.0000
  H   H168      1.0  0.38819  0.07463  0.31219  1.0000
  C   C175      1.0  0.65319  0.54344  0.39422  1.0000
  C   C176      1.0  0.65049  0.56579  0.37958  1.0000
  C   C177      1.0  0.66987  0.58803  0.33367  1.0000
  C   C178      1.0  0.69238  0.58792  0.30148  1.0000
  C   C179      1.0  0.69600  0.56639  0.31836  1.0000
  C   C180      1.0  0.67679  0.54466  0.36689  1.0000
  H   H169      1.0  0.70641  0.60377  0.26697  1.0000
  H   H170      1.0  0.67945  0.52895  0.37781  1.0000
  H   H171      1.0  0.63383  0.56565  0.40053  1.0000
  N   N46       1.0  0.63235  0.51962  0.43078  1.0000
  H   H172      1.0  0.61716  0.52263  0.44827  1.0000
  N   N47       1.0  0.71865  0.56681  0.28496  1.0000
  H   H173      1.0  0.71322  0.54882  0.25679  1.0000
  N   N48       1.0  0.66618  0.60986  0.32203  1.0000
  H   H174      1.0  0.68381  0.62694  0.31259  1.0000
  C   C181      1.0  0.88748  0.36193  0.39420  1.0000
  C   C182      1.0  0.91255  0.36468  0.37948  1.0000
  C   C183      1.0  0.91543  0.34532  0.33349  1.0000
  C   C184      1.0  0.89282  0.32278  0.30138  1.0000
  C   C185      1.0  0.86765  0.31913  0.31830  1.0000
  C   C186      1.0  0.86511  0.33832  0.36687  1.0000
  H   H175      1.0  0.89465  0.30878  0.26678  1.0000
  H   H176      1.0  0.84674  0.33564  0.37783  1.0000
  H   H177      1.0  0.92905  0.38134  0.40044  1.0000
  N   N49       1.0  0.88447  0.38275  0.43085  1.0000
  H   H178      1.0  0.90267  0.39795  0.44833  1.0000
  N   N50       1.0  0.84544  0.29647  0.28490  1.0000
  H   H179      1.0  0.83287  0.30189  0.25672  1.0000
  N   N51       1.0  0.94096  0.34904  0.32183  1.0000
  H   H180      1.0  0.94043  0.33142  0.31210  1.0000
  C   C187      1.0  0.53650  0.89434  0.39397  1.0000
  C   C188      1.0  0.55883  0.91941  0.37939  1.0000
  C   C189      1.0  0.58108  0.92231  0.33345  1.0000
  C   C190      1.0  0.58102  0.89970  0.30134  1.0000
  C   C191      1.0  0.55951  0.87453  0.31815  1.0000
  C   C192      1.0  0.53774  0.87198  0.36653  1.0000
  H   H181      1.0  0.59689  0.90155  0.26683  1.0000
  H   H182      1.0  0.52207  0.85360  0.37760  1.0000
  H   H183      1.0  0.55866  0.93591  0.40035  1.0000
  N   N52       1.0  0.51267  0.89132  0.43063  1.0000
  H   H184      1.0  0.51566  0.90951  0.44815  1.0000
  N   N53       1.0  0.55999  0.85233  0.28483  1.0000
  H   H185      1.0  0.54201  0.83973  0.25673  1.0000
  N   N54       1.0  0.60289  0.94784  0.32190  1.0000
  H   H186      1.0  0.61998  0.94732  0.31227  1.0000
  C   C193      1.0  0.35494  0.47845  0.39426  1.0000
  C   C194      1.0  0.35767  0.45612  0.37961  1.0000
  C   C195      1.0  0.33831  0.43388  0.33361  1.0000
  C   C196      1.0  0.31578  0.43396  0.30148  1.0000
  C   C197      1.0  0.31213  0.45547  0.31836  1.0000
  C   C198      1.0  0.33134  0.47722  0.36686  1.0000
  H   H187      1.0  0.30177  0.41812  0.26687  1.0000
  H   H188      1.0  0.32865  0.49291  0.37788  1.0000
  H   H189      1.0  0.37434  0.45628  0.40053  1.0000
  N   N55       1.0  0.37576  0.50228  0.43087  1.0000
  H   H190      1.0  0.39095  0.49928  0.44840  1.0000
  N   N56       1.0  0.28949  0.45504  0.28489  1.0000
  H   H191      1.0  0.29492  0.47301  0.25657  1.0000
  N   N57       1.0  0.34203  0.41207  0.32192  1.0000
  H   H192      1.0  0.32442  0.39498  0.31233  1.0000
  C   C199      1.0  0.12070  0.65998  0.39410  1.0000
  C   C200      1.0  0.09563  0.65724  0.37938  1.0000
  C   C201      1.0  0.09275  0.67658  0.33334  1.0000
  C   C202      1.0  0.11537  0.69913  0.30126  1.0000
  C   C203      1.0  0.14053  0.70279  0.31820  1.0000
  C   C204      1.0  0.14307  0.68358  0.36673  1.0000
  H   H193      1.0  0.11353  0.71313  0.26665  1.0000
  H   H194      1.0  0.16144  0.68628  0.37780  1.0000
  H   H195      1.0  0.07913  0.64057  0.40031  1.0000
  N   N58       1.0  0.12370  0.63916  0.43079  1.0000
  H   H196      1.0  0.10551  0.62396  0.44827  1.0000
  N   N59       1.0  0.16274  0.72545  0.28485  1.0000
  H   H197      1.0  0.17532  0.72005  0.25671  1.0000
  N   N60       1.0  0.06722  0.67287  0.32165  1.0000
  H   H198      1.0  0.06776  0.69047  0.31191  1.0000
  C   C205      1.0  0.24944  0.45613  0.32649  1.0000
  C   C206      1.0  0.24637  0.47368  0.38273  1.0000
  C   C207      1.0  0.22915  0.48279  0.36015  1.0000
  H   H199      1.0  0.22708  0.49506  0.40358  1.0000
  H   H200      1.0  0.25652  0.47988  0.44133  1.0000
  C   C208      1.0  0.24880  0.42105  0.63829  1.0000
  H   H201      1.0  0.23937  0.42823  0.59265  1.0000
  H   H202      1.0  0.25301  0.40745  0.60207  1.0000
  H   H203      1.0  0.26740  0.43768  0.66070  1.0000
  C   C209      1.0  0.19943  0.45085  0.60823  1.0000
  H   H204      1.0  0.19254  0.41170  0.63004  1.0000
  H   H205      1.0  0.22006  0.45970  0.58887  1.0000
  H   H206      1.0  0.19651  0.46563  0.64214  1.0000
  H   H207      1.0  0.18738  0.44472  0.54809  1.0000
  C   C210      1.0  0.26816  0.44712  0.35170  1.0000
  H   H208      1.0  0.25733  0.42566  0.35612  1.0000
  H   H209      1.0  0.27639  0.45453  0.41783  1.0000
  C   C211      1.0  0.55911  0.81132  0.32669  1.0000
  C   C212      1.0  0.54165  0.79072  0.38315  1.0000
  C   C213      1.0  0.53257  0.76439  0.36071  1.0000
  H   H210      1.0  0.52033  0.75005  0.40423  1.0000
  H   H211      1.0  0.53547  0.79468  0.44177  1.0000
  C   C214      1.0  0.59388  0.84556  0.63809  1.0000
  H   H212      1.0  0.58671  0.82892  0.59259  1.0000
  H   H213      1.0  0.60743  0.86336  0.60170  1.0000
  H   H214      1.0  0.57724  0.84750  0.66058  1.0000
  C   C215      1.0  0.56424  0.76640  0.60860  1.0000
  H   H215      1.0  0.60336  0.79874  0.63000  1.0000
  H   H216      1.0  0.55532  0.77812  0.58924  1.0000
  H   H217      1.0  0.54951  0.74869  0.64269  1.0000
  H   H218      1.0  0.57034  0.76046  0.54845  1.0000
  C   C216      1.0  0.56805  0.83905  0.35166  1.0000
  H   H219      1.0  0.58951  0.84975  0.35588  1.0000
  H   H220      1.0  0.56067  0.83989  0.41784  1.0000
  C   C217      1.0  0.20380  0.76556  0.32663  1.0000
  C   C218      1.0  0.22440  0.76867  0.38299  1.0000
  C   C219      1.0  0.25073  0.78592  0.36051  1.0000
  H   H221      1.0  0.26507  0.78801  0.40399  1.0000
  H   H222      1.0  0.22046  0.75852  0.44159  1.0000
  C   C220      1.0  0.16946  0.76615  0.63822  1.0000
  H   H223      1.0  0.18609  0.77560  0.59266  1.0000
  H   H224      1.0  0.15165  0.76191  0.60192  1.0000
  H   H225      1.0  0.16751  0.74756  0.66065  1.0000
  C   C221      1.0  0.24862  0.81563  0.60850  1.0000
  H   H226      1.0  0.21630  0.82243  0.63011  1.0000
  H   H227      1.0  0.23688  0.79499  0.58912  1.0000
  H   H228      1.0  0.26633  0.81858  0.64251  1.0000
  H   H229      1.0  0.25455  0.82767  0.54837  1.0000
  C   C222      1.0  0.17606  0.74678  0.35169  1.0000
  H   H230      1.0  0.16539  0.75757  0.35600  1.0000
  H   H231      1.0  0.17524  0.73856  0.41784  1.0000
  C   C223      1.0  0.75873  0.56581  0.32664  1.0000
  C   C224      1.0  0.76183  0.54829  0.38295  1.0000
  C   C225      1.0  0.77907  0.53920  0.36042  1.0000
  H   H232      1.0  0.78115  0.52695  0.40388  1.0000
  H   H233      1.0  0.75168  0.54209  0.44156  1.0000
  C   C226      1.0  0.75933  0.60078  0.63827  1.0000
  H   H234      1.0  0.76878  0.59361  0.59269  1.0000
  H   H235      1.0  0.75509  0.61435  0.60201  1.0000
  H   H236      1.0  0.74074  0.58414  0.66070  1.0000
  C   C227      1.0  0.80878  0.57107  0.60845  1.0000
  H   H237      1.0  0.81561  0.61020  0.63012  1.0000
  H   H238      1.0  0.78815  0.56219  0.58906  1.0000
  H   H239      1.0  0.81173  0.55631  0.64242  1.0000
  H   H240      1.0  0.82083  0.57720  0.54831  1.0000
  C   C228      1.0  0.73998  0.57479  0.35177  1.0000
  H   H241      1.0  0.75079  0.59625  0.35611  1.0000
  H   H242      1.0  0.73176  0.56739  0.41792  1.0000
  C   C229      1.0  0.44914  0.21065  0.32664  1.0000
  C   C230      1.0  0.46662  0.23126  0.38302  1.0000
  C   C231      1.0  0.47570  0.25759  0.36054  1.0000
  H   H243      1.0  0.48794  0.27193  0.40404  1.0000
  H   H244      1.0  0.47282  0.22731  0.44164  1.0000
  C   C232      1.0  0.41428  0.17634  0.63815  1.0000
  H   H245      1.0  0.42144  0.19297  0.59261  1.0000
  H   H246      1.0  0.40073  0.15853  0.60182  1.0000
  H   H247      1.0  0.43093  0.17440  0.66060  1.0000
  C   C233      1.0  0.44392  0.25550  0.60851  1.0000
  H   H248      1.0  0.40480  0.22315  0.63005  1.0000
  H   H249      1.0  0.45283  0.24377  0.58913  1.0000
  H   H250      1.0  0.45866  0.27320  0.64255  1.0000
  H   H251      1.0  0.43779  0.26142  0.54837  1.0000
  C   C234      1.0  0.44020  0.18292  0.35169  1.0000
  H   H252      1.0  0.41873  0.17223  0.35595  1.0000
  H   H253      1.0  0.44758  0.18210  0.41786  1.0000
  C   C235      1.0  0.80436  0.25637  0.32663  1.0000
  C   C236      1.0  0.78376  0.25327  0.38296  1.0000
  C   C237      1.0  0.75743  0.23602  0.36047  1.0000
  H   H254      1.0  0.74308  0.23393  0.40394  1.0000
  H   H255      1.0  0.78770  0.26342  0.44157  1.0000
  C   C238      1.0  0.83871  0.25577  0.63823  1.0000
  H   H256      1.0  0.82209  0.24632  0.59266  1.0000
  H   H257      1.0  0.85652  0.26001  0.60194  1.0000
  H   H258      1.0  0.84066  0.27437  0.66065  1.0000
  C   C239      1.0  0.75955  0.20631  0.60848  1.0000
  H   H259      1.0  0.79186  0.19949  0.63011  1.0000
  H   H260      1.0  0.77130  0.22694  0.58909  1.0000
  H   H261      1.0  0.74184  0.20336  0.64247  1.0000
  H   H262      1.0  0.75362  0.19426  0.54835  1.0000
  C   C240      1.0  0.83210  0.27514  0.35172  1.0000
  H   H263      1.0  0.84276  0.26434  0.35603  1.0000
  H   H264      1.0  0.83292  0.28335  0.41786  1.0000
  C   C241      1.0  0.12999  0.55231  0.39835  1.0000
  C   C242      1.0  0.12278  0.56292  0.47037  1.0000
  C   C243      1.0  0.12571  0.58836  0.46526  1.0000
  N   N61       1.0  0.12009  0.59750  0.54011  1.0000
  C   C244      1.0  0.11120  0.58447  0.61875  1.0000
  C   C245      1.0  0.10722  0.55844  0.62163  1.0000
  N   N62       1.0  0.11372  0.54958  0.54778  1.0000
  H   H265      1.0  0.09754  0.60975  0.65851  1.0000
  C   C246      1.0  0.12720  0.52565  0.40203  1.0000
  H   H266      1.0  0.14575  0.52830  0.42804  1.0000
  H   H267      1.0  0.11157  0.51279  0.44803  1.0000
  C   C247      1.0  0.46247  0.59557  0.39856  1.0000
  C   C248      1.0  0.45192  0.57771  0.47050  1.0000
  C   C249      1.0  0.42652  0.55514  0.46532  1.0000
  N   N63       1.0  0.41743  0.54035  0.54011  1.0000
  C   C250      1.0  0.43046  0.54450  0.61876  1.0000
  C   C251      1.0  0.45645  0.56662  0.62171  1.0000
  N   N64       1.0  0.46526  0.58201  0.54791  1.0000
  H   H268      1.0  0.40537  0.50552  0.65838  1.0000
  C   C252      1.0  0.48909  0.61950  0.40221  1.0000
  H   H269      1.0  0.48635  0.63538  0.42772  1.0000
  H   H270      1.0  0.50196  0.61686  0.44856  1.0000
  C   C253      1.0  0.41949  0.88496  0.39830  1.0000
  C   C254      1.0  0.43732  0.89218  0.47029  1.0000
  C   C255      1.0  0.45985  0.88928  0.46514  1.0000
  N   N65       1.0  0.47462  0.89492  0.53997  1.0000
  C   C256      1.0  0.47048  0.90381  0.61862  1.0000
  C   C257      1.0  0.44841  0.90776  0.62153  1.0000
  N   N66       1.0  0.43305  0.90124  0.54770  1.0000
  H   H271      1.0  0.50943  0.91751  0.65832  1.0000
  C   C258      1.0  0.39560  0.88772  0.40201  1.0000
  H   H272      1.0  0.37973  0.86917  0.42798  1.0000
  H   H273      1.0  0.39836  0.90335  0.44804  1.0000
  C   C259      1.0  0.87817  0.46959  0.39842  1.0000
  C   C260      1.0  0.88538  0.45898  0.47044  1.0000
  C   C261      1.0  0.88245  0.43354  0.46532  1.0000
  N   N67       1.0  0.88807  0.42440  0.54017  1.0000
  C   C262      1.0  0.89696  0.43743  0.61881  1.0000
  C   C263      1.0  0.90094  0.46346  0.62170  1.0000
  N   N68       1.0  0.89443  0.47231  0.54785  1.0000
  H   H274      1.0  0.91063  0.41216  0.65856  1.0000
  C   C264      1.0  0.88095  0.49625  0.40211  1.0000
  H   H275      1.0  0.86241  0.49359  0.42811  1.0000
  H   H276      1.0  0.89658  0.50911  0.44811  1.0000
  C   C265      1.0  0.54558  0.42638  0.39842  1.0000
  C   C266      1.0  0.55616  0.44422  0.47039  1.0000
  C   C267      1.0  0.58156  0.46678  0.46521  1.0000
  N   N69       1.0  0.59068  0.48157  0.54001  1.0000
  C   C268      1.0  0.57765  0.47742  0.61866  1.0000
  C   C269      1.0  0.55165  0.45531  0.62161  1.0000
  N   N70       1.0  0.54282  0.43993  0.54780  1.0000
  H   H277      1.0  0.60278  0.51639  0.65830  1.0000
  C   C270      1.0  0.51895  0.40245  0.40211  1.0000
  H   H278      1.0  0.52168  0.38658  0.42779  1.0000
  H   H279      1.0  0.50609  0.40514  0.44834  1.0000
  C   C271      1.0  0.58867  0.13694  0.39831  1.0000
  C   C272      1.0  0.57083  0.12971  0.47031  1.0000
  C   C273      1.0  0.54831  0.13261  0.46517  1.0000
  N   N71       1.0  0.53354  0.12697  0.54000  1.0000
  C   C274      1.0  0.53768  0.11808  0.61865  1.0000
  C   C275      1.0  0.55975  0.11414  0.62155  1.0000
  N   N72       1.0  0.57512  0.12065  0.54772  1.0000
  H   H280      1.0  0.49873  0.10437  0.65836  1.0000
  C   C276      1.0  0.61256  0.13418  0.40200  1.0000
  H   H281      1.0  0.62843  0.15274  0.42796  1.0000
  H   H282      1.0  0.60981  0.11857  0.44805  1.0000
  C   C277      1.0  0.03793  0.38839  0.28779  1.0000
  C   C278      1.0  0.02396  0.39371  0.35325  1.0000
  C   C279      1.0  0.99774  0.38714  0.33915  1.0000
  H   H283      1.0  0.98831  0.39148  0.38785  1.0000
  H   H284      1.0  0.03296  0.40306  0.41104  1.0000
  C   C280      1.0  0.04422  0.35881  0.66066  1.0000
  C   C281      1.0  0.05478  0.38069  0.58935  1.0000
  H   H285      1.0  0.03390  0.33948  0.62905  1.0000
  H   H286      1.0  0.03875  0.37988  0.55037  1.0000
  H   H287      1.0  0.06799  0.37825  0.54436  1.0000
  H   H288      1.0  0.06572  0.40005  0.62064  1.0000
  C   C282      1.0  0.98486  0.34352  0.62868  1.0000
  C   C283      1.0  0.97685  0.36202  0.58264  1.0000
  H   H289      1.0  0.96706  0.32512  0.64570  1.0000
  H   H290      1.0  0.99567  0.33866  0.58060  1.0000
  H   H291      1.0  0.99426  0.38074  0.56586  1.0000
  H   H292      1.0  0.96414  0.36579  0.62581  1.0000
  H   H293      1.0  0.96611  0.35291  0.52149  1.0000
  C   C284      1.0  0.06637  0.39773  0.30019  1.0000
  H   H294      1.0  0.07027  0.38161  0.28809  1.0000
  H   H295      1.0  0.07241  0.40429  0.36873  1.0000
  C   C285      1.0  0.62667  0.66736  0.28762  1.0000
  C   C286      1.0  0.62142  0.64810  0.35311  1.0000
  C   C287      1.0  0.62808  0.62851  0.33906  1.0000
  H   H296      1.0  0.62377  0.61476  0.38776  1.0000
  H   H297      1.0  0.61202  0.64770  0.41085  1.0000
  C   C288      1.0  0.65620  0.70325  0.66044  1.0000
  C   C289      1.0  0.63433  0.69184  0.58910  1.0000
  H   H298      1.0  0.67553  0.71230  0.62887  1.0000
  H   H299      1.0  0.63521  0.67665  0.55019  1.0000
  H   H300      1.0  0.63672  0.70748  0.54406  1.0000
  H   H301      1.0  0.61496  0.68338  0.62036  1.0000
  C   C290      1.0  0.67171  0.65933  0.62863  1.0000
  C   C291      1.0  0.65327  0.63279  0.58264  1.0000
  H   H302      1.0  0.69014  0.66000  0.64569  1.0000
  H   H303      1.0  0.67651  0.67498  0.58052  1.0000
  H   H304      1.0  0.63452  0.63140  0.56584  1.0000
  H   H305      1.0  0.64956  0.61633  0.62586  1.0000
  H   H306      1.0  0.66241  0.63119  0.52151  1.0000
  C   C292      1.0  0.61718  0.68634  0.29990  1.0000
  H   H307      1.0  0.63320  0.70639  0.28752  1.0000
  H   H308      1.0  0.61067  0.68585  0.36851  1.0000
  C   C293      1.0  0.34767  0.97712  0.28775  1.0000
  C   C294      1.0  0.36695  0.99110  0.35321  1.0000
  C   C295      1.0  0.38659  0.01733  0.33912  1.0000
  H   H309      1.0  0.40035  0.02675  0.38781  1.0000
  H   H310      1.0  0.36731  0.98210  0.41100  1.0000
  C   C296      1.0  0.31179  0.97081  0.66060  1.0000
  C   C297      1.0  0.32313  0.96027  0.58929  1.0000
  H   H311      1.0  0.30278  0.98112  0.62900  1.0000
  H   H312      1.0  0.33834  0.97630  0.55033  1.0000
  H   H313      1.0  0.30747  0.94705  0.54429  1.0000
  H   H314      1.0  0.33155  0.94933  0.62058  1.0000
  C   C298      1.0  0.35583  0.03018  0.62865  1.0000
  C   C299      1.0  0.38235  0.03821  0.58262  1.0000
  H   H315      1.0  0.35522  0.04797  0.64567  1.0000
  H   H316      1.0  0.34016  0.01936  0.58057  1.0000
  H   H317      1.0  0.38367  0.02081  0.56584  1.0000
  H   H318      1.0  0.39882  0.05093  0.62580  1.0000
  H   H319      1.0  0.38397  0.04895  0.52147  1.0000
  C   C300      1.0  0.32858  0.94867  0.30015  1.0000
  H   H320      1.0  0.30855  0.94476  0.28799  1.0000
  H   H321      1.0  0.32909  0.94264  0.36873  1.0000
  C   C301      1.0  0.97027  0.63352  0.28758  1.0000
  C   C302      1.0  0.98424  0.62821  0.35304  1.0000
  C   C303      1.0  0.01045  0.63477  0.33894  1.0000
  H   H322      1.0  0.01987  0.63042  0.38764  1.0000
  H   H323      1.0  0.97523  0.61885  0.41083  1.0000
  C   C304      1.0  0.96400  0.66313  0.66044  1.0000
  C   C305      1.0  0.95344  0.64126  0.58909  1.0000
  H   H324      1.0  0.97433  0.68246  0.62887  1.0000
  H   H325      1.0  0.96947  0.64206  0.55011  1.0000
  H   H326      1.0  0.94023  0.64372  0.54410  1.0000
  H   H327      1.0  0.94248  0.62190  0.62035  1.0000
  C   C306      1.0  0.02335  0.67839  0.62847  1.0000
  C   C307      1.0  0.03135  0.65988  0.58243  1.0000
  H   H328      1.0  0.04116  0.69679  0.64551  1.0000
  H   H329      1.0  0.01254  0.68326  0.58040  1.0000
  H   H330      1.0  0.01393  0.64117  0.56563  1.0000
  H   H331      1.0  0.04405  0.65610  0.62560  1.0000
  H   H332      1.0  0.04209  0.66900  0.52129  1.0000
  C   C308      1.0  0.94182  0.62419  0.29997  1.0000
  H   H333      1.0  0.93793  0.64031  0.28776  1.0000
  H   H334      1.0  0.93580  0.61767  0.36855  1.0000
  C   C309      1.0  0.38151  0.35456  0.28759  1.0000
  C   C310      1.0  0.38678  0.37383  0.35307  1.0000
  C   C311      1.0  0.38016  0.39345  0.33902  1.0000
  H   H335      1.0  0.38448  0.40720  0.38773  1.0000
  H   H336      1.0  0.39616  0.37421  0.41084  1.0000
  C   C312      1.0  0.35194  0.31869  0.66042  1.0000
  C   C313      1.0  0.37382  0.33005  0.58908  1.0000
  H   H337      1.0  0.33261  0.30965  0.62885  1.0000
  H   H338      1.0  0.37297  0.34526  0.55014  1.0000
  H   H339      1.0  0.37139  0.31440  0.54405  1.0000
  H   H340      1.0  0.39318  0.33849  0.62033  1.0000
  C   C314      1.0  0.33654  0.36268  0.62856  1.0000
  C   C315      1.0  0.35501  0.38921  0.58256  1.0000
  H   H341      1.0  0.31812  0.36204  0.64561  1.0000
  H   H342      1.0  0.33171  0.34702  0.58046  1.0000
  H   H343      1.0  0.37374  0.39056  0.56574  1.0000
  H   H344      1.0  0.35874  0.40567  0.62576  1.0000
  H   H345      1.0  0.34588  0.39082  0.52142  1.0000
  C   C316      1.0  0.39092  0.33552  0.29993  1.0000
  H   H346      1.0  0.37485  0.31548  0.28762  1.0000
  H   H347      1.0  0.39743  0.33601  0.36853  1.0000
  C   C317      1.0  0.66052  0.04482  0.28775  1.0000
  C   C318      1.0  0.64124  0.03085  0.35322  1.0000
  C   C319      1.0  0.62160  0.00462  0.33916  1.0000
  H   H348      1.0  0.60784  0.99520  0.38785  1.0000
  H   H349      1.0  0.64089  0.03985  0.41101  1.0000
  C   C320      1.0  0.69638  0.05110  0.66059  1.0000
  C   C321      1.0  0.68504  0.06164  0.58926  1.0000
  H   H350      1.0  0.70539  0.04078  0.62901  1.0000
  H   H351      1.0  0.66983  0.04560  0.55031  1.0000
  H   H352      1.0  0.70070  0.07485  0.54424  1.0000
  H   H353      1.0  0.67663  0.07259  0.62054  1.0000
  C   C322      1.0  0.65233  0.99173  0.62869  1.0000
  C   C323      1.0  0.62581  0.98371  0.58268  1.0000
  H   H354      1.0  0.65294  0.97394  0.64573  1.0000
  H   H355      1.0  0.66800  0.00255  0.58059  1.0000
  H   H356      1.0  0.62449  0.00111  0.56588  1.0000
  H   H357      1.0  0.60934  0.97099  0.62587  1.0000
  H   H358      1.0  0.62419  0.97296  0.52153  1.0000
  C   C324      1.0  0.67961  0.07327  0.30013  1.0000
  H   H359      1.0  0.69964  0.07718  0.28794  1.0000
  H   H360      1.0  0.67911  0.07930  0.36870  1.0000
