data_image0
_chemical_formula_structural       C3H2NCHNCHC3NH2C2NCNO2C2NCNO2C3H2NCHNCHC3NH2C2NCNO2C2NCNO2C4H2C3HC3HNCHNCHC5NH2C3NH2C2NCNO2C2NCOC4H2C3HC3HNCHNCHC5NH2C3NH2C2NCNO2C2NCOHC2H4N2CHNHCNH2C3NH2CNCNO2NOCNCNO2HC2H4N2CHNHCNH2C3NH2CNCNO2NOCNCNO2C5H2C3HC5H2C3HC5HC3H3C3HC3H3C3HC3H3NCHNCHNCHNCHNCHNCHC3NC3NH4C3NC3NH4C3NC3NH4C2NCNO2C2NCNO2C2NCNO2C2NCNO2C2NCNO2C2NCNO2C3HC3H3C3HC3H3C3HC3H3NCHNCHNCHNCHNCHNCHC3NC3NH4C3NC3NH4C3NC3NH4C2NCNO2C2NCNO2C2NCNO2C2NCNO2C2NCNO2C2NCNO2
_chemical_formula_sum              "C240 H120 N96 O48"
_cell_length_a       46.1881
_cell_length_b       46.188
_cell_length_c       14.7441
_cell_angle_alpha    90
_cell_angle_beta     90
_cell_angle_gamma    120

_space_group_name_H-M_alt    "P 1"
_space_group_IT_number       1

loop_
  _space_group_symop_operation_xyz
  'x, y, z'

loop_
  _atom_site_type_symbol
  _atom_site_label
  _atom_site_symmetry_multiplicity
  _atom_site_fract_x
  _atom_site_fract_y
  _atom_site_fract_z
  _atom_site_occupancy
  C   C1        1.0  0.03049  0.26774  0.35961  1.0000
  C   C2        1.0  0.08437  0.32050  0.32742  1.0000
  C   C3        1.0  0.05025  0.30336  0.35358  1.0000
  H   H1        1.0  0.04007  0.31789  0.36887  1.0000
  H   H2        1.0  0.13572  0.33711  0.22711  1.0000
  N   N1        1.0  0.14995  0.24702  0.29322  1.0000
  C   C4        1.0  0.12013  0.24489  0.27368  1.0000
  H   H3        1.0  0.11451  0.24617  0.20729  1.0000
  N   N2        1.0  0.11592  0.37821  0.28135  1.0000
  C   C5        1.0  0.14429  0.40893  0.28394  1.0000
  H   H4        1.0  0.15145  0.42319  0.22643  1.0000
  C   C6        1.0  0.05001  0.25150  0.35958  1.0000
  C   C7        1.0  0.08377  0.26689  0.33049  1.0000
  C   C8        1.0  0.09978  0.30127  0.30481  1.0000
  N   N3        1.0  0.12989  0.31701  0.26132  1.0000
  H   H5        1.0  0.14130  0.30549  0.24198  1.0000
  H   H6        1.0  0.03949  0.22711  0.37866  1.0000
  C   C9        1.0  0.16234  0.24903  0.37837  1.0000
  C   C10       1.0  0.10245  0.25032  0.34376  1.0000
  N   N4        1.0  0.11454  0.25201  0.42912  1.0000
  C   C11       1.0  0.14220  0.24974  0.45023  1.0000
  N   N5        1.0  0.15384  0.25391  0.54035  1.0000
  O   O1        1.0  0.15871  0.28111  0.57290  1.0000
  O   O2        1.0  0.13253  0.23071  0.58884  1.0000
  C   C12       1.0  0.10528  0.35502  0.34938  1.0000
  C   C13       1.0  0.16690  0.41681  0.35693  1.0000
  N   N6        1.0  0.15685  0.39293  0.42251  1.0000
  C   C14       1.0  0.12715  0.36362  0.42498  1.0000
  N   N7        1.0  0.12047  0.34084  0.49662  1.0000
  O   O3        1.0  0.14307  0.33337  0.50220  1.0000
  O   O4        1.0  0.11960  0.35384  0.57059  1.0000
  C   C15       1.0  0.03049  0.76774  0.35961  1.0000
  C   C16       1.0  0.08437  0.82050  0.32742  1.0000
  C   C17       1.0  0.05024  0.80336  0.35358  1.0000
  H   H7        1.0  0.04007  0.81789  0.36887  1.0000
  H   H8        1.0  0.13572  0.83711  0.22711  1.0000
  N   N8        1.0  0.14995  0.74702  0.29322  1.0000
  C   C18       1.0  0.12013  0.74489  0.27368  1.0000
  H   H9        1.0  0.11451  0.74617  0.20729  1.0000
  N   N9        1.0  0.11592  0.87821  0.28136  1.0000
  C   C19       1.0  0.14429  0.90893  0.28394  1.0000
  H   H10       1.0  0.15145  0.92319  0.22643  1.0000
  C   C20       1.0  0.05001  0.75150  0.35958  1.0000
  C   C21       1.0  0.08377  0.76689  0.33049  1.0000
  C   C22       1.0  0.09978  0.80127  0.30481  1.0000
  N   N10       1.0  0.12989  0.81701  0.26132  1.0000
  H   H11       1.0  0.14130  0.80549  0.24198  1.0000
  H   H12       1.0  0.03949  0.72711  0.37866  1.0000
  C   C23       1.0  0.16234  0.74903  0.37837  1.0000
  C   C24       1.0  0.10245  0.75032  0.34376  1.0000
  N   N11       1.0  0.11454  0.75202  0.42912  1.0000
  C   C25       1.0  0.14220  0.74974  0.45023  1.0000
  N   N12       1.0  0.15384  0.75391  0.54035  1.0000
  O   O5        1.0  0.15871  0.78111  0.57290  1.0000
  O   O6        1.0  0.13253  0.73071  0.58884  1.0000
  C   C26       1.0  0.10528  0.85502  0.34938  1.0000
  C   C27       1.0  0.16690  0.91681  0.35693  1.0000
  N   N13       1.0  0.15686  0.89293  0.42251  1.0000
  C   C28       1.0  0.12715  0.86362  0.42498  1.0000
  N   N14       1.0  0.12047  0.84084  0.49662  1.0000
  O   O7        1.0  0.14307  0.83337  0.50220  1.0000
  O   O8        1.0  0.11960  0.85384  0.57059  1.0000
  C   C29       1.0  0.27153  0.25111  0.36323  1.0000
  C   C30       1.0  0.25258  0.26826  0.37347  1.0000
  C   C31       1.0  0.19789  0.26777  0.38365  1.0000
  C   C32       1.0  0.21683  0.25150  0.37226  1.0000
  H   H13       1.0  0.20336  0.22629  0.36315  1.0000
  H   H14       1.0  0.17372  0.30907  0.38304  1.0000
  C   C33       1.0  0.27328  0.02796  0.36088  1.0000
  C   C34       1.0  0.25729  0.04760  0.35554  1.0000
  C   C35       1.0  0.27435  0.08190  0.33121  1.0000
  H   H15       1.0  0.23253  0.03721  0.37070  1.0000
  C   C36       1.0  0.25513  0.49174  0.36481  1.0000
  C   C37       1.0  0.25609  0.43805  0.35309  1.0000
  C   C38       1.0  0.27168  0.47266  0.37202  1.0000
  H   H16       1.0  0.21917  0.37944  0.27371  1.0000
  N   N15       1.0  0.27879  0.40409  0.30601  1.0000
  C   C39       1.0  0.27979  0.37521  0.31376  1.0000
  H   H17       1.0  0.28134  0.36408  0.25545  1.0000
  N   N16       1.0  0.24673  0.11143  0.28233  1.0000
  C   C40       1.0  0.24429  0.13974  0.28018  1.0000
  H   H18       1.0  0.23619  0.14538  0.22192  1.0000
  C   C41       1.0  0.27418  0.19910  0.33207  1.0000
  C   C42       1.0  0.25619  0.21559  0.35405  1.0000
  C   C43       1.0  0.26826  0.30382  0.38012  1.0000
  C   C44       1.0  0.25087  0.32151  0.39352  1.0000
  C   C45       1.0  0.21509  0.30335  0.39355  1.0000
  N   N17       1.0  0.19738  0.31993  0.39451  1.0000
  H   H19       1.0  0.20768  0.34372  0.39994  1.0000
  H   H20       1.0  0.23129  0.20058  0.36598  1.0000
  C   C46       1.0  0.21947  0.47197  0.35739  1.0000
  C   C47       1.0  0.20217  0.43677  0.34529  1.0000
  C   C48       1.0  0.22137  0.42070  0.33206  1.0000
  N   N18       1.0  0.20647  0.38939  0.29539  1.0000
  H   H21       1.0  0.18437  0.37967  0.26981  1.0000
  H   H22       1.0  0.20509  0.48294  0.36100  1.0000
  C   C49       1.0  0.27234  0.41972  0.37513  1.0000
  C   C50       1.0  0.26907  0.35705  0.39590  1.0000
  N   N19       1.0  0.26294  0.37272  0.46519  1.0000
  C   C51       1.0  0.26558  0.40345  0.46059  1.0000
  N   N20       1.0  0.25557  0.41548  0.53522  1.0000
  O   O9        1.0  0.22583  0.39513  0.55672  1.0000
  O   O10       1.0  0.27383  0.41920  0.60235  1.0000
  C   C52       1.0  0.26052  0.10269  0.35156  1.0000
  C   C53       1.0  0.26034  0.16428  0.34829  1.0000
  N   N21       1.0  0.27540  0.15607  0.41479  1.0000
  C   C54       1.0  0.27509  0.12652  0.42247  1.0000
  O   O11       1.0  0.27982  0.12268  0.56891  1.0000
  C   C55       1.0  0.27153  0.75111  0.36323  1.0000
  C   C56       1.0  0.25258  0.76826  0.37347  1.0000
  C   C57       1.0  0.19789  0.76777  0.38365  1.0000
  C   C58       1.0  0.21683  0.75150  0.37226  1.0000
  H   H23       1.0  0.20336  0.72629  0.36315  1.0000
  H   H24       1.0  0.17372  0.80907  0.38304  1.0000
  C   C59       1.0  0.27328  0.52796  0.36088  1.0000
  C   C60       1.0  0.25729  0.54761  0.35554  1.0000
  C   C61       1.0  0.27435  0.58190  0.33121  1.0000
  H   H25       1.0  0.23253  0.53721  0.37070  1.0000
  C   C62       1.0  0.25512  0.99174  0.36481  1.0000
  C   C63       1.0  0.25609  0.93805  0.35309  1.0000
  C   C64       1.0  0.27168  0.97266  0.37202  1.0000
  H   H26       1.0  0.21917  0.87944  0.27371  1.0000
  N   N22       1.0  0.27879  0.90409  0.30601  1.0000
  C   C65       1.0  0.27979  0.87521  0.31376  1.0000
  H   H27       1.0  0.28134  0.86408  0.25545  1.0000
  N   N23       1.0  0.24673  0.61143  0.28232  1.0000
  C   C66       1.0  0.24429  0.63974  0.28018  1.0000
  H   H28       1.0  0.23618  0.64538  0.22192  1.0000
  C   C67       1.0  0.27418  0.69910  0.33207  1.0000
  C   C68       1.0  0.25619  0.71559  0.35405  1.0000
  C   C69       1.0  0.26826  0.80382  0.38012  1.0000
  C   C70       1.0  0.25086  0.82151  0.39352  1.0000
  C   C71       1.0  0.21509  0.80335  0.39355  1.0000
  N   N24       1.0  0.19738  0.81993  0.39451  1.0000
  H   H29       1.0  0.20768  0.84372  0.39993  1.0000
  H   H30       1.0  0.23129  0.70058  0.36598  1.0000
  C   C72       1.0  0.21947  0.97196  0.35739  1.0000
  C   C73       1.0  0.20217  0.93677  0.34529  1.0000
  C   C74       1.0  0.22137  0.92070  0.33206  1.0000
  N   N25       1.0  0.20647  0.88939  0.29538  1.0000
  H   H31       1.0  0.18437  0.87967  0.26981  1.0000
  H   H32       1.0  0.20509  0.98294  0.36100  1.0000
  C   C75       1.0  0.27234  0.91972  0.37513  1.0000
  C   C76       1.0  0.26907  0.85705  0.39590  1.0000
  N   N26       1.0  0.26294  0.87272  0.46519  1.0000
  C   C77       1.0  0.26558  0.90345  0.46059  1.0000
  N   N27       1.0  0.25557  0.91549  0.53522  1.0000
  O   O12       1.0  0.22583  0.89513  0.55672  1.0000
  O   O13       1.0  0.27383  0.91920  0.60235  1.0000
  C   C78       1.0  0.26052  0.60269  0.35156  1.0000
  C   C79       1.0  0.26034  0.66428  0.34829  1.0000
  N   N28       1.0  0.27540  0.65607  0.41479  1.0000
  C   C80       1.0  0.27509  0.62652  0.42247  1.0000
  O   O14       1.0  0.27982  0.62268  0.56891  1.0000
  H   H33       1.0  0.37464  0.17153  0.37080  1.0000
  C   C81       1.0  0.30732  0.26792  0.36708  1.0000
  C   C82       1.0  0.32656  0.25315  0.34087  1.0000
  H   H34       1.0  0.32061  0.29206  0.38869  1.0000
  H   H35       1.0  0.34715  0.21824  0.24614  1.0000
  H   H36       1.0  0.29633  0.48387  0.38877  1.0000
  H   H37       1.0  0.30940  0.13482  0.23524  1.0000
  N   N29       1.0  0.38389  0.27622  0.29542  1.0000
  N   N30       1.0  0.41302  0.14665  0.29195  1.0000
  C   C83       1.0  0.38543  0.11659  0.27409  1.0000
  H   H38       1.0  0.37875  0.11022  0.20786  1.0000
  N   N31       1.0  0.38731  0.19544  0.37640  1.0000
  H   H39       1.0  0.37418  0.20605  0.36742  1.0000
  C   C84       1.0  0.30907  0.21891  0.31440  1.0000
  N   N32       1.0  0.32477  0.20480  0.26948  1.0000
  H   H40       1.0  0.31162  0.18375  0.23844  1.0000
  H   H41       1.0  0.29359  0.31815  0.37578  1.0000
  C   C85       1.0  0.30888  0.09730  0.30759  1.0000
  C   C86       1.0  0.32720  0.08101  0.33034  1.0000
  C   C87       1.0  0.30902  0.04726  0.35896  1.0000
  N   N33       1.0  0.32334  0.12732  0.26371  1.0000
  H   H42       1.0  0.34573  0.13774  0.23999  1.0000
  H   H43       1.0  0.32305  0.03645  0.37287  1.0000
  C   C88       1.0  0.36111  0.26833  0.36357  1.0000
  N   N34       1.0  0.39886  0.25861  0.45239  1.0000
  C   C89       1.0  0.37018  0.26029  0.44803  1.0000
  N   N35       1.0  0.34747  0.24813  0.52123  1.0000
  O   O15       1.0  0.33866  0.21814  0.53764  1.0000
  O   O16       1.0  0.36105  0.26492  0.59129  1.0000
  N   N36       1.0  0.29239  0.12165  0.49436  1.0000
  O   O17       1.0  0.32248  0.14431  0.49476  1.0000
  C   C90       1.0  0.36230  0.09973  0.34471  1.0000
  N   N37       1.0  0.37227  0.11301  0.42917  1.0000
  C   C91       1.0  0.40204  0.14096  0.44911  1.0000
  N   N38       1.0  0.40936  0.15382  0.53812  1.0000
  O   O18       1.0  0.38733  0.15974  0.56741  1.0000
  O   O19       1.0  0.41057  0.13297  0.59019  1.0000
  H   H44       1.0  0.37464  0.67153  0.37080  1.0000
  C   C92       1.0  0.30732  0.76793  0.36708  1.0000
  C   C93       1.0  0.32656  0.75315  0.34087  1.0000
  H   H45       1.0  0.32061  0.79206  0.38869  1.0000
  H   H46       1.0  0.34715  0.71824  0.24614  1.0000
  H   H47       1.0  0.29633  0.98387  0.38877  1.0000
  H   H48       1.0  0.30940  0.63482  0.23524  1.0000
  N   N39       1.0  0.38389  0.77622  0.29542  1.0000
  N   N40       1.0  0.41302  0.64665  0.29195  1.0000
  C   C94       1.0  0.38543  0.61659  0.27409  1.0000
  H   H49       1.0  0.37875  0.61022  0.20786  1.0000
  N   N41       1.0  0.38731  0.69544  0.37640  1.0000
  H   H50       1.0  0.37418  0.70605  0.36742  1.0000
  C   C95       1.0  0.30907  0.71891  0.31440  1.0000
  N   N42       1.0  0.32476  0.70480  0.26948  1.0000
  H   H51       1.0  0.31162  0.68375  0.23844  1.0000
  H   H52       1.0  0.29359  0.81815  0.37578  1.0000
  C   C96       1.0  0.30888  0.59730  0.30759  1.0000
  C   C97       1.0  0.32720  0.58101  0.33034  1.0000
  C   C98       1.0  0.30901  0.54726  0.35896  1.0000
  N   N43       1.0  0.32334  0.62732  0.26371  1.0000
  H   H53       1.0  0.34573  0.63774  0.23999  1.0000
  H   H54       1.0  0.32305  0.53645  0.37287  1.0000
  C   C99       1.0  0.36111  0.76834  0.36357  1.0000
  N   N44       1.0  0.39885  0.75861  0.45239  1.0000
  C   C100      1.0  0.37018  0.76029  0.44803  1.0000
  N   N45       1.0  0.34747  0.74813  0.52123  1.0000
  O   O20       1.0  0.33866  0.71814  0.53764  1.0000
  O   O21       1.0  0.36105  0.76492  0.59129  1.0000
  N   N46       1.0  0.29239  0.62165  0.49436  1.0000
  O   O22       1.0  0.32248  0.64431  0.49476  1.0000
  C   C101      1.0  0.36230  0.59973  0.34471  1.0000
  N   N47       1.0  0.37227  0.61301  0.42917  1.0000
  C   C102      1.0  0.40204  0.64096  0.44911  1.0000
  N   N48       1.0  0.40936  0.65382  0.53812  1.0000
  O   O23       1.0  0.38733  0.65974  0.56741  1.0000
  O   O24       1.0  0.41057  0.63297  0.59019  1.0000
  C   C103      1.0  0.41409  0.27784  0.30333  1.0000
  C   C104      1.0  0.41409  0.77784  0.30333  1.0000
  C   C105      1.0  0.49433  0.24982  0.36924  1.0000
  C   C106      1.0  0.47508  0.21412  0.37042  1.0000
  C   C107      1.0  0.43984  0.19556  0.37887  1.0000
  H   H55       1.0  0.48656  0.20030  0.36376  1.0000
  H   H56       1.0  0.42752  0.28074  0.24556  1.0000
  C   C108      1.0  0.42154  0.21297  0.38158  1.0000
  C   C109      1.0  0.43932  0.24874  0.38119  1.0000
  C   C110      1.0  0.47470  0.26592  0.37213  1.0000
  H   H57       1.0  0.48614  0.29132  0.36939  1.0000
  C   C111      1.0  0.42167  0.26672  0.38448  1.0000
  C   C112      1.0  0.42309  0.16003  0.37635  1.0000
  C   C113      1.0  0.49433  0.74982  0.36924  1.0000
  C   C114      1.0  0.47508  0.71412  0.37042  1.0000
  C   C115      1.0  0.43984  0.69556  0.37887  1.0000
  H   H58       1.0  0.48656  0.70030  0.36376  1.0000
  H   H59       1.0  0.42753  0.78073  0.24556  1.0000
  C   C116      1.0  0.42154  0.71297  0.38158  1.0000
  C   C117      1.0  0.43932  0.74874  0.38119  1.0000
  C   C118      1.0  0.47470  0.76592  0.37213  1.0000
  H   H60       1.0  0.48614  0.79132  0.36939  1.0000
  C   C119      1.0  0.42167  0.76672  0.38448  1.0000
  C   C120      1.0  0.42309  0.66003  0.37635  1.0000
  C   C121      1.0  0.99433  0.24982  0.36924  1.0000
  C   C122      1.0  0.97508  0.21412  0.37042  1.0000
  C   C123      1.0  0.93984  0.19556  0.37887  1.0000
  H   H61       1.0  0.98655  0.20030  0.36376  1.0000
  C   C124      1.0  0.53048  0.26774  0.35961  1.0000
  C   C125      1.0  0.58437  0.32050  0.32742  1.0000
  C   C126      1.0  0.55024  0.30336  0.35358  1.0000
  H   H62       1.0  0.54007  0.31789  0.36887  1.0000
  H   H63       1.0  0.63572  0.33711  0.22711  1.0000
  H   H64       1.0  0.87464  0.17153  0.37080  1.0000
  C   C127      1.0  0.77153  0.25111  0.36323  1.0000
  C   C128      1.0  0.80732  0.26792  0.36708  1.0000
  C   C129      1.0  0.82656  0.25315  0.34087  1.0000
  H   H65       1.0  0.82061  0.29206  0.38869  1.0000
  C   C130      1.0  0.75258  0.26826  0.37347  1.0000
  C   C131      1.0  0.69789  0.26777  0.38365  1.0000
  C   C132      1.0  0.71683  0.25150  0.37226  1.0000
  H   H66       1.0  0.70337  0.22629  0.36315  1.0000
  H   H67       1.0  0.67372  0.30907  0.38304  1.0000
  H   H68       1.0  0.84715  0.21824  0.24614  1.0000
  C   C133      1.0  0.77328  0.02796  0.36088  1.0000
  C   C134      1.0  0.75728  0.04760  0.35554  1.0000
  C   C135      1.0  0.77435  0.08190  0.33121  1.0000
  H   H69       1.0  0.73253  0.03721  0.37070  1.0000
  C   C136      1.0  0.75513  0.49174  0.36481  1.0000
  C   C137      1.0  0.75609  0.43805  0.35309  1.0000
  C   C138      1.0  0.77168  0.47266  0.37202  1.0000
  H   H70       1.0  0.79633  0.48387  0.38877  1.0000
  H   H71       1.0  0.71917  0.37944  0.27371  1.0000
  H   H72       1.0  0.80940  0.13482  0.23524  1.0000
  N   N49       1.0  0.64995  0.24702  0.29322  1.0000
  C   C139      1.0  0.62013  0.24489  0.27368  1.0000
  H   H73       1.0  0.61451  0.24617  0.20729  1.0000
  N   N50       1.0  0.77878  0.40409  0.30601  1.0000
  C   C140      1.0  0.77979  0.37521  0.31376  1.0000
  H   H74       1.0  0.78134  0.36408  0.25545  1.0000
  N   N51       1.0  0.61592  0.37821  0.28135  1.0000
  C   C141      1.0  0.64428  0.40893  0.28394  1.0000
  H   H75       1.0  0.65145  0.42319  0.22643  1.0000
  N   N52       1.0  0.88389  0.27622  0.29542  1.0000
  C   C142      1.0  0.91409  0.27784  0.30333  1.0000
  H   H76       1.0  0.92753  0.28074  0.24556  1.0000
  N   N53       1.0  0.74673  0.11143  0.28233  1.0000
  C   C143      1.0  0.74430  0.13974  0.28018  1.0000
  H   H77       1.0  0.73618  0.14538  0.22192  1.0000
  N   N54       1.0  0.91302  0.14665  0.29195  1.0000
  C   C144      1.0  0.88543  0.11659  0.27409  1.0000
  H   H78       1.0  0.87875  0.11022  0.20786  1.0000
  C   C145      1.0  0.92154  0.21297  0.38158  1.0000
  C   C146      1.0  0.93932  0.24874  0.38119  1.0000
  C   C147      1.0  0.97470  0.26592  0.37213  1.0000
  N   N55       1.0  0.88731  0.19544  0.37640  1.0000
  C   C148      1.0  0.55001  0.25150  0.35958  1.0000
  C   C149      1.0  0.58377  0.26689  0.33049  1.0000
  C   C150      1.0  0.59978  0.30127  0.30481  1.0000
  N   N56       1.0  0.62989  0.31701  0.26132  1.0000
  H   H79       1.0  0.64130  0.30549  0.24198  1.0000
  H   H80       1.0  0.87418  0.20605  0.36742  1.0000
  H   H81       1.0  0.98614  0.29132  0.36939  1.0000
  H   H82       1.0  0.53949  0.22711  0.37866  1.0000
  C   C151      1.0  0.80907  0.21891  0.31440  1.0000
  C   C152      1.0  0.77417  0.19910  0.33207  1.0000
  C   C153      1.0  0.75619  0.21559  0.35405  1.0000
  N   N57       1.0  0.82476  0.20480  0.26948  1.0000
  C   C154      1.0  0.76826  0.30382  0.38012  1.0000
  C   C155      1.0  0.75087  0.32151  0.39352  1.0000
  C   C156      1.0  0.71509  0.30335  0.39355  1.0000
  N   N58       1.0  0.69738  0.31993  0.39451  1.0000
  H   H83       1.0  0.70768  0.34372  0.39994  1.0000
  H   H84       1.0  0.81163  0.18375  0.23844  1.0000
  H   H85       1.0  0.73129  0.20058  0.36598  1.0000
  H   H86       1.0  0.79359  0.31815  0.37578  1.0000
  C   C157      1.0  0.80888  0.09730  0.30759  1.0000
  C   C158      1.0  0.82720  0.08101  0.33034  1.0000
  C   C159      1.0  0.80901  0.04726  0.35896  1.0000
  N   N59       1.0  0.82334  0.12732  0.26371  1.0000
  C   C160      1.0  0.71947  0.47197  0.35739  1.0000
  C   C161      1.0  0.70217  0.43677  0.34529  1.0000
  C   C162      1.0  0.72137  0.42070  0.33206  1.0000
  N   N60       1.0  0.70647  0.38939  0.29539  1.0000
  H   H87       1.0  0.68437  0.37967  0.26981  1.0000
  H   H88       1.0  0.84573  0.13774  0.23999  1.0000
  H   H89       1.0  0.82305  0.03645  0.37287  1.0000
  H   H90       1.0  0.70509  0.48294  0.36100  1.0000
  C   C163      1.0  0.66234  0.24903  0.37837  1.0000
  C   C164      1.0  0.60245  0.25032  0.34376  1.0000
  N   N61       1.0  0.61454  0.25201  0.42912  1.0000
  C   C165      1.0  0.64220  0.24974  0.45023  1.0000
  N   N62       1.0  0.65384  0.25391  0.54035  1.0000
  O   O25       1.0  0.65871  0.28111  0.57290  1.0000
  O   O26       1.0  0.63253  0.23071  0.58884  1.0000
  C   C166      1.0  0.77234  0.41972  0.37513  1.0000
  C   C167      1.0  0.76907  0.35705  0.39590  1.0000
  N   N63       1.0  0.76294  0.37272  0.46519  1.0000
  C   C168      1.0  0.76558  0.40345  0.46059  1.0000
  N   N64       1.0  0.75558  0.41548  0.53522  1.0000
  O   O27       1.0  0.72583  0.39513  0.55672  1.0000
  O   O28       1.0  0.77383  0.41920  0.60235  1.0000
  C   C169      1.0  0.60528  0.35502  0.34938  1.0000
  C   C170      1.0  0.66691  0.41681  0.35693  1.0000
  N   N65       1.0  0.65685  0.39293  0.42251  1.0000
  C   C171      1.0  0.62715  0.36362  0.42498  1.0000
  N   N66       1.0  0.62047  0.34084  0.49662  1.0000
  O   O29       1.0  0.64307  0.33337  0.50220  1.0000
  O   O30       1.0  0.61960  0.35384  0.57059  1.0000
  C   C172      1.0  0.86111  0.26833  0.36357  1.0000
  C   C173      1.0  0.92168  0.26672  0.38448  1.0000
  N   N67       1.0  0.89885  0.25861  0.45239  1.0000
  C   C174      1.0  0.87018  0.26029  0.44803  1.0000
  N   N68       1.0  0.84747  0.24813  0.52123  1.0000
  O   O31       1.0  0.83866  0.21814  0.53764  1.0000
  O   O32       1.0  0.86105  0.26492  0.59129  1.0000
  C   C175      1.0  0.76052  0.10269  0.35156  1.0000
  C   C176      1.0  0.76034  0.16428  0.34829  1.0000
  N   N69       1.0  0.77540  0.15607  0.41479  1.0000
  C   C177      1.0  0.77510  0.12652  0.42247  1.0000
  N   N70       1.0  0.79239  0.12165  0.49436  1.0000
  O   O33       1.0  0.82248  0.14431  0.49476  1.0000
  O   O34       1.0  0.77982  0.12268  0.56891  1.0000
  C   C178      1.0  0.92309  0.16003  0.37635  1.0000
  C   C179      1.0  0.86230  0.09973  0.34471  1.0000
  N   N71       1.0  0.87227  0.11301  0.42917  1.0000
  C   C180      1.0  0.90204  0.14096  0.44911  1.0000
  N   N72       1.0  0.90936  0.15382  0.53812  1.0000
  O   O35       1.0  0.88733  0.15974  0.56741  1.0000
  O   O36       1.0  0.91057  0.13297  0.59019  1.0000
  C   C181      1.0  0.99433  0.74982  0.36924  1.0000
  C   C182      1.0  0.97508  0.71412  0.37042  1.0000
  C   C183      1.0  0.93984  0.69556  0.37887  1.0000
  H   H91       1.0  0.98656  0.70030  0.36376  1.0000
  C   C184      1.0  0.53049  0.76774  0.35961  1.0000
  C   C185      1.0  0.58437  0.82050  0.32742  1.0000
  C   C186      1.0  0.55025  0.80336  0.35358  1.0000
  H   H92       1.0  0.54007  0.81789  0.36887  1.0000
  H   H93       1.0  0.63572  0.83711  0.22711  1.0000
  H   H94       1.0  0.87464  0.67153  0.37080  1.0000
  C   C187      1.0  0.77153  0.75111  0.36323  1.0000
  C   C188      1.0  0.80732  0.76793  0.36708  1.0000
  C   C189      1.0  0.82656  0.75315  0.34087  1.0000
  H   H95       1.0  0.82060  0.79206  0.38869  1.0000
  C   C190      1.0  0.75258  0.76826  0.37347  1.0000
  C   C191      1.0  0.69789  0.76777  0.38365  1.0000
  C   C192      1.0  0.71683  0.75150  0.37226  1.0000
  H   H96       1.0  0.70337  0.72629  0.36315  1.0000
  H   H97       1.0  0.67372  0.80907  0.38304  1.0000
  H   H98       1.0  0.84715  0.71824  0.24614  1.0000
  C   C193      1.0  0.77328  0.52796  0.36088  1.0000
  C   C194      1.0  0.75729  0.54761  0.35554  1.0000
  C   C195      1.0  0.77435  0.58190  0.33121  1.0000
  H   H99       1.0  0.73253  0.53721  0.37070  1.0000
  C   C196      1.0  0.75513  0.99174  0.36481  1.0000
  C   C197      1.0  0.75609  0.93805  0.35309  1.0000
  C   C198      1.0  0.77168  0.97266  0.37202  1.0000
  H   H100      1.0  0.79633  0.98387  0.38877  1.0000
  H   H101      1.0  0.71917  0.87944  0.27371  1.0000
  H   H102      1.0  0.80940  0.63482  0.23524  1.0000
  N   N73       1.0  0.64995  0.74702  0.29322  1.0000
  C   C199      1.0  0.62013  0.74489  0.27368  1.0000
  H   H103      1.0  0.61451  0.74617  0.20729  1.0000
  N   N74       1.0  0.77879  0.90409  0.30601  1.0000
  C   C200      1.0  0.77979  0.87521  0.31376  1.0000
  H   H104      1.0  0.78134  0.86408  0.25545  1.0000
  N   N75       1.0  0.61592  0.87821  0.28136  1.0000
  C   C201      1.0  0.64429  0.90893  0.28394  1.0000
  H   H105      1.0  0.65145  0.92319  0.22643  1.0000
  N   N76       1.0  0.88389  0.77622  0.29542  1.0000
  C   C202      1.0  0.91409  0.77784  0.30333  1.0000
  H   H106      1.0  0.92753  0.78073  0.24556  1.0000
  N   N77       1.0  0.74673  0.61143  0.28232  1.0000
  C   C203      1.0  0.74430  0.63974  0.28018  1.0000
  H   H107      1.0  0.73618  0.64538  0.22192  1.0000
  N   N78       1.0  0.91302  0.64665  0.29195  1.0000
  C   C204      1.0  0.88543  0.61659  0.27409  1.0000
  H   H108      1.0  0.87875  0.61022  0.20786  1.0000
  C   C205      1.0  0.92154  0.71297  0.38158  1.0000
  C   C206      1.0  0.93932  0.74874  0.38119  1.0000
  C   C207      1.0  0.97470  0.76592  0.37213  1.0000
  N   N79       1.0  0.88731  0.69544  0.37640  1.0000
  C   C208      1.0  0.55001  0.75150  0.35958  1.0000
  C   C209      1.0  0.58377  0.76689  0.33049  1.0000
  C   C210      1.0  0.59978  0.80127  0.30481  1.0000
  N   N80       1.0  0.62989  0.81701  0.26132  1.0000
  H   H109      1.0  0.64129  0.80549  0.24198  1.0000
  H   H110      1.0  0.87418  0.70605  0.36742  1.0000
  H   H111      1.0  0.98614  0.79132  0.36939  1.0000
  H   H112      1.0  0.53949  0.72711  0.37866  1.0000
  C   C211      1.0  0.80907  0.71891  0.31440  1.0000
  C   C212      1.0  0.77418  0.69910  0.33207  1.0000
  C   C213      1.0  0.75619  0.71559  0.35405  1.0000
  N   N81       1.0  0.82476  0.70480  0.26948  1.0000
  C   C214      1.0  0.76826  0.80382  0.38012  1.0000
  C   C215      1.0  0.75087  0.82151  0.39352  1.0000
  C   C216      1.0  0.71509  0.80335  0.39355  1.0000
  N   N82       1.0  0.69738  0.81993  0.39451  1.0000
  H   H113      1.0  0.70768  0.84372  0.39993  1.0000
  H   H114      1.0  0.81163  0.68375  0.23844  1.0000
  H   H115      1.0  0.73129  0.70058  0.36598  1.0000
  H   H116      1.0  0.79359  0.81815  0.37578  1.0000
  C   C217      1.0  0.80888  0.59730  0.30759  1.0000
  C   C218      1.0  0.82720  0.58101  0.33034  1.0000
  C   C219      1.0  0.80901  0.54726  0.35896  1.0000
  N   N83       1.0  0.82334  0.62732  0.26371  1.0000
  C   C220      1.0  0.71947  0.97196  0.35739  1.0000
  C   C221      1.0  0.70217  0.93677  0.34529  1.0000
  C   C222      1.0  0.72137  0.92070  0.33206  1.0000
  N   N84       1.0  0.70647  0.88939  0.29538  1.0000
  H   H117      1.0  0.68437  0.87967  0.26981  1.0000
  H   H118      1.0  0.84573  0.63774  0.23999  1.0000
  H   H119      1.0  0.82305  0.53645  0.37287  1.0000
  H   H120      1.0  0.70509  0.98294  0.36100  1.0000
  C   C223      1.0  0.66234  0.74903  0.37837  1.0000
  C   C224      1.0  0.60245  0.75032  0.34376  1.0000
  N   N85       1.0  0.61454  0.75202  0.42912  1.0000
  C   C225      1.0  0.64220  0.74974  0.45023  1.0000
  N   N86       1.0  0.65385  0.75391  0.54035  1.0000
  O   O37       1.0  0.65871  0.78111  0.57290  1.0000
  O   O38       1.0  0.63253  0.73071  0.58884  1.0000
  C   C226      1.0  0.77234  0.91972  0.37513  1.0000
  C   C227      1.0  0.76907  0.85705  0.39590  1.0000
  N   N87       1.0  0.76294  0.87272  0.46519  1.0000
  C   C228      1.0  0.76558  0.90345  0.46059  1.0000
  N   N88       1.0  0.75557  0.91549  0.53522  1.0000
  O   O39       1.0  0.72583  0.89513  0.55672  1.0000
  O   O40       1.0  0.77382  0.91920  0.60235  1.0000
  C   C229      1.0  0.60528  0.85502  0.34938  1.0000
  C   C230      1.0  0.66690  0.91681  0.35693  1.0000
  N   N89       1.0  0.65686  0.89293  0.42251  1.0000
  C   C231      1.0  0.62715  0.86362  0.42498  1.0000
  N   N90       1.0  0.62047  0.84084  0.49662  1.0000
  O   O41       1.0  0.64307  0.83337  0.50220  1.0000
  O   O42       1.0  0.61960  0.85384  0.57059  1.0000
  C   C232      1.0  0.86111  0.76834  0.36357  1.0000
  C   C233      1.0  0.92167  0.76672  0.38448  1.0000
  N   N91       1.0  0.89885  0.75861  0.45239  1.0000
  C   C234      1.0  0.87018  0.76029  0.44803  1.0000
  N   N92       1.0  0.84747  0.74813  0.52123  1.0000
  O   O43       1.0  0.83866  0.71814  0.53764  1.0000
  O   O44       1.0  0.86105  0.76492  0.59129  1.0000
  C   C235      1.0  0.76052  0.60269  0.35156  1.0000
  C   C236      1.0  0.76034  0.66428  0.34829  1.0000
  N   N93       1.0  0.77540  0.65607  0.41479  1.0000
  C   C237      1.0  0.77509  0.62652  0.42247  1.0000
  N   N94       1.0  0.79239  0.62165  0.49436  1.0000
  O   O45       1.0  0.82248  0.64431  0.49476  1.0000
  O   O46       1.0  0.77982  0.62268  0.56891  1.0000
  C   C238      1.0  0.92309  0.66003  0.37635  1.0000
  C   C239      1.0  0.86230  0.59973  0.34471  1.0000
  N   N95       1.0  0.87226  0.61301  0.42917  1.0000
  C   C240      1.0  0.90204  0.64096  0.44911  1.0000
  N   N96       1.0  0.90936  0.65382  0.53812  1.0000
  O   O47       1.0  0.88733  0.65974  0.56741  1.0000
  O   O48       1.0  0.91057  0.63297  0.59019  1.0000
