data_image0
_chemical_formula_structural       C3HCH3NC3HCH3NHNC3HCH3NC3H3NC3HCH3NCHC3HCH3N2C6H3C3H3C6H3C3H3C6H3C3H3C6H3C3H3C6H3C3H3C3HCH3NC3HCH3NC3HCH3NCHC3HCH3NC3H3NC3HCH3NCH2NHC2H3C3HCH2C3HCH3NC3HCH3C3HCH3NC2HCH2C6H3C3H3C6H3C3H3C4H3NC3HCH3NC3H2C4H3NCHC3H3NC2HNC3HCH3NC3HCHC3HCH3NC3HCH3C3HCH2NCHNC6H3C3H7C6H3C3H3C6H3C3H4C3HCH3NC3HCH3NC3H2NC4H3NC3HCH3NC3H3NCH3NCHNC3H3NHC6H2C3H2C6H2C3H2CH2C3H3NHCH
_chemical_formula_sum              "C252 H216 N36"
_cell_length_a       58.1189
_cell_length_b       58.1189
_cell_length_c       14.5851
_cell_angle_alpha    90
_cell_angle_beta     90
_cell_angle_gamma    120

_space_group_name_H-M_alt    "P 1"
_space_group_IT_number       1

loop_
  _space_group_symop_operation_xyz
  'x, y, z'

loop_
  _atom_site_type_symbol
  _atom_site_label
  _atom_site_symmetry_multiplicity
  _atom_site_fract_x
  _atom_site_fract_y
  _atom_site_fract_z
  _atom_site_occupancy
  C   C1        1.0  0.20120  0.37236  0.34487  1.0000
  C   C2        1.0  0.21552  0.38870  0.26889  1.0000
  C   C3        1.0  0.22927  0.41688  0.27740  1.0000
  H   H1        1.0  0.23997  0.42829  0.22271  1.0000
  C   C4        1.0  0.21709  0.37752  0.17884  1.0000
  H   H2        1.0  0.20591  0.35587  0.17695  1.0000
  H   H3        1.0  0.23779  0.38390  0.16304  1.0000
  H   H4        1.0  0.20922  0.38476  0.12514  1.0000
  N   N1        1.0  0.18958  0.34542  0.34011  1.0000
  C   C5        1.0  0.19947  0.82581  0.34461  1.0000
  C   C6        1.0  0.20105  0.81115  0.26887  1.0000
  C   C7        1.0  0.21541  0.79732  0.27709  1.0000
  H   H5        1.0  0.21580  0.78638  0.22261  1.0000
  C   C8        1.0  0.18793  0.80931  0.17940  1.0000
  H   H6        1.0  0.17755  0.82058  0.17766  1.0000
  H   H7        1.0  0.17346  0.78858  0.16468  1.0000
  H   H8        1.0  0.20281  0.81693  0.12491  1.0000
  N   N2        1.0  0.18419  0.83746  0.34016  1.0000
  H   H9        1.0  0.36594  0.16900  0.17654  1.0000
  N   N3        1.0  0.35535  0.17439  0.34009  1.0000
  C   C9        1.0  0.19933  0.21772  0.35228  1.0000
  C   C10       1.0  0.21505  0.21878  0.27558  1.0000
  C   C11       1.0  0.23087  0.20640  0.28067  1.0000
  H   H10       1.0  0.24222  0.20754  0.22518  1.0000
  C   C12       1.0  0.21537  0.23188  0.18765  1.0000
  H   H11       1.0  0.20151  0.23933  0.18645  1.0000
  H   H12       1.0  0.20999  0.21772  0.13133  1.0000
  H   H13       1.0  0.23530  0.24857  0.17517  1.0000
  N   N4        1.0  0.18285  0.22804  0.35459  1.0000
  C   C13       1.0  0.04682  0.82779  0.35226  1.0000
  C   C14       1.0  0.03216  0.81203  0.27563  1.0000
  C   C15       1.0  0.04495  0.81169  0.18773  1.0000
  H   H14       1.0  0.06625  0.82557  0.18649  1.0000
  H   H15       1.0  0.03615  0.81704  0.13134  1.0000
  H   H16       1.0  0.04173  0.79177  0.17537  1.0000
  N   N5        1.0  0.07362  0.84426  0.35460  1.0000
  C   C16       1.0  0.22763  0.03690  0.35227  1.0000
  C   C17       1.0  0.22869  0.02223  0.27558  1.0000
  C   C18       1.0  0.21630  0.99403  0.28069  1.0000
  H   H17       1.0  0.21744  0.98382  0.22521  1.0000
  C   C19       1.0  0.24178  0.03501  0.18765  1.0000
  H   H18       1.0  0.24923  0.05632  0.18644  1.0000
  H   H19       1.0  0.22762  0.02623  0.13133  1.0000
  H   H20       1.0  0.25847  0.03177  0.17517  1.0000
  N   N6        1.0  0.23795  0.06370  0.35457  1.0000
  C   C20       1.0  0.03307  0.22097  0.28072  1.0000
  H   H21       1.0  0.04328  0.23233  0.22526  1.0000
  C   C21       1.0  0.24563  0.59699  0.37368  1.0000
  C   C22       1.0  0.22387  0.59865  0.33573  1.0000
  C   C23       1.0  0.22341  0.62293  0.34049  1.0000
  H   H22       1.0  0.20858  0.62442  0.30808  1.0000
  C   C24       1.0  0.20202  0.57631  0.28438  1.0000
  H   H23       1.0  0.20368  0.55843  0.28367  1.0000
  H   H24       1.0  0.20200  0.58226  0.21339  1.0000
  H   H25       1.0  0.18297  0.57116  0.31567  1.0000
  N   N7        1.0  0.24812  0.57474  0.36184  1.0000
  N   N8        1.0  0.35509  0.77899  0.36226  1.0000
  C   C25       1.0  0.15943  0.29855  0.36295  1.0000
  C   C26       1.0  0.13175  0.27959  0.36315  1.0000
  C   C27       1.0  0.12164  0.25172  0.35723  1.0000
  C   C28       1.0  0.14072  0.24312  0.35251  1.0000
  C   C29       1.0  0.16864  0.26090  0.35288  1.0000
  C   C30       1.0  0.17727  0.28856  0.35754  1.0000
  H   H26       1.0  0.13406  0.22316  0.34897  1.0000
  H   H27       1.0  0.19724  0.30191  0.35957  1.0000
  H   H28       1.0  0.11852  0.28630  0.36838  1.0000
  C   C31       1.0  0.09403  0.23275  0.35837  1.0000
  C   C32       1.0  0.18765  0.25233  0.34926  1.0000
  C   C33       1.0  0.16832  0.32590  0.37561  1.0000
  H   H29       1.0  0.15703  0.33051  0.41383  1.0000
  H   H30       1.0  0.20666  0.26630  0.34294  1.0000
  H   H31       1.0  0.08889  0.21365  0.36058  1.0000
  C   C34       1.0  0.16754  0.86767  0.36298  1.0000
  C   C35       1.0  0.17626  0.89535  0.36317  1.0000
  C   C36       1.0  0.15850  0.90546  0.35728  1.0000
  C   C37       1.0  0.13082  0.88639  0.35259  1.0000
  C   C38       1.0  0.12068  0.85846  0.35294  1.0000
  C   C39       1.0  0.13971  0.84983  0.35760  1.0000
  H   H32       1.0  0.11752  0.89304  0.34906  1.0000
  H   H33       1.0  0.13309  0.82986  0.35956  1.0000
  H   H34       1.0  0.19620  0.90858  0.36838  1.0000
  C   C40       1.0  0.16714  0.93308  0.35845  1.0000
  C   C41       1.0  0.09310  0.83945  0.34930  1.0000
  C   C42       1.0  0.18600  0.85878  0.37547  1.0000
  H   H35       1.0  0.20198  0.87012  0.41329  1.0000
  H   H36       1.0  0.08806  0.82044  0.34297  1.0000
  H   H37       1.0  0.15318  0.93821  0.36073  1.0000
  C   C43       1.0  0.30847  0.15762  0.36287  1.0000
  C   C44       1.0  0.28951  0.16634  0.36312  1.0000
  C   C45       1.0  0.26164  0.14859  0.35720  1.0000
  C   C46       1.0  0.25303  0.12091  0.35246  1.0000
  C   C47       1.0  0.27082  0.11077  0.35284  1.0000
  C   C48       1.0  0.29848  0.12980  0.35754  1.0000
  H   H38       1.0  0.23308  0.10761  0.34892  1.0000
  H   H39       1.0  0.31183  0.12317  0.35957  1.0000
  H   H40       1.0  0.29623  0.18629  0.36840  1.0000
  C   C49       1.0  0.24267  0.15723  0.35837  1.0000
  C   C50       1.0  0.26224  0.08318  0.34925  1.0000
  C   C51       1.0  0.33581  0.17607  0.37571  1.0000
  H   H41       1.0  0.34041  0.19193  0.41418  1.0000
  H   H42       1.0  0.27621  0.07814  0.34293  1.0000
  H   H43       1.0  0.22357  0.14327  0.36062  1.0000
  C   C52       1.0  0.26362  0.50352  0.34860  1.0000
  C   C53       1.0  0.25606  0.52343  0.35499  1.0000
  C   C54       1.0  0.27499  0.55078  0.36735  1.0000
  C   C55       1.0  0.30203  0.55753  0.37154  1.0000
  C   C56       1.0  0.31107  0.53920  0.36153  1.0000
  C   C57       1.0  0.29130  0.51211  0.34998  1.0000
  H   H44       1.0  0.31607  0.57720  0.37563  1.0000
  H   H45       1.0  0.29726  0.49838  0.34175  1.0000
  H   H46       1.0  0.23637  0.51793  0.35222  1.0000
  C   C58       1.0  0.27016  0.57247  0.37548  1.0000
  C   C59       1.0  0.33890  0.54866  0.35834  1.0000
  C   C60       1.0  0.24433  0.47648  0.33518  1.0000
  H   H47       1.0  0.22812  0.47245  0.29966  1.0000
  H   H48       1.0  0.34567  0.53622  0.33883  1.0000
  H   H49       1.0  0.28687  0.59031  0.38712  1.0000
  C   C61       1.0  0.26843  0.76357  0.34944  1.0000
  C   C62       1.0  0.29589  0.77108  0.35585  1.0000
  C   C63       1.0  0.30429  0.75211  0.36746  1.0000
  C   C64       1.0  0.28399  0.72507  0.37100  1.0000
  C   C65       1.0  0.25661  0.71607  0.36130  1.0000
  C   C66       1.0  0.24933  0.73589  0.35031  1.0000
  H   H50       1.0  0.28959  0.71101  0.37472  1.0000
  H   H51       1.0  0.22963  0.72995  0.34236  1.0000
  H   H52       1.0  0.31010  0.79077  0.35365  1.0000
  C   C67       1.0  0.33081  0.75693  0.37567  1.0000
  C   C68       1.0  0.23822  0.68826  0.35797  1.0000
  C   C69       1.0  0.26076  0.78298  0.33730  1.0000
  H   H53       1.0  0.27348  0.79979  0.30576  1.0000
  H   H54       1.0  0.21899  0.68152  0.33874  1.0000
  H   H55       1.0  0.33193  0.74019  0.38667  1.0000
  C   C70       1.0  0.22974  0.42995  0.35981  1.0000
  C   C71       1.0  0.21591  0.41369  0.43643  1.0000
  C   C72       1.0  0.20178  0.38550  0.42749  1.0000
  H   H56       1.0  0.19243  0.37417  0.48390  1.0000
  C   C73       1.0  0.21580  0.42502  0.52771  1.0000
  H   H57       1.0  0.22683  0.44668  0.52862  1.0000
  H   H58       1.0  0.22465  0.41802  0.57864  1.0000
  H   H59       1.0  0.19537  0.41856  0.54802  1.0000
  N   N9        1.0  0.24608  0.45659  0.36703  1.0000
  C   C74       1.0  0.22842  0.79714  0.35884  1.0000
  C   C75       1.0  0.22639  0.81128  0.43528  1.0000
  C   C76       1.0  0.21237  0.82545  0.42667  1.0000
  H   H60       1.0  0.21070  0.83504  0.48297  1.0000
  C   C77       1.0  0.23818  0.81161  0.52607  1.0000
  H   H61       1.0  0.24872  0.80048  0.52671  1.0000
  H   H62       1.0  0.22252  0.80297  0.57778  1.0000
  H   H63       1.0  0.25230  0.83207  0.54550  1.0000
  N   N10       1.0  0.23855  0.78065  0.36555  1.0000
  C   C78       1.0  0.23119  0.19192  0.35825  1.0000
  C   C79       1.0  0.21547  0.19085  0.43492  1.0000
  C   C80       1.0  0.19967  0.20325  0.42985  1.0000
  H   H64       1.0  0.18836  0.20213  0.48544  1.0000
  C   C81       1.0  0.21514  0.17769  0.52271  1.0000
  H   H65       1.0  0.22878  0.16998  0.52342  1.0000
  H   H66       1.0  0.19514  0.16116  0.53556  1.0000
  H   H67       1.0  0.22077  0.19189  0.57903  1.0000
  N   N11       1.0  0.24769  0.18163  0.35674  1.0000
  C   C82       1.0  0.03201  0.82744  0.42986  1.0000
  H   H68       1.0  0.04220  0.83876  0.48542  1.0000
  C   C83       1.0  0.20183  0.97924  0.35828  1.0000
  C   C84       1.0  0.20077  0.99390  0.43495  1.0000
  C   C85       1.0  0.21316  0.02209  0.42985  1.0000
  H   H69       1.0  0.21204  0.03229  0.48543  1.0000
  C   C86       1.0  0.18760  0.98107  0.52275  1.0000
  H   H70       1.0  0.17990  0.95971  0.52347  1.0000
  H   H71       1.0  0.17107  0.98453  0.53558  1.0000
  H   H72       1.0  0.20180  0.98964  0.57906  1.0000
  N   N12       1.0  0.19154  0.95246  0.35678  1.0000
  C   C87       1.0  0.04786  0.22126  0.35826  1.0000
  C   C88       1.0  0.03320  0.20552  0.43490  1.0000
  C   C89       1.0  0.04604  0.20517  0.52267  1.0000
  H   H73       1.0  0.06739  0.21883  0.52341  1.0000
  H   H74       1.0  0.04258  0.18518  0.53543  1.0000
  H   H75       1.0  0.03747  0.21079  0.57902  1.0000
  N   N13       1.0  0.07464  0.23776  0.35677  1.0000
  C   C90       1.0  0.24392  0.64583  0.38330  1.0000
  C   C91       1.0  0.26444  0.64375  0.42820  1.0000
  C   C92       1.0  0.26498  0.61975  0.42187  1.0000
  H   H76       1.0  0.27976  0.61887  0.45661  1.0000
  C   C93       1.0  0.28569  0.66563  0.48345  1.0000
  H   H77       1.0  0.28151  0.68154  0.49814  1.0000
  H   H78       1.0  0.30459  0.67395  0.44699  1.0000
  H   H79       1.0  0.28774  0.65802  0.54962  1.0000
  N   N14       1.0  0.24579  0.67009  0.37742  1.0000
  C   C94       1.0  0.36156  0.61879  0.48398  1.0000
  H   H80       1.0  0.34564  0.59870  0.49872  1.0000
  H   H81       1.0  0.35324  0.62937  0.44753  1.0000
  N   N15       1.0  0.35703  0.57440  0.37795  1.0000
  H   H82       1.0  0.36754  0.74734  0.45706  1.0000
  C   C95       1.0  0.63842  0.82550  0.26902  1.0000
  C   C96       1.0  0.61025  0.81108  0.27757  1.0000
  H   H83       1.0  0.59884  0.81038  0.22291  1.0000
  H   H84       1.0  0.64323  0.85260  0.16328  1.0000
  H   H85       1.0  0.64234  0.82317  0.12525  1.0000
  C   C97       1.0  0.38228  0.18973  0.34508  1.0000
  C   C98       1.0  0.39869  0.19202  0.26896  1.0000
  C   C99       1.0  0.42687  0.20649  0.27770  1.0000
  H   H86       1.0  0.43832  0.20739  0.22289  1.0000
  C   C100      1.0  0.38759  0.17951  0.17856  1.0000
  H   H87       1.0  0.39402  0.16527  0.16210  1.0000
  H   H88       1.0  0.39482  0.19477  0.12538  1.0000
  C   C101      1.0  0.43015  0.64730  0.37392  1.0000
  C   C102      1.0  0.42847  0.62387  0.33595  1.0000
  C   C103      1.0  0.40418  0.59915  0.34078  1.0000
  H   H89       1.0  0.40266  0.58281  0.30842  1.0000
  C   C104      1.0  0.45079  0.62435  0.28455  1.0000
  H   H90       1.0  0.46867  0.64387  0.28380  1.0000
  H   H91       1.0  0.44482  0.61837  0.21358  1.0000
  H   H92       1.0  0.45593  0.61044  0.31583  1.0000
  N   N16       1.0  0.45241  0.67204  0.36202  1.0000
  C   C105      1.0  0.37983  0.78148  0.37413  1.0000
  C   C106      1.0  0.40326  0.80324  0.33621  1.0000
  C   C107      1.0  0.42799  0.80368  0.34099  1.0000
  H   H93       1.0  0.44433  0.81850  0.30863  1.0000
  C   C108      1.0  0.40278  0.82507  0.28475  1.0000
  H   H94       1.0  0.38325  0.82342  0.28401  1.0000
  H   H95       1.0  0.40875  0.82507  0.21377  1.0000
  H   H96       1.0  0.41669  0.84413  0.31598  1.0000
  C   C109      1.0  0.60681  0.36976  0.37390  1.0000
  C   C110      1.0  0.60851  0.39317  0.33564  1.0000
  C   C111      1.0  0.63280  0.41790  0.34050  1.0000
  H   H97       1.0  0.63433  0.43422  0.30788  1.0000
  C   C112      1.0  0.58623  0.39267  0.28386  1.0000
  H   H98       1.0  0.56835  0.37314  0.28310  1.0000
  H   H99       1.0  0.59225  0.39861  0.21289  1.0000
  H   H100      1.0  0.58107  0.40659  0.31484  1.0000
  N   N17       1.0  0.58456  0.34501  0.36193  1.0000
  C   C113      1.0  0.63392  0.21398  0.33574  1.0000
  C   C114      1.0  0.60918  0.21352  0.34061  1.0000
  H   H101      1.0  0.59286  0.19872  0.30808  1.0000
  C   C115      1.0  0.63442  0.19218  0.28408  1.0000
  H   H102      1.0  0.62847  0.19223  0.21311  1.0000
  H   H103      1.0  0.62050  0.17310  0.31515  1.0000
  C   C116      1.0  0.52363  0.75876  0.34875  1.0000
  C   C117      1.0  0.50371  0.73128  0.35517  1.0000
  C   C118      1.0  0.47636  0.72286  0.36747  1.0000
  C   C119      1.0  0.46961  0.74315  0.37163  1.0000
  C   C120      1.0  0.48794  0.77053  0.36163  1.0000
  C   C121      1.0  0.51502  0.77784  0.35011  1.0000
  H   H104      1.0  0.44995  0.73753  0.37569  1.0000
  H   H105      1.0  0.52876  0.79754  0.34188  1.0000
  H   H106      1.0  0.50922  0.71710  0.35235  1.0000
  C   C122      1.0  0.45467  0.69634  0.37560  1.0000
  C   C123      1.0  0.47847  0.78889  0.35844  1.0000
  C   C124      1.0  0.55066  0.76651  0.33533  1.0000
  H   H107      1.0  0.55470  0.75433  0.29988  1.0000
  H   H108      1.0  0.49093  0.80812  0.33904  1.0000
  H   H109      1.0  0.43683  0.69521  0.38720  1.0000
  C   C125      1.0  0.51342  0.25824  0.34805  1.0000
  C   C126      1.0  0.53329  0.28573  0.35462  1.0000
  C   C127      1.0  0.56063  0.29418  0.36749  1.0000
  C   C128      1.0  0.56741  0.27392  0.37184  1.0000
  C   C129      1.0  0.54914  0.24654  0.36153  1.0000
  C   C130      1.0  0.52206  0.23919  0.34959  1.0000
  H   H110      1.0  0.58708  0.27957  0.37644  1.0000
  H   H111      1.0  0.50835  0.21949  0.34107  1.0000
  H   H112      1.0  0.52775  0.29988  0.35156  1.0000
  C   C131      1.0  0.58228  0.32072  0.37589  1.0000
  C   C132      1.0  0.55867  0.22823  0.35826  1.0000
  C   C133      1.0  0.48642  0.25042  0.33371  1.0000
  H   H113      1.0  0.48243  0.26218  0.29551  1.0000
  H   H114      1.0  0.54627  0.20901  0.33860  1.0000
  H   H115      1.0  0.60012  0.32187  0.38779  1.0000
  C   C134      1.0  0.59719  0.79847  0.35998  1.0000
  C   C135      1.0  0.61345  0.80088  0.43655  1.0000
  C   C136      1.0  0.64163  0.81494  0.42758  1.0000
  C   C137      1.0  0.60212  0.78940  0.52781  1.0000
  H   H116      1.0  0.58046  0.77878  0.52873  1.0000
  H   H117      1.0  0.60913  0.80525  0.57879  1.0000
  H   H118      1.0  0.60858  0.77543  0.54806  1.0000
  N   N18       1.0  0.57054  0.78816  0.36716  1.0000
  C   C138      1.0  0.43987  0.21883  0.36049  1.0000
  C   C139      1.0  0.42353  0.21612  0.43722  1.0000
  C   C140      1.0  0.39536  0.20205  0.42805  1.0000
  H   H119      1.0  0.38399  0.19989  0.48452  1.0000
  C   C141      1.0  0.43479  0.22734  0.52882  1.0000
  H   H120      1.0  0.45645  0.23803  0.52992  1.0000
  H   H121      1.0  0.42779  0.21134  0.57922  1.0000
  H   H122      1.0  0.42825  0.24120  0.54973  1.0000
  N   N19       1.0  0.46652  0.22924  0.36803  1.0000
  C   C142      1.0  0.38130  0.59676  0.38379  1.0000
  C   C143      1.0  0.38341  0.61939  0.42866  1.0000
  C   C144      1.0  0.40742  0.64391  0.42223  1.0000
  H   H123      1.0  0.40832  0.65958  0.45698  1.0000
  H   H124      1.0  0.36919  0.62845  0.55012  1.0000
  C   C145      1.0  0.43038  0.78318  0.38397  1.0000
  C   C146      1.0  0.40775  0.76265  0.42880  1.0000
  C   C147      1.0  0.38322  0.76211  0.42232  1.0000
  C   C148      1.0  0.40836  0.74140  0.48410  1.0000
  H   H125      1.0  0.42845  0.74558  0.49885  1.0000
  H   H126      1.0  0.39778  0.72251  0.44764  1.0000
  H   H127      1.0  0.39869  0.73936  0.55024  1.0000
  N   N20       1.0  0.45274  0.78127  0.37808  1.0000
  C   C149      1.0  0.62950  0.37318  0.42249  1.0000
  H   H128      1.0  0.62858  0.35753  0.45744  1.0000
  C   C150      1.0  0.60676  0.23396  0.38387  1.0000
  C   C151      1.0  0.62937  0.25444  0.42894  1.0000
  C   C152      1.0  0.62874  0.27565  0.48446  1.0000
  H   H129      1.0  0.60865  0.27147  0.49916  1.0000
  H   H130      1.0  0.63933  0.29458  0.44818  1.0000
  H   H131      1.0  0.63838  0.27763  0.55061  1.0000
  N   N21       1.0  0.58440  0.23588  0.37805  1.0000
  C   C153      1.0  0.65477  0.82749  0.34496  1.0000
  C   C154      1.0  0.64959  0.83827  0.17899  1.0000
  H   H132      1.0  0.67124  0.84872  0.17707  1.0000
  N   N22       1.0  0.68171  0.84282  0.34017  1.0000
  C   C155      1.0  0.83590  0.64480  0.34505  1.0000
  C   C156      1.0  0.82176  0.62839  0.26895  1.0000
  C   C157      1.0  0.80806  0.60021  0.27766  1.0000
  H   H133      1.0  0.79750  0.58877  0.22286  1.0000
  C   C158      1.0  0.82036  0.63950  0.17855  1.0000
  H   H134      1.0  0.83150  0.66115  0.17654  1.0000
  H   H135      1.0  0.79968  0.63307  0.16212  1.0000
  H   H136      1.0  0.82838  0.63226  0.12536  1.0000
  N   N23       1.0  0.84747  0.67173  0.34007  1.0000
  C   C159      1.0  0.83738  0.19122  0.34508  1.0000
  C   C160      1.0  0.83519  0.20543  0.26904  1.0000
  C   C161      1.0  0.82074  0.21915  0.27773  1.0000
  H   H137      1.0  0.81991  0.22976  0.22298  1.0000
  C   C162      1.0  0.84778  0.20690  0.17875  1.0000
  H   H138      1.0  0.83257  0.19893  0.12539  1.0000
  C   C163      1.0  0.80942  0.98027  0.35222  1.0000
  C   C164      1.0  0.80832  0.99493  0.27558  1.0000
  C   C165      1.0  0.82069  0.02313  0.28070  1.0000
  H   H139      1.0  0.81954  0.03334  0.22522  1.0000
  C   C166      1.0  0.79522  0.98215  0.18767  1.0000
  H   H140      1.0  0.78780  0.96085  0.18642  1.0000
  H   H141      1.0  0.80936  0.99095  0.13131  1.0000
  H   H142      1.0  0.77851  0.98536  0.17528  1.0000
  N   N24       1.0  0.79909  0.95347  0.35458  1.0000
  C   C167      1.0  0.83773  0.79947  0.35222  1.0000
  C   C168      1.0  0.82198  0.79838  0.27557  1.0000
  C   C169      1.0  0.80615  0.81077  0.28070  1.0000
  H   H143      1.0  0.79479  0.80961  0.22525  1.0000
  C   C170      1.0  0.82163  0.78526  0.18767  1.0000
  H   H144      1.0  0.83550  0.77783  0.18642  1.0000
  H   H145      1.0  0.82698  0.79940  0.13129  1.0000
  H   H146      1.0  0.80170  0.76856  0.17531  1.0000
  C   C171      1.0  0.79142  0.42029  0.37393  1.0000
  C   C172      1.0  0.81312  0.41858  0.33563  1.0000
  C   C173      1.0  0.81359  0.39431  0.34053  1.0000
  H   H147      1.0  0.82834  0.39276  0.30777  1.0000
  C   C174      1.0  0.83487  0.44085  0.28371  1.0000
  H   H148      1.0  0.83321  0.45872  0.28290  1.0000
  H   H149      1.0  0.83476  0.43480  0.21276  1.0000
  N   N25       1.0  0.78891  0.44253  0.36199  1.0000
  C   C175      1.0  0.65732  0.23569  0.37395  1.0000
  H   H150      1.0  0.65395  0.19384  0.28333  1.0000
  N   N26       1.0  0.68208  0.23820  0.36200  1.0000
  C   C176      1.0  0.72858  0.85955  0.36297  1.0000
  C   C177      1.0  0.74755  0.85083  0.36315  1.0000
  C   C178      1.0  0.77541  0.86859  0.35724  1.0000
  C   C179      1.0  0.78401  0.89627  0.35251  1.0000
  C   C180      1.0  0.76623  0.90640  0.35288  1.0000
  C   C181      1.0  0.73857  0.88737  0.35759  1.0000
  H   H151      1.0  0.80397  0.90957  0.34894  1.0000
  H   H152      1.0  0.72521  0.89399  0.35955  1.0000
  H   H153      1.0  0.74083  0.83089  0.36839  1.0000
  C   C182      1.0  0.79438  0.85995  0.35837  1.0000
  C   C183      1.0  0.77480  0.93399  0.34922  1.0000
  C   C184      1.0  0.70123  0.84109  0.37563  1.0000
  H   H154      1.0  0.69662  0.82518  0.41379  1.0000
  H   H155      1.0  0.76083  0.93903  0.34285  1.0000
  H   H156      1.0  0.81348  0.87391  0.36057  1.0000
  H   H157      1.0  0.83978  0.71525  0.35955  1.0000
  H   H158      1.0  0.83037  0.75088  0.34289  1.0000
  H   H159      1.0  0.84081  0.10859  0.36839  1.0000
  H   H160      1.0  0.83513  0.14711  0.41393  1.0000
  C   C185      1.0  0.77326  0.51366  0.34804  1.0000
  C   C186      1.0  0.78089  0.49380  0.35467  1.0000
  C   C187      1.0  0.76201  0.46646  0.36756  1.0000
  C   C188      1.0  0.73496  0.45967  0.37187  1.0000
  C   C189      1.0  0.72585  0.47793  0.36148  1.0000
  C   C190      1.0  0.74558  0.50502  0.34952  1.0000
  H   H161      1.0  0.72095  0.44000  0.37651  1.0000
  H   H162      1.0  0.73959  0.51872  0.34098  1.0000
  H   H163      1.0  0.80059  0.49934  0.35166  1.0000
  C   C191      1.0  0.76691  0.44481  0.37606  1.0000
  C   C192      1.0  0.69801  0.46840  0.35820  1.0000
  C   C193      1.0  0.79246  0.54066  0.33375  1.0000
  H   H164      1.0  0.80822  0.54465  0.29562  1.0000
  H   H165      1.0  0.69120  0.48080  0.33843  1.0000
  H   H166      1.0  0.75021  0.42697  0.38790  1.0000
  C   C194      1.0  0.76884  0.25382  0.34822  1.0000
  C   C195      1.0  0.74135  0.24621  0.35478  1.0000
  C   C196      1.0  0.73290  0.26510  0.36751  1.0000
  C   C197      1.0  0.75317  0.29215  0.37180  1.0000
  C   C198      1.0  0.78054  0.30124  0.36149  1.0000
  C   C199      1.0  0.78789  0.28150  0.34963  1.0000
  H   H167      1.0  0.74752  0.30616  0.37635  1.0000
  H   H168      1.0  0.80759  0.28749  0.34115  1.0000
  H   H169      1.0  0.72719  0.22651  0.35181  1.0000
  C   C200      1.0  0.70637  0.26022  0.37591  1.0000
  C   C201      1.0  0.79886  0.32908  0.35821  1.0000
  C   C202      1.0  0.77664  0.23460  0.33410  1.0000
  H   H170      1.0  0.76477  0.21874  0.29657  1.0000
  H   H171      1.0  0.81807  0.33589  0.33850  1.0000
  H   H172      1.0  0.70522  0.27691  0.38773  1.0000
  H   H173      1.0  0.65297  0.81689  0.48395  1.0000
  C   C203      1.0  0.80740  0.58721  0.36046  1.0000
  C   C204      1.0  0.82102  0.60354  0.43719  1.0000
  C   C205      1.0  0.83513  0.63172  0.42802  1.0000
  H   H174      1.0  0.84433  0.64309  0.48451  1.0000
  C   C206      1.0  0.82097  0.59229  0.52881  1.0000
  H   H175      1.0  0.80998  0.57063  0.52991  1.0000
  H   H176      1.0  0.81197  0.59930  0.57918  1.0000
  H   H177      1.0  0.84136  0.59882  0.54975  1.0000
  N   N27       1.0  0.79114  0.56056  0.36798  1.0000
  C   C207      1.0  0.80832  0.21974  0.36042  1.0000
  C   C208      1.0  0.81093  0.20604  0.43709  1.0000
  C   C209      1.0  0.82500  0.19193  0.42795  1.0000
  H   H178      1.0  0.82709  0.18266  0.48439  1.0000
  C   C210      1.0  0.79963  0.20601  0.52858  1.0000
  H   H179      1.0  0.78896  0.21700  0.52962  1.0000
  H   H180      1.0  0.81558  0.21496  0.57917  1.0000
  H   H181      1.0  0.78573  0.18560  0.54927  1.0000
  N   N28       1.0  0.79794  0.23602  0.36783  1.0000
  C   C211      1.0  0.83519  0.03793  0.35824  1.0000
  C   C212      1.0  0.83626  0.02328  0.43491  1.0000
  C   C213      1.0  0.82388  0.99508  0.42983  1.0000
  H   H182      1.0  0.82501  0.98489  0.48540  1.0000
  H   H183      1.0  0.83524  0.02755  0.57903  1.0000
  N   N29       1.0  0.84547  0.06471  0.35673  1.0000
  C   C214      1.0  0.80586  0.82526  0.35826  1.0000
  C   C215      1.0  0.82159  0.82634  0.43490  1.0000
  C   C216      1.0  0.83739  0.81394  0.42981  1.0000
  C   C217      1.0  0.82194  0.83951  0.52269  1.0000
  H   H184      1.0  0.80829  0.84722  0.52341  1.0000
  H   H185      1.0  0.84194  0.85604  0.53549  1.0000
  H   H186      1.0  0.81631  0.82532  0.57902  1.0000
  N   N30       1.0  0.78936  0.83555  0.35678  1.0000
  C   C218      1.0  0.79315  0.37145  0.38381  1.0000
  C   C219      1.0  0.77269  0.37359  0.42899  1.0000
  C   C220      1.0  0.77215  0.39759  0.42254  1.0000
  H   H187      1.0  0.75743  0.39851  0.45755  1.0000
  C   C221      1.0  0.75149  0.35176  0.48456  1.0000
  H   H188      1.0  0.75566  0.33584  0.49916  1.0000
  H   H189      1.0  0.73255  0.34345  0.44838  1.0000
  H   H190      1.0  0.74954  0.35942  0.55076  1.0000
  N   N31       1.0  0.79122  0.34717  0.37800  1.0000
  C   C222      1.0  0.65565  0.42030  0.38373  1.0000
  C   C223      1.0  0.65351  0.39771  0.42891  1.0000
  C   C224      1.0  0.67534  0.39834  0.48446  1.0000
  H   H191      1.0  0.69125  0.41843  0.49914  1.0000
  H   H192      1.0  0.68366  0.38773  0.44824  1.0000
  H   H193      1.0  0.66768  0.38871  0.55064  1.0000
  N   N32       1.0  0.67993  0.44267  0.37796  1.0000
  C   C225      1.0  0.65390  0.25498  0.42249  1.0000
  H   H194      1.0  0.66956  0.26972  0.45739  1.0000
  H   H195      1.0  0.85827  0.19574  0.17674  1.0000
  H   H196      1.0  0.86206  0.22758  0.16255  1.0000
  N   N33       1.0  0.85273  0.17964  0.34014  1.0000
  C   C226      1.0  0.00396  0.79620  0.28073  1.0000
  H   H197      1.0  0.99375  0.78483  0.22527  1.0000
  N   N34       1.0  0.85419  0.78913  0.35454  1.0000
  C   C227      1.0  0.99020  0.18937  0.35220  1.0000
  C   C228      1.0  0.00486  0.20514  0.27559  1.0000
  C   C229      1.0  0.99208  0.20548  0.18769  1.0000
  H   H198      1.0  0.97078  0.19159  0.18641  1.0000
  H   H199      1.0  0.00089  0.20014  0.13131  1.0000
  H   H200      1.0  0.99530  0.22540  0.17533  1.0000
  N   N35       1.0  0.96340  0.17291  0.35454  1.0000
  H   H201      1.0  0.85397  0.44604  0.31460  1.0000
  C   C230      1.0  0.87758  0.71861  0.36287  1.0000
  C   C231      1.0  0.90527  0.73757  0.36311  1.0000
  C   C232      1.0  0.91538  0.76544  0.35720  1.0000
  C   C233      1.0  0.89631  0.77405  0.35246  1.0000
  C   C234      1.0  0.86838  0.75626  0.35283  1.0000
  C   C235      1.0  0.85975  0.72860  0.35752  1.0000
  H   H202      1.0  0.90297  0.79400  0.34891  1.0000
  H   H203      1.0  0.91850  0.73086  0.36839  1.0000
  C   C236      1.0  0.94300  0.78441  0.35837  1.0000
  C   C237      1.0  0.84937  0.76484  0.34921  1.0000
  C   C238      1.0  0.86870  0.69127  0.37569  1.0000
  H   H204      1.0  0.87996  0.68667  0.41412  1.0000
  H   H205      1.0  0.94813  0.80351  0.36060  1.0000
  C   C239      1.0  0.86948  0.14951  0.36293  1.0000
  C   C240      1.0  0.86076  0.12182  0.36311  1.0000
  C   C241      1.0  0.87851  0.11171  0.35718  1.0000
  C   C242      1.0  0.90619  0.13079  0.35246  1.0000
  C   C243      1.0  0.91633  0.15871  0.35282  1.0000
  C   C244      1.0  0.89730  0.16734  0.35752  1.0000
  H   H206      1.0  0.91949  0.12413  0.34891  1.0000
  H   H207      1.0  0.90393  0.18732  0.35953  1.0000
  C   C245      1.0  0.86987  0.08410  0.35837  1.0000
  C   C246      1.0  0.94392  0.17772  0.34919  1.0000
  C   C247      1.0  0.85102  0.15839  0.37566  1.0000
  H   H208      1.0  0.94896  0.19673  0.34282  1.0000
  H   H209      1.0  0.88383  0.07896  0.36062  1.0000
  C   C248      1.0  0.84944  0.03611  0.52269  1.0000
  H   H210      1.0  0.85713  0.05747  0.52341  1.0000
  H   H211      1.0  0.86597  0.03266  0.53549  1.0000
  C   C249      1.0  0.98916  0.79591  0.35827  1.0000
  C   C250      1.0  0.00381  0.81163  0.43493  1.0000
  C   C251      1.0  0.99098  0.81196  0.52272  1.0000
  H   H212      1.0  0.96962  0.79831  0.52343  1.0000
  H   H213      1.0  0.99444  0.83196  0.53555  1.0000
  H   H214      1.0  0.99954  0.80633  0.57905  1.0000
  N   N36       1.0  0.96238  0.77940  0.35675  1.0000
  H   H215      1.0  0.84872  0.81507  0.48537  1.0000
  C   C252      1.0  0.00501  0.18971  0.42980  1.0000
  H   H216      1.0  0.99482  0.17839  0.48535  1.0000
