data_image0
_chemical_formula_structural       C4HNHC3H3C2H2C3H2CHN2CHNCNCN2C8H2C3H2CHC2H2C3H2CHC2H2C3H2CHC2H2C3H2CHC2H2C3H2CHC2H2C3H2CHC7H3NH2CHC7H3NH2CHC3H3C7H3NH2CHC7H3NH2CHC4HNHCHC7H3NH2CHC7H3NH2CHC7H3NH2CHC7H3NH2CHC7H3NH2CHC7H3NH2CHCNCN2CNCNCN4CNCN2CNCNCN4CNCNCN4CNCNCN5CNCN5CNCN5CNCN5CNCN5CNCN5CNCN4C7H3NH2CHC7H3NH2CHC7H3NH2CHC7H3NH2CHC7H3NH2CHC7H3NH2CHC2H2C3H2CHC2H2C3H2CHC3H2CHC2H2C3H2CHC2H2C3H2CHC2H2C2H2C3H2CHC2H2C3H2CHC2H2C3H2CHC2H2C3H2CHC2H2C3H2CHC2H2C3H2CH
_chemical_formula_sum              "C288 H198 N90"
_cell_length_a       74.4326
_cell_length_b       74.4326
_cell_length_c       14.9483
_cell_angle_alpha    90
_cell_angle_beta     90
_cell_angle_gamma    120

_space_group_name_H-M_alt    "P 1"
_space_group_IT_number       1

loop_
  _space_group_symop_operation_xyz
  'x, y, z'

loop_
  _atom_site_type_symbol
  _atom_site_label
  _atom_site_symmetry_multiplicity
  _atom_site_fract_x
  _atom_site_fract_y
  _atom_site_fract_z
  _atom_site_occupancy
  C   C1        1.0  0.05722  0.83690  0.31063  1.0000
  C   C2        1.0  0.04504  0.83363  0.23330  1.0000
  C   C3        1.0  0.02307  0.82177  0.23545  1.0000
  C   C4        1.0  0.01307  0.81292  0.31837  1.0000
  H   H1        1.0  0.05231  0.84049  0.17444  1.0000
  N   N1        1.0  0.01246  0.82001  0.15867  1.0000
  H   H2        1.0  0.01965  0.82643  0.10317  1.0000
  C   C5        1.0  0.00981  0.19244  0.32828  1.0000
  C   C6        1.0  0.02271  0.21230  0.29114  1.0000
  C   C7        1.0  0.04449  0.22171  0.29616  1.0000
  H   H3        1.0  0.01633  0.21985  0.25835  1.0000
  H   H4        1.0  0.05334  0.23587  0.26647  1.0000
  H   H5        1.0  0.00352  0.18228  0.15667  1.0000
  C   C8        1.0  0.02529  0.81606  0.39560  1.0000
  C   C9        1.0  0.04707  0.82781  0.39182  1.0000
  H   H6        1.0  0.01839  0.81017  0.45610  1.0000
  H   H7        1.0  0.05539  0.83034  0.44961  1.0000
  C   C10       1.0  0.05399  0.21152  0.33832  1.0000
  C   C11       1.0  0.04091  0.19174  0.37649  1.0000
  C   C12       1.0  0.01918  0.18237  0.37186  1.0000
  H   H8        1.0  0.04710  0.18375  0.40713  1.0000
  H   H9        1.0  0.01025  0.16784  0.39831  1.0000
  C   C13       1.0  0.07841  0.85046  0.30755  1.0000
  H   H10       1.0  0.08340  0.86433  0.27992  1.0000
  N   N2        1.0  0.08846  0.23931  0.33264  1.0000
  N   N3        1.0  0.09155  0.84531  0.33575  1.0000
  C   C14       1.0  0.07542  0.21977  0.34005  1.0000
  H   H11       1.0  0.08084  0.21008  0.34889  1.0000
  N   N4        1.0  0.11945  0.27031  0.33534  1.0000
  C   C15       1.0  0.10906  0.24925  0.33385  1.0000
  N   N5        1.0  0.12024  0.23932  0.33402  1.0000
  C   C16       1.0  0.11211  0.85659  0.33614  1.0000
  N   N6        1.0  0.12323  0.84668  0.33883  1.0000
  N   N7        1.0  0.12255  0.87770  0.33402  1.0000
  C   C17       1.0  0.28371  0.53354  0.32524  1.0000
  C   C18       1.0  0.46438  0.74461  0.32508  1.0000
  C   C19       1.0  0.25325  0.71420  0.32501  1.0000
  C   C20       1.0  0.71720  0.46141  0.32508  1.0000
  C   C21       1.0  0.53654  0.25028  0.32527  1.0000
  C   C22       1.0  0.74761  0.28069  0.32515  1.0000
  C   C23       1.0  0.18380  0.36775  0.27099  1.0000
  C   C24       1.0  0.17590  0.34622  0.27448  1.0000
  H   H12       1.0  0.18473  0.37442  0.20994  1.0000
  H   H13       1.0  0.17130  0.33783  0.21630  1.0000
  C   C25       1.0  0.21618  0.44585  0.32343  1.0000
  C   C26       1.0  0.19541  0.43168  0.29879  1.0000
  C   C27       1.0  0.18715  0.41012  0.30660  1.0000
  H   H14       1.0  0.18593  0.43693  0.27536  1.0000
  H   H15       1.0  0.17199  0.40041  0.28922  1.0000
  C   C28       1.0  0.22358  0.46713  0.31781  1.0000
  H   H16       1.0  0.21338  0.47190  0.30839  1.0000
  C   C29       1.0  0.63017  0.81056  0.27100  1.0000
  C   C30       1.0  0.65170  0.82419  0.27444  1.0000
  H   H17       1.0  0.62349  0.80483  0.20996  1.0000
  H   H18       1.0  0.66007  0.82798  0.21622  1.0000
  C   C31       1.0  0.55208  0.76480  0.32359  1.0000
  C   C32       1.0  0.56626  0.75820  0.29901  1.0000
  C   C33       1.0  0.58782  0.77151  0.30676  1.0000
  H   H19       1.0  0.56101  0.74346  0.27562  1.0000
  H   H20       1.0  0.59753  0.76606  0.28946  1.0000
  C   C34       1.0  0.53080  0.75092  0.31793  1.0000
  H   H21       1.0  0.52604  0.73596  0.30839  1.0000
  C   C35       1.0  0.18739  0.81410  0.27105  1.0000
  C   C36       1.0  0.17376  0.82201  0.27453  1.0000
  H   H22       1.0  0.19310  0.81314  0.20999  1.0000
  H   H23       1.0  0.16995  0.82657  0.21631  1.0000
  C   C37       1.0  0.23313  0.78175  0.32354  1.0000
  C   C38       1.0  0.23974  0.80253  0.29892  1.0000
  C   C39       1.0  0.22643  0.81078  0.30672  1.0000
  H   H24       1.0  0.25447  0.81201  0.27554  1.0000
  H   H25       1.0  0.23189  0.82595  0.28940  1.0000
  C   C40       1.0  0.24700  0.77435  0.31791  1.0000
  H   H26       1.0  0.26197  0.78455  0.30856  1.0000
  C   C41       1.0  0.81713  0.62719  0.27099  1.0000
  C   C42       1.0  0.82504  0.64872  0.27446  1.0000
  H   H27       1.0  0.81618  0.62051  0.20994  1.0000
  H   H28       1.0  0.82961  0.65709  0.21625  1.0000
  C   C43       1.0  0.78475  0.54909  0.32347  1.0000
  C   C44       1.0  0.80553  0.56325  0.29886  1.0000
  C   C45       1.0  0.81378  0.58482  0.30664  1.0000
  H   H29       1.0  0.81501  0.55800  0.27546  1.0000
  H   H30       1.0  0.82895  0.59452  0.28931  1.0000
  C   C46       1.0  0.77735  0.52781  0.31788  1.0000
  H   H31       1.0  0.78755  0.52304  0.30856  1.0000
  C   C47       1.0  0.37075  0.18443  0.27092  1.0000
  C   C48       1.0  0.34922  0.17079  0.27439  1.0000
  H   H32       1.0  0.37742  0.19016  0.20989  1.0000
  H   H33       1.0  0.34084  0.16702  0.21620  1.0000
  C   C49       1.0  0.44885  0.23013  0.32342  1.0000
  C   C50       1.0  0.43468  0.23674  0.29880  1.0000
  C   C51       1.0  0.41312  0.22343  0.30660  1.0000
  H   H34       1.0  0.43993  0.25147  0.27538  1.0000
  H   H35       1.0  0.40341  0.22889  0.28922  1.0000
  C   C52       1.0  0.47013  0.24401  0.31781  1.0000
  H   H36       1.0  0.47490  0.25898  0.30840  1.0000
  C   C53       1.0  0.81355  0.18084  0.27095  1.0000
  C   C54       1.0  0.82718  0.17295  0.27437  1.0000
  H   H37       1.0  0.80782  0.18179  0.20992  1.0000
  H   H38       1.0  0.83098  0.16837  0.21614  1.0000
  C   C55       1.0  0.76779  0.21317  0.32360  1.0000
  C   C56       1.0  0.76119  0.19239  0.29901  1.0000
  C   C57       1.0  0.77451  0.18415  0.30675  1.0000
  H   H39       1.0  0.74646  0.18291  0.27562  1.0000
  H   H40       1.0  0.76905  0.16898  0.28944  1.0000
  C   C58       1.0  0.75392  0.22057  0.31794  1.0000
  H   H41       1.0  0.73895  0.21037  0.30839  1.0000
  C   C59       1.0  0.16105  0.21481  0.31059  1.0000
  C   C60       1.0  0.16432  0.20590  0.23326  1.0000
  C   C61       1.0  0.17619  0.19580  0.23539  1.0000
  C   C62       1.0  0.18506  0.19466  0.31828  1.0000
  C   C63       1.0  0.19545  0.18311  0.32825  1.0000
  C   C64       1.0  0.21533  0.19008  0.29120  1.0000
  C   C65       1.0  0.22473  0.17771  0.29626  1.0000
  H   H42       1.0  0.22290  0.20403  0.25860  1.0000
  H   H43       1.0  0.23891  0.18304  0.26670  1.0000
  H   H44       1.0  0.15743  0.20628  0.17443  1.0000
  N   N8        1.0  0.17795  0.18694  0.15863  1.0000
  H   H45       1.0  0.17154  0.18773  0.10310  1.0000
  H   H46       1.0  0.18536  0.17931  0.15655  1.0000
  C   C66       1.0  0.14748  0.22243  0.30757  1.0000
  H   H47       1.0  0.13360  0.21353  0.28003  1.0000
  C   C67       1.0  0.78315  0.94071  0.31065  1.0000
  C   C68       1.0  0.79210  0.95289  0.23335  1.0000
  C   C69       1.0  0.80220  0.97486  0.23547  1.0000
  C   C70       1.0  0.80329  0.98486  0.31830  1.0000
  C   C71       1.0  0.81484  0.00681  0.32826  1.0000
  C   C72       1.0  0.80788  0.01971  0.29105  1.0000
  C   C73       1.0  0.82025  0.04149  0.29607  1.0000
  H   H48       1.0  0.79396  0.01333  0.25821  1.0000
  H   H49       1.0  0.81494  0.05033  0.26633  1.0000
  H   H50       1.0  0.79175  0.94563  0.17455  1.0000
  N   N9        1.0  0.81110  0.98548  0.15875  1.0000
  H   H51       1.0  0.81036  0.97828  0.10327  1.0000
  H   H52       1.0  0.81874  0.00052  0.15669  1.0000
  C   C74       1.0  0.77552  0.91952  0.30763  1.0000
  H   H53       1.0  0.78442  0.91453  0.28014  1.0000
  C   C75       1.0  0.99112  0.80252  0.32831  1.0000
  C   C76       1.0  0.97822  0.78265  0.29121  1.0000
  C   C77       1.0  0.95645  0.77325  0.29621  1.0000
  H   H54       1.0  0.98461  0.77510  0.25850  1.0000
  H   H55       1.0  0.94760  0.75907  0.26660  1.0000
  H   H56       1.0  0.99741  0.81264  0.15665  1.0000
  C   C78       1.0  0.83989  0.78014  0.31056  1.0000
  C   C79       1.0  0.83659  0.78901  0.23318  1.0000
  C   C80       1.0  0.82472  0.79911  0.23530  1.0000
  C   C81       1.0  0.81587  0.80027  0.31821  1.0000
  C   C82       1.0  0.80548  0.81182  0.32815  1.0000
  C   C83       1.0  0.78559  0.80484  0.29119  1.0000
  C   C84       1.0  0.77619  0.81722  0.29618  1.0000
  H   H57       1.0  0.77801  0.79089  0.25865  1.0000
  H   H58       1.0  0.76200  0.81187  0.26676  1.0000
  H   H59       1.0  0.84346  0.78862  0.17433  1.0000
  N   N10       1.0  0.82293  0.80794  0.15849  1.0000
  H   H60       1.0  0.82933  0.80714  0.10295  1.0000
  H   H61       1.0  0.81551  0.81557  0.15640  1.0000
  C   C85       1.0  0.85345  0.77251  0.30755  1.0000
  H   H62       1.0  0.86731  0.78138  0.27978  1.0000
  C   C86       1.0  0.21779  0.05423  0.31059  1.0000
  C   C87       1.0  0.20888  0.04205  0.23326  1.0000
  C   C88       1.0  0.19878  0.02008  0.23539  1.0000
  C   C89       1.0  0.19765  0.01007  0.31828  1.0000
  C   C90       1.0  0.18610  0.98813  0.32823  1.0000
  C   C91       1.0  0.19306  0.97522  0.29116  1.0000
  C   C92       1.0  0.18070  0.95345  0.29621  1.0000
  H   H63       1.0  0.20701  0.98160  0.25856  1.0000
  H   H64       1.0  0.18602  0.94460  0.26663  1.0000
  H   H65       1.0  0.20926  0.04931  0.17443  1.0000
  N   N11       1.0  0.18992  0.00946  0.15863  1.0000
  H   H66       1.0  0.19070  0.01666  0.10311  1.0000
  H   H67       1.0  0.18229  0.99442  0.15655  1.0000
  C   C93       1.0  0.22542  0.07542  0.30758  1.0000
  H   H68       1.0  0.21652  0.08040  0.28007  1.0000
  C   C94       1.0  0.94371  0.15803  0.31068  1.0000
  C   C95       1.0  0.95589  0.16127  0.23336  1.0000
  C   C96       1.0  0.97786  0.17314  0.23548  1.0000
  C   C97       1.0  0.98787  0.18204  0.31832  1.0000
  H   H69       1.0  0.94863  0.15437  0.17455  1.0000
  N   N12       1.0  0.98847  0.17488  0.15873  1.0000
  H   H70       1.0  0.98128  0.16843  0.10325  1.0000
  C   C98       1.0  0.92252  0.14446  0.30767  1.0000
  H   H71       1.0  0.91754  0.13058  0.28011  1.0000
  C   C99       1.0  0.22197  0.55858  0.31134  1.0000
  C   C100      1.0  0.23009  0.57296  0.24009  1.0000
  C   C101      1.0  0.23158  0.59268  0.24488  1.0000
  C   C102      1.0  0.22412  0.59781  0.32321  1.0000
  C   C103      1.0  0.22834  0.61836  0.34051  1.0000
  C   C104      1.0  0.21920  0.62778  0.29008  1.0000
  C   C105      1.0  0.22588  0.64904  0.30066  1.0000
  H   H72       1.0  0.20841  0.61947  0.24196  1.0000
  H   H73       1.0  0.21977  0.65560  0.25943  1.0000
  H   H74       1.0  0.23627  0.56951  0.18587  1.0000
  N   N13       1.0  0.24116  0.60622  0.17631  1.0000
  H   H75       1.0  0.24644  0.60240  0.12446  1.0000
  H   H76       1.0  0.24343  0.62023  0.17706  1.0000
  C   C106      1.0  0.22446  0.54137  0.31296  1.0000
  H   H77       1.0  0.21256  0.52736  0.32621  1.0000
  C   C107      1.0  0.43933  0.65787  0.31143  1.0000
  C   C108      1.0  0.42497  0.65156  0.24009  1.0000
  C   C109      1.0  0.40524  0.63334  0.24502  1.0000
  C   C110      1.0  0.40010  0.62078  0.32344  1.0000
  C   C111      1.0  0.37956  0.60445  0.34082  1.0000
  C   C112      1.0  0.37014  0.58588  0.29049  1.0000
  C   C113      1.0  0.34888  0.57131  0.30106  1.0000
  H   H78       1.0  0.37846  0.58337  0.24257  1.0000
  H   H79       1.0  0.34233  0.55860  0.26003  1.0000
  H   H80       1.0  0.42842  0.66116  0.18580  1.0000
  N   N14       1.0  0.39170  0.62934  0.17639  1.0000
  H   H81       1.0  0.39554  0.63840  0.12439  1.0000
  H   H82       1.0  0.37770  0.61759  0.17715  1.0000
  C   C114      1.0  0.45659  0.67755  0.31281  1.0000
  H   H83       1.0  0.47051  0.67967  0.32815  1.0000
  C   C115      1.0  0.34004  0.77592  0.31140  1.0000
  C   C116      1.0  0.34633  0.76785  0.24004  1.0000
  C   C117      1.0  0.36456  0.76637  0.24478  1.0000
  C   C118      1.0  0.37713  0.77376  0.32317  1.0000
  C   C119      1.0  0.39345  0.76952  0.34048  1.0000
  C   C120      1.0  0.41203  0.77869  0.29025  1.0000
  C   C121      1.0  0.42661  0.77201  0.30088  1.0000
  H   H84       1.0  0.41457  0.78956  0.24249  1.0000
  H   H85       1.0  0.43931  0.77816  0.25982  1.0000
  H   H86       1.0  0.33673  0.76172  0.18575  1.0000
  N   N15       1.0  0.36855  0.75685  0.17603  1.0000
  H   H87       1.0  0.35949  0.75164  0.12405  1.0000
  H   H88       1.0  0.38032  0.75462  0.17665  1.0000
  C   C122      1.0  0.32034  0.77343  0.31309  1.0000
  H   H89       1.0  0.31825  0.78532  0.32674  1.0000
  C   C123      1.0  0.77890  0.43633  0.31145  1.0000
  C   C124      1.0  0.77083  0.42198  0.24006  1.0000
  C   C125      1.0  0.76934  0.40226  0.24480  1.0000
  C   C126      1.0  0.77676  0.39709  0.32315  1.0000
  C   C127      1.0  0.77250  0.37653  0.34044  1.0000
  C   C128      1.0  0.78168  0.36712  0.29020  1.0000
  C   C129      1.0  0.77499  0.34586  0.30077  1.0000
  H   H90       1.0  0.79249  0.37543  0.24220  1.0000
  H   H91       1.0  0.78111  0.33930  0.25960  1.0000
  H   H92       1.0  0.76470  0.42545  0.18579  1.0000
  N   N16       1.0  0.75982  0.38875  0.17605  1.0000
  H   H93       1.0  0.75459  0.39260  0.12413  1.0000
  H   H94       1.0  0.75757  0.37475  0.17669  1.0000
  C   C130      1.0  0.77642  0.45355  0.31308  1.0000
  H   H95       1.0  0.78832  0.46754  0.32666  1.0000
  C   C131      1.0  0.56158  0.33706  0.31135  1.0000
  C   C132      1.0  0.57597  0.34332  0.24011  1.0000
  C   C133      1.0  0.59568  0.36156  0.24492  1.0000
  C   C134      1.0  0.60081  0.37415  0.32325  1.0000
  C   C135      1.0  0.62136  0.39048  0.34056  1.0000
  C   C136      1.0  0.63078  0.40903  0.29012  1.0000
  C   C137      1.0  0.65204  0.42362  0.30072  1.0000
  H   H96       1.0  0.62248  0.41151  0.24198  1.0000
  H   H97       1.0  0.65860  0.43629  0.25948  1.0000
  H   H98       1.0  0.57252  0.33371  0.18590  1.0000
  N   N17       1.0  0.60923  0.36552  0.17637  1.0000
  H   H99       1.0  0.60541  0.35642  0.12451  1.0000
  H   H100      1.0  0.62325  0.37726  0.17714  1.0000
  C   C138      1.0  0.54437  0.31736  0.31294  1.0000
  H   H101      1.0  0.53037  0.31527  0.32638  1.0000
  C   C139      1.0  0.66088  0.21901  0.31141  1.0000
  C   C140      1.0  0.65455  0.22704  0.24004  1.0000
  C   C141      1.0  0.63633  0.22855  0.24500  1.0000
  C   C142      1.0  0.62379  0.22115  0.32346  1.0000
  C   C143      1.0  0.60746  0.22537  0.34084  1.0000
  C   C144      1.0  0.58888  0.21620  0.29059  1.0000
  C   C145      1.0  0.57430  0.22288  0.30118  1.0000
  H   H102      1.0  0.58636  0.20535  0.24273  1.0000
  H   H103      1.0  0.56158  0.21671  0.26022  1.0000
  H   H104      1.0  0.66413  0.23316  0.18571  1.0000
  N   N18       1.0  0.63232  0.23806  0.17631  1.0000
  H   H105      1.0  0.64137  0.24327  0.12427  1.0000
  H   H106      1.0  0.62057  0.24032  0.17708  1.0000
  C   C146      1.0  0.68056  0.22143  0.31275  1.0000
  H   H107      1.0  0.68266  0.20963  0.32830  1.0000
  C   C147      1.0  0.14135  0.25000  0.33611  1.0000
  N   N19       1.0  0.15126  0.27103  0.33878  1.0000
  C   C148      1.0  0.14050  0.28140  0.33838  1.0000
  N   N20       1.0  0.15263  0.24072  0.33569  1.0000
  N   N21       1.0  0.14961  0.30192  0.33863  1.0000
  C   C149      1.0  0.74794  0.88582  0.33606  1.0000
  N   N22       1.0  0.72691  0.87471  0.33869  1.0000
  C   C150      1.0  0.71653  0.85357  0.33826  1.0000
  N   N23       1.0  0.72761  0.84360  0.33521  1.0000
  C   C151      1.0  0.74867  0.85427  0.33375  1.0000
  N   N24       1.0  0.75861  0.87538  0.33396  1.0000
  N   N25       1.0  0.75722  0.90638  0.33566  1.0000
  N   N26       1.0  0.75861  0.84361  0.33252  1.0000
  N   N27       1.0  0.69601  0.84218  0.33844  1.0000
  C   C152      1.0  0.14437  0.85744  0.33841  1.0000
  N   N28       1.0  0.15433  0.87849  0.33533  1.0000
  C   C153      1.0  0.14366  0.88888  0.33383  1.0000
  N   N29       1.0  0.15432  0.90948  0.33259  1.0000
  N   N30       1.0  0.15577  0.84833  0.33867  1.0000
  C   C154      1.0  0.85959  0.74495  0.33610  1.0000
  N   N31       1.0  0.84967  0.72391  0.33875  1.0000
  C   C155      1.0  0.86043  0.71354  0.33830  1.0000
  N   N32       1.0  0.88149  0.72463  0.33525  1.0000
  C   C156      1.0  0.89187  0.74569  0.33380  1.0000
  N   N33       1.0  0.88070  0.75562  0.33401  1.0000
  N   N34       1.0  0.84831  0.75423  0.33575  1.0000
  N   N35       1.0  0.91247  0.75563  0.33260  1.0000
  N   N36       1.0  0.85132  0.69302  0.33851  1.0000
  C   C157      1.0  0.25299  0.10912  0.33606  1.0000
  N   N37       1.0  0.27403  0.12024  0.33867  1.0000
  C   C158      1.0  0.28440  0.14137  0.33822  1.0000
  N   N38       1.0  0.27331  0.15133  0.33522  1.0000
  C   C159      1.0  0.25225  0.14066  0.33379  1.0000
  N   N39       1.0  0.24232  0.11956  0.33398  1.0000
  N   N40       1.0  0.24371  0.08856  0.33565  1.0000
  N   N41       1.0  0.24232  0.15133  0.33259  1.0000
  N   N42       1.0  0.30492  0.15277  0.33844  1.0000
  C   C160      1.0  0.88882  0.13834  0.33605  1.0000
  N   N43       1.0  0.87771  0.14826  0.33864  1.0000
  C   C161      1.0  0.85658  0.13751  0.33817  1.0000
  N   N44       1.0  0.84661  0.11645  0.33517  1.0000
  C   C162      1.0  0.85727  0.10606  0.33376  1.0000
  N   N45       1.0  0.87838  0.11723  0.33398  1.0000
  N   N46       1.0  0.90938  0.14962  0.33569  1.0000
  N   N47       1.0  0.84661  0.08546  0.33256  1.0000
  N   N48       1.0  0.84518  0.14663  0.33836  1.0000
  N   N49       1.0  0.27330  0.51245  0.32611  1.0000
  C   C163      1.0  0.25220  0.50143  0.32135  1.0000
  N   N50       1.0  0.24147  0.51183  0.31546  1.0000
  C   C164      1.0  0.25165  0.53290  0.31318  1.0000
  N   N51       1.0  0.27256  0.54337  0.31784  1.0000
  N   N52       1.0  0.30432  0.54457  0.32953  1.0000
  N   N53       1.0  0.24305  0.54458  0.30831  1.0000
  N   N54       1.0  0.24294  0.48088  0.32444  1.0000
  N   N55       1.0  0.48547  0.75529  0.32619  1.0000
  C   C165      1.0  0.49651  0.74523  0.32140  1.0000
  N   N56       1.0  0.48611  0.72409  0.31524  1.0000
  C   C166      1.0  0.46505  0.71320  0.31274  1.0000
  N   N57       1.0  0.45457  0.72363  0.31740  1.0000
  N   N58       1.0  0.45333  0.75417  0.32943  1.0000
  N   N59       1.0  0.45338  0.69292  0.30742  1.0000
  N   N60       1.0  0.51705  0.75652  0.32460  1.0000
  N   N61       1.0  0.24258  0.72462  0.32596  1.0000
  C   C167      1.0  0.25267  0.74572  0.32128  1.0000
  N   N62       1.0  0.27381  0.75645  0.31541  1.0000
  C   C168      1.0  0.28469  0.74626  0.31304  1.0000
  N   N63       1.0  0.27423  0.72534  0.31761  1.0000
  N   N64       1.0  0.24368  0.69359  0.32925  1.0000
  N   N65       1.0  0.30497  0.75485  0.30815  1.0000
  N   N66       1.0  0.24139  0.75499  0.32443  1.0000
  N   N67       1.0  0.72762  0.48250  0.32598  1.0000
  C   C169      1.0  0.74872  0.49352  0.32128  1.0000
  N   N68       1.0  0.75944  0.48310  0.31541  1.0000
  C   C170      1.0  0.74925  0.46204  0.31308  1.0000
  N   N69       1.0  0.72834  0.45158  0.31768  1.0000
  N   N70       1.0  0.69659  0.45038  0.32932  1.0000
  N   N71       1.0  0.75785  0.45034  0.30820  1.0000
  N   N72       1.0  0.75799  0.51406  0.32440  1.0000
  N   N73       1.0  0.51545  0.23961  0.32613  1.0000
  C   C171      1.0  0.50442  0.24969  0.32135  1.0000
  N   N74       1.0  0.51484  0.27082  0.31546  1.0000
  C   C172      1.0  0.53590  0.28171  0.31321  1.0000
  N   N75       1.0  0.54637  0.27126  0.31786  1.0000
  N   N76       1.0  0.54758  0.24071  0.32957  1.0000
  N   N77       1.0  0.54758  0.30199  0.30826  1.0000
  N   N78       1.0  0.48388  0.23840  0.32444  1.0000
  N   N79       1.0  0.75829  0.27028  0.32626  1.0000
  C   C173      1.0  0.74822  0.24918  0.32143  1.0000
  N   N80       1.0  0.72709  0.23844  0.31523  1.0000
  C   C174      1.0  0.71620  0.24862  0.31274  1.0000
  N   N81       1.0  0.72664  0.26953  0.31742  1.0000
  N   N82       1.0  0.75718  0.30129  0.32955  1.0000
  N   N83       1.0  0.69592  0.24000  0.30732  1.0000
  N   N84       1.0  0.75952  0.23993  0.32464  1.0000
  C   C175      1.0  0.17496  0.33643  0.35649  1.0000
  C   C176      1.0  0.18191  0.34864  0.43477  1.0000
  C   C177      1.0  0.18956  0.37033  0.43301  1.0000
  C   C178      1.0  0.19086  0.38011  0.34919  1.0000
  C   C179      1.0  0.19936  0.40196  0.34008  1.0000
  C   C180      1.0  0.22022  0.41599  0.36319  1.0000
  C   C181      1.0  0.22846  0.43757  0.35540  1.0000
  H   H108      1.0  0.22955  0.41057  0.38674  1.0000
  H   H109      1.0  0.24353  0.44717  0.37442  1.0000
  H   H110      1.0  0.18113  0.34155  0.49460  1.0000
  N   N85       1.0  0.19489  0.38082  0.51210  1.0000
  H   H111      1.0  0.19336  0.37369  0.56862  1.0000
  H   H112      1.0  0.19889  0.39537  0.51575  1.0000
  C   C182      1.0  0.16830  0.31548  0.36009  1.0000
  H   H113      1.0  0.17812  0.31110  0.38238  1.0000
  C   C183      1.0  0.66150  0.83302  0.35643  1.0000
  C   C184      1.0  0.64931  0.82774  0.43477  1.0000
  C   C185      1.0  0.62762  0.81369  0.43306  1.0000
  C   C186      1.0  0.61783  0.80524  0.34926  1.0000
  C   C187      1.0  0.59598  0.79188  0.34021  1.0000
  C   C188      1.0  0.58195  0.79871  0.36329  1.0000
  C   C189      1.0  0.56037  0.78537  0.35552  1.0000
  H   H114      1.0  0.58736  0.81346  0.38677  1.0000
  H   H115      1.0  0.55076  0.79084  0.37446  1.0000
  H   H116      1.0  0.65641  0.83403  0.49460  1.0000
  N   N86       1.0  0.61715  0.80852  0.51219  1.0000
  H   H117      1.0  0.62425  0.81420  0.56868  1.0000
  H   H118      1.0  0.60256  0.79807  0.51588  1.0000
  C   C190      1.0  0.68246  0.84732  0.35996  1.0000
  H   H119      1.0  0.68685  0.86150  0.38250  1.0000
  C   C191      1.0  0.16494  0.82299  0.35655  1.0000
  C   C192      1.0  0.17023  0.81607  0.43487  1.0000
  C   C193      1.0  0.18427  0.80842  0.43312  1.0000
  C   C194      1.0  0.19271  0.80708  0.34928  1.0000
  C   C195      1.0  0.20606  0.79858  0.34019  1.0000
  C   C196      1.0  0.19923  0.77772  0.36329  1.0000
  C   C197      1.0  0.21255  0.76947  0.35548  1.0000
  H   H120      1.0  0.18448  0.76839  0.38680  1.0000
  H   H121      1.0  0.20709  0.75440  0.37448  1.0000
  H   H122      1.0  0.16394  0.81688  0.49471  1.0000
  N   N87       1.0  0.18946  0.80313  0.51223  1.0000
  H   H123      1.0  0.18379  0.80457  0.56873  1.0000
  H   H124      1.0  0.19991  0.79899  0.51588  1.0000
  C   C198      1.0  0.15064  0.82964  0.36012  1.0000
  H   H125      1.0  0.13644  0.81981  0.38240  1.0000
  C   C199      1.0  0.82599  0.65851  0.35646  1.0000
  C   C200      1.0  0.81905  0.64631  0.43477  1.0000
  C   C201      1.0  0.81141  0.62462  0.43303  1.0000
  C   C202      1.0  0.81009  0.61483  0.34921  1.0000
  C   C203      1.0  0.80158  0.59298  0.34012  1.0000
  C   C204      1.0  0.78072  0.57896  0.36322  1.0000
  C   C205      1.0  0.77247  0.55738  0.35543  1.0000
  H   H126      1.0  0.77140  0.58438  0.38678  1.0000
  H   H127      1.0  0.75740  0.54778  0.37446  1.0000
  H   H128      1.0  0.81984  0.65340  0.49460  1.0000
  N   N88       1.0  0.80609  0.61413  0.51212  1.0000
  H   H129      1.0  0.80757  0.62125  0.56862  1.0000
  H   H130      1.0  0.80202  0.59957  0.51581  1.0000
  C   C206      1.0  0.83263  0.67946  0.36002  1.0000
  H   H131      1.0  0.82283  0.68385  0.38250  1.0000
  C   C207      1.0  0.33943  0.16194  0.35638  1.0000
  C   C208      1.0  0.35164  0.16719  0.43467  1.0000
  C   C209      1.0  0.37333  0.18123  0.43294  1.0000
  C   C210      1.0  0.38311  0.18971  0.34913  1.0000
  C   C211      1.0  0.40496  0.20307  0.34005  1.0000
  C   C212      1.0  0.41898  0.19623  0.36315  1.0000
  C   C213      1.0  0.44056  0.20956  0.35538  1.0000
  H   H132      1.0  0.41357  0.18148  0.38668  1.0000
  H   H133      1.0  0.45016  0.20410  0.37438  1.0000
  H   H134      1.0  0.34454  0.16087  0.49449  1.0000
  N   N89       1.0  0.38381  0.18638  0.51204  1.0000
  H   H135      1.0  0.37668  0.18078  0.56854  1.0000
  H   H136      1.0  0.39836  0.19693  0.51572  1.0000
  C   C214      1.0  0.31848  0.14763  0.35993  1.0000
  H   H137      1.0  0.31409  0.13344  0.38236  1.0000
  C   C215      1.0  0.83602  0.17197  0.35636  1.0000
  C   C216      1.0  0.83074  0.17889  0.43470  1.0000
  C   C217      1.0  0.81669  0.18653  0.43302  1.0000
  C   C218      1.0  0.80823  0.18786  0.34922  1.0000
  C   C219      1.0  0.79487  0.19636  0.34019  1.0000
  C   C220      1.0  0.80171  0.21722  0.36328  1.0000
  C   C221      1.0  0.78837  0.22546  0.35552  1.0000
  H   H138      1.0  0.81646  0.22655  0.38676  1.0000
  H   H139      1.0  0.79383  0.24053  0.37446  1.0000
  H   H140      1.0  0.83703  0.17807  0.49453  1.0000
  N   N90       1.0  0.81152  0.19182  0.51216  1.0000
  H   H141      1.0  0.81720  0.19039  0.56863  1.0000
  H   H142      1.0  0.80107  0.19596  0.51585  1.0000
  C   C222      1.0  0.85032  0.16532  0.35986  1.0000
  H   H143      1.0  0.86451  0.17512  0.38236  1.0000
  C   C223      1.0  0.18191  0.20374  0.39552  1.0000
  C   C224      1.0  0.17016  0.21377  0.39174  1.0000
  H   H144      1.0  0.18781  0.20273  0.45602  1.0000
  H   H145      1.0  0.16761  0.21954  0.44957  1.0000
  C   C225      1.0  0.21452  0.15800  0.33826  1.0000
  C   C226      1.0  0.19473  0.15130  0.37632  1.0000
  C   C227      1.0  0.18536  0.16366  0.37167  1.0000
  H   H146      1.0  0.18672  0.13711  0.40681  1.0000
  H   H147      1.0  0.17083  0.15805  0.39802  1.0000
  C   C228      1.0  0.22278  0.14483  0.34004  1.0000
  H   H148      1.0  0.21308  0.12972  0.34887  1.0000
  C   C229      1.0  0.79417  0.97264  0.39549  1.0000
  C   C230      1.0  0.78414  0.95086  0.39174  1.0000
  H   H149      1.0  0.79515  0.97955  0.45597  1.0000
  H   H150      1.0  0.77834  0.94255  0.44954  1.0000
  C   C231      1.0  0.83993  0.05099  0.33832  1.0000
  C   C232      1.0  0.84662  0.03791  0.37656  1.0000
  C   C233      1.0  0.83426  0.01618  0.37192  1.0000
  H   H151      1.0  0.86079  0.04410  0.40725  1.0000
  H   H152      1.0  0.83985  0.00725  0.39842  1.0000
  C   C234      1.0  0.85310  0.07241  0.34003  1.0000
  H   H153      1.0  0.86822  0.07783  0.34893  1.0000
  C   C235      1.0  0.94694  0.78344  0.33830  1.0000
  C   C236      1.0  0.96002  0.80322  0.37644  1.0000
  C   C237      1.0  0.98175  0.81259  0.37178  1.0000
  H   H154      1.0  0.95383  0.81121  0.40708  1.0000
  H   H155      1.0  0.99068  0.82712  0.39828  1.0000
  C   C238      1.0  0.92551  0.77517  0.34010  1.0000
  H   H156      1.0  0.92009  0.78486  0.34898  1.0000
  C   C239      1.0  0.81903  0.79121  0.39547  1.0000
  C   C240      1.0  0.83079  0.78120  0.39174  1.0000
  H   H157      1.0  0.81314  0.79223  0.45598  1.0000
  H   H158      1.0  0.83334  0.77543  0.44955  1.0000
  C   C241      1.0  0.78641  0.83693  0.33814  1.0000
  C   C242      1.0  0.80621  0.84365  0.37609  1.0000
  C   C243      1.0  0.81557  0.83128  0.37149  1.0000
  H   H159      1.0  0.81422  0.85784  0.40658  1.0000
  H   H160      1.0  0.83012  0.83689  0.39776  1.0000
  C   C244      1.0  0.77815  0.85010  0.33993  1.0000
  H   H161      1.0  0.78784  0.86521  0.34875  1.0000
  C   C245      1.0  0.20673  0.02230  0.39551  1.0000
  C   C246      1.0  0.21676  0.04408  0.39174  1.0000
  H   H162      1.0  0.20572  0.01539  0.45601  1.0000
  H   H163      1.0  0.22253  0.05239  0.44956  1.0000
  C   C247      1.0  0.16099  0.94395  0.33821  1.0000
  C   C248      1.0  0.15428  0.95703  0.37629  1.0000
  C   C249      1.0  0.16665  0.97876  0.37165  1.0000
  H   H164      1.0  0.14009  0.95085  0.40679  1.0000
  H   H165      1.0  0.16104  0.98769  0.39802  1.0000
  C   C250      1.0  0.14782  0.92252  0.33997  1.0000
  H   H166      1.0  0.13270  0.91710  0.34881  1.0000
  C   C251      1.0  0.97565  0.17893  0.39554  1.0000
  C   C252      1.0  0.95387  0.16717  0.39179  1.0000
  H   H167      1.0  0.98255  0.18484  0.45602  1.0000
  H   H168      1.0  0.94555  0.16464  0.44960  1.0000
  C   C253      1.0  0.21520  0.58302  0.39279  1.0000
  C   C254      1.0  0.21409  0.56364  0.38699  1.0000
  H   H169      1.0  0.21037  0.58665  0.45072  1.0000
  H   H170      1.0  0.20872  0.55386  0.44094  1.0000
  C   C255      1.0  0.24173  0.66139  0.36254  1.0000
  C   C256      1.0  0.25009  0.65156  0.41558  1.0000
  C   C257      1.0  0.24356  0.63044  0.40469  1.0000
  H   H171      1.0  0.26184  0.65993  0.46007  1.0000
  H   H172      1.0  0.25079  0.62421  0.44105  1.0000
  C   C258      1.0  0.25101  0.68291  0.36597  1.0000
  H   H173      1.0  0.26488  0.69061  0.39538  1.0000
  C   C259      1.0  0.41488  0.62670  0.39311  1.0000
  C   C260      1.0  0.43426  0.64496  0.38723  1.0000
  H   H174      1.0  0.41125  0.61826  0.45113  1.0000
  H   H175      1.0  0.44403  0.64940  0.44122  1.0000
  C   C261      1.0  0.33652  0.57482  0.36280  1.0000
  C   C262      1.0  0.34633  0.59305  0.41565  1.0000
  C   C263      1.0  0.36747  0.60762  0.40487  1.0000
  H   H176      1.0  0.33796  0.59646  0.45997  1.0000
  H   H177      1.0  0.37369  0.62112  0.44096  1.0000
  C   C264      1.0  0.31500  0.56260  0.36618  1.0000
  H   H178      1.0  0.30730  0.56878  0.39550  1.0000
  C   C265      1.0  0.37121  0.78260  0.39296  1.0000
  C   C266      1.0  0.35296  0.78374  0.38717  1.0000
  H   H179      1.0  0.37964  0.78736  0.45100  1.0000
  H   H180      1.0  0.34851  0.78901  0.44133  1.0000
  C   C267      1.0  0.42305  0.75608  0.36237  1.0000
  C   C268      1.0  0.40481  0.74765  0.41516  1.0000
  C   C269      1.0  0.39023  0.75421  0.40432  1.0000
  H   H181      1.0  0.40136  0.73581  0.45921  1.0000
  H   H182      1.0  0.37673  0.74691  0.44034  1.0000
  C   C270      1.0  0.43527  0.74677  0.36569  1.0000
  H   H183      1.0  0.42904  0.73284  0.39459  1.0000
  C   C271      1.0  0.78561  0.41185  0.39290  1.0000
  C   C272      1.0  0.78674  0.43124  0.38715  1.0000
  H   H184      1.0  0.79038  0.40818  0.45092  1.0000
  H   H185      1.0  0.79203  0.44096  0.44129  1.0000
  C   C273      1.0  0.75910  0.33349  0.36245  1.0000
  C   C274      1.0  0.75068  0.34331  0.41526  1.0000
  C   C275      1.0  0.75724  0.36445  0.40446  1.0000
  H   H186      1.0  0.73888  0.33492  0.45951  1.0000
  H   H187      1.0  0.74996  0.37066  0.44056  1.0000
  C   C276      1.0  0.74977  0.31197  0.36569  1.0000
  H   H188      1.0  0.73583  0.30427  0.39444  1.0000
  C   C277      1.0  0.58602  0.36827  0.39281  1.0000
  C   C278      1.0  0.56664  0.35001  0.38700  1.0000
  H   H189      1.0  0.58964  0.37673  0.45075  1.0000
  H   H190      1.0  0.55686  0.34559  0.44094  1.0000
  C   C279      1.0  0.66439  0.42013  0.36263  1.0000
  C   C280      1.0  0.65456  0.40194  0.41568  1.0000
  C   C281      1.0  0.63343  0.38734  0.40477  1.0000
  H   H191      1.0  0.66293  0.39857  0.46020  1.0000
  H   H192      1.0  0.62721  0.37389  0.44115  1.0000
  C   C282      1.0  0.68591  0.43237  0.36609  1.0000
  H   H193      1.0  0.69360  0.42620  0.39553  1.0000
  C   C283      1.0  0.62972  0.21231  0.39317  1.0000
  C   C284      1.0  0.64799  0.21120  0.38728  1.0000
  H   H194      1.0  0.62130  0.20753  0.45123  1.0000
  H   H195      1.0  0.65243  0.20588  0.44128  1.0000
  C   C285      1.0  0.57783  0.23877  0.36286  1.0000
  C   C286      1.0  0.59607  0.24720  0.41563  1.0000
  C   C287      1.0  0.61064  0.24064  0.40483  1.0000
  H   H196      1.0  0.59948  0.25899  0.45991  1.0000
  H   H197      1.0  0.62415  0.24794  0.44086  1.0000
  C   C288      1.0  0.56559  0.24805  0.36629  1.0000
  H   H198      1.0  0.57177  0.26193  0.39563  1.0000
