data_image0
_chemical_formula_structural       C2NC2OHC2NC2OHC2NC2OHC2NC2OHC2NC2OHC2NC2OHNCHNCHNCHNCHNCHNCHNCHNCHNCHNCHNCHNCHC2NC2OHC2NC2OHC2NC2OHC2NC2OHC2NC2OHC2NC2OHNCHNCHNCHNCHNCHNCHNCHNCHNCHNCHNCHNCHC2NC2OHC2NC2OHC2NC2OHC2NC2OHC2NC2OHC2NC2OHNCHNCHNCHNCHNCHNCHC2NC2OHC2NC2OHC2NC2OHC2NC2OHC2NC2OHC2NC2OHCNCNCNCNCNCNCNCNCNCNCNCNCNCNCNCNCNCNCNCNCNCNCNCNCNCNCNCNCNCNCNCNCNCNCNCNCNCNCNCNCNCNCNCNCNCNCNCNCNCNCNCNCNCNCNCNCNCNCNCNCNCNCNCNCNCNCNCNCNCNCNCNCNCNCNCNCNCNCNCNCNCNCNCNCNCNCNCNCNCNCNCNCNCNCNCNCNCNCNCNCNCNCNCNCNCNCNCN2CHNCHNCHNCHNCHNCHC2NC2OHC2NC2OHC2NC2OHC2NC2OHC2NC2OHC2NC2OHC2NC2OHC2NC2OHC2NC2OHC2NC2OHC2NC2OHC2NC2OHNCHNCHNCHNCHNCHNCHC2NC2OHC2NC2OHC2NC2OHC2NC2OHC2NC2OHC2NC2OHC2NC2OHC2NC2OHC2NC2OHC2NC2OHC2NC2OHC2NC2OHNCHNCHNCHNCHNCHNCHC2NC2OHC2NC2OHC2NC2OHC2NC2OHC2NC2OHC2NC2OHNCHNCHNCHNCHNCHNCH
_chemical_formula_sum              "C378 N216 O54 H108"
_cell_length_a       66.4037
_cell_length_b       66.4037
_cell_length_c       14.8503
_cell_angle_alpha    90
_cell_angle_beta     90
_cell_angle_gamma    120

_space_group_name_H-M_alt    "P 1"
_space_group_IT_number       1

loop_
  _space_group_symop_operation_xyz
  'x, y, z'

loop_
  _atom_site_type_symbol
  _atom_site_label
  _atom_site_symmetry_multiplicity
  _atom_site_fract_x
  _atom_site_fract_y
  _atom_site_fract_z
  _atom_site_occupancy
  C   C1        1.0  0.13296  0.32358  0.38888  1.0000
  C   C2        1.0  0.13443  0.36682  0.39916  1.0000
  N   N1        1.0  0.12252  0.35103  0.33253  1.0000
  C   C3        1.0  0.12007  0.32916  0.32681  1.0000
  C   C4        1.0  0.10909  0.31599  0.25174  1.0000
  O   O1        1.0  0.11688  0.32483  0.17848  1.0000
  H   H1        1.0  0.10344  0.29909  0.25578  1.0000
  C   C5        1.0  0.68915  0.81220  0.39004  1.0000
  C   C6        1.0  0.64595  0.77039  0.40122  1.0000
  N   N2        1.0  0.66180  0.77416  0.33498  1.0000
  C   C7        1.0  0.68365  0.79361  0.32864  1.0000
  C   C8        1.0  0.69709  0.79560  0.25459  1.0000
  O   O2        1.0  0.68771  0.78902  0.18122  1.0000
  H   H2        1.0  0.71337  0.80863  0.25242  1.0000
  C   C9        1.0  0.20011  0.87920  0.39149  1.0000
  C   C10       1.0  0.24193  0.87774  0.40265  1.0000
  N   N3        1.0  0.23823  0.88995  0.33676  1.0000
  C   C11       1.0  0.21877  0.89233  0.33036  1.0000
  C   C12       1.0  0.21689  0.90401  0.25683  1.0000
  O   O3        1.0  0.22376  0.90160  0.18346  1.0000
  H   H3        1.0  0.20381  0.90718  0.25456  1.0000
  C   C13       1.0  0.88154  0.68659  0.39065  1.0000
  C   C14       1.0  0.88021  0.64341  0.40112  1.0000
  N   N4        1.0  0.89239  0.65934  0.33525  1.0000
  C   C15       1.0  0.89474  0.68117  0.32953  1.0000
  C   C16       1.0  0.90616  0.69463  0.25565  1.0000
  O   O4        1.0  0.89848  0.68591  0.18205  1.0000
  H   H4        1.0  0.91163  0.71149  0.25901  1.0000
  C   C17       1.0  0.32585  0.19811  0.38956  1.0000
  C   C18       1.0  0.36910  0.23988  0.39969  1.0000
  N   N5        1.0  0.35332  0.23598  0.33298  1.0000
  C   C19       1.0  0.33145  0.21656  0.32734  1.0000
  C   C20       1.0  0.31829  0.21434  0.25220  1.0000
  O   O5        1.0  0.32712  0.21529  0.17900  1.0000
  H   H5        1.0  0.30138  0.20314  0.25631  1.0000
  C   C21       1.0  0.81459  0.13057  0.38827  1.0000
  C   C22       1.0  0.77282  0.13201  0.39938  1.0000
  N   N6        1.0  0.77661  0.12002  0.33289  1.0000
  C   C23       1.0  0.79605  0.11759  0.32657  1.0000
  C   C24       1.0  0.79809  0.10625  0.25223  1.0000
  O   O6        1.0  0.79173  0.10933  0.17884  1.0000
  H   H6        1.0  0.81106  0.10292  0.25017  1.0000
  N   N7        1.0  0.32940  0.11683  0.37057  1.0000
  C   C25       1.0  0.34938  0.11553  0.37130  1.0000
  H   H7        1.0  0.35239  0.10736  0.31910  1.0000
  N   N8        1.0  0.79698  0.68312  0.36922  1.0000
  C   C26       1.0  0.77585  0.66297  0.37002  1.0000
  H   H8        1.0  0.76468  0.65958  0.31741  1.0000
  N   N9        1.0  0.89577  0.21556  0.36745  1.0000
  C   C27       1.0  0.89691  0.23676  0.36787  1.0000
  H   H9        1.0  0.90512  0.24805  0.31601  1.0000
  N   N10       1.0  0.68537  0.89330  0.36964  1.0000
  C   C28       1.0  0.66533  0.89451  0.37005  1.0000
  H   H10       1.0  0.66219  0.90248  0.31754  1.0000
  N   N11       1.0  0.21786  0.32735  0.36843  1.0000
  C   C29       1.0  0.23912  0.34738  0.36891  1.0000
  H   H11       1.0  0.25027  0.35040  0.31659  1.0000
  N   N12       1.0  0.11897  0.79454  0.36902  1.0000
  C   C30       1.0  0.11796  0.77340  0.36964  1.0000
  H   H12       1.0  0.11018  0.76226  0.31694  1.0000
  N   N13       1.0  0.21906  0.44857  0.37736  1.0000
  C   C31       1.0  0.24038  0.45004  0.37667  1.0000
  H   H13       1.0  0.25106  0.45751  0.32250  1.0000
  N   N14       1.0  0.56417  0.77300  0.37829  1.0000
  C   C32       1.0  0.56263  0.79282  0.37740  1.0000
  H   H14       1.0  0.55542  0.79610  0.32258  1.0000
  N   N15       1.0  0.23920  0.79344  0.37990  1.0000
  C   C33       1.0  0.21923  0.77222  0.37909  1.0000
  H   H15       1.0  0.21590  0.76175  0.32413  1.0000
  N   N16       1.0  0.79593  0.56178  0.37851  1.0000
  C   C34       1.0  0.77476  0.56062  0.37794  1.0000
  H   H16       1.0  0.76411  0.55341  0.32350  1.0000
  N   N17       1.0  0.45070  0.23678  0.37792  1.0000
  C   C35       1.0  0.45208  0.21689  0.37733  1.0000
  H   H17       1.0  0.45952  0.21362  0.32319  1.0000
  N   N18       1.0  0.77568  0.21663  0.37770  1.0000
  C   C36       1.0  0.79546  0.23801  0.37718  1.0000
  H   H18       1.0  0.79872  0.24857  0.32260  1.0000
  C   C37       1.0  0.10746  0.46021  0.29333  1.0000
  C   C38       1.0  0.13506  0.43889  0.31112  1.0000
  N   N19       1.0  0.11232  0.42686  0.28646  1.0000
  C   C39       1.0  0.09818  0.43607  0.27444  1.0000
  C   C40       1.0  0.07563  0.42132  0.24582  1.0000
  O   O7        1.0  0.06743  0.40023  0.24749  1.0000
  H   H19       1.0  0.06993  0.42697  0.19544  1.0000
  C   C41       1.0  0.55292  0.64987  0.29289  1.0000
  C   C42       1.0  0.57413  0.69877  0.31323  1.0000
  N   N20       1.0  0.58635  0.68818  0.28951  1.0000
  C   C43       1.0  0.57717  0.66491  0.27687  1.0000
  C   C44       1.0  0.59291  0.65843  0.24970  1.0000
  O   O8        1.0  0.60393  0.65604  0.31054  1.0000
  H   H20       1.0  0.58790  0.64657  0.20155  1.0000
  C   C45       1.0  0.36258  0.90527  0.29512  1.0000
  C   C46       1.0  0.31369  0.87762  0.31535  1.0000
  N   N21       1.0  0.32428  0.90041  0.29136  1.0000
  C   C47       1.0  0.34755  0.91448  0.27874  1.0000
  C   C48       1.0  0.35406  0.93671  0.25142  1.0000
  O   O9        1.0  0.35639  0.95029  0.31140  1.0000
  H   H21       1.0  0.36580  0.94316  0.20259  1.0000
  C   C49       1.0  0.90800  0.55047  0.29313  1.0000
  C   C50       1.0  0.88028  0.57160  0.31411  1.0000
  N   N22       1.0  0.90300  0.58378  0.28937  1.0000
  C   C51       1.0  0.91721  0.57469  0.27615  1.0000
  C   C52       1.0  0.93969  0.58966  0.24747  1.0000
  O   O10       1.0  0.94817  0.61070  0.25500  1.0000
  H   H22       1.0  0.94496  0.58475  0.19348  1.0000
  C   C53       1.0  0.46262  0.36020  0.29407  1.0000
  C   C54       1.0  0.44124  0.31127  0.31168  1.0000
  N   N23       1.0  0.42923  0.32201  0.28712  1.0000
  C   C55       1.0  0.43847  0.34537  0.27520  1.0000
  C   C56       1.0  0.42373  0.35319  0.24669  1.0000
  O   O11       1.0  0.40264  0.34035  0.24867  1.0000
  H   H23       1.0  0.42936  0.36451  0.19620  1.0000
  C   C57       1.0  0.65240  0.10510  0.29455  1.0000
  C   C58       1.0  0.70137  0.13266  0.31169  1.0000
  N   N24       1.0  0.69062  0.10984  0.28786  1.0000
  C   C59       1.0  0.66729  0.09582  0.27659  1.0000
  C   C60       1.0  0.66047  0.07356  0.24873  1.0000
  O   O12       1.0  0.65918  0.06029  0.30844  1.0000
  H   H24       1.0  0.64782  0.06653  0.20360  1.0000
  N   N25       1.0  0.47209  0.12521  0.32142  1.0000
  C   C61       1.0  0.46231  0.13892  0.32751  1.0000
  H   H25       1.0  0.47293  0.15654  0.33120  1.0000
  N   N26       1.0  0.66322  0.54039  0.32170  1.0000
  C   C62       1.0  0.68671  0.55022  0.32836  1.0000
  H   H26       1.0  0.69373  0.53961  0.33268  1.0000
  N   N27       1.0  0.88751  0.35004  0.32478  1.0000
  C   C63       1.0  0.87360  0.32654  0.32982  1.0000
  H   H27       1.0  0.85610  0.31978  0.33750  1.0000
  N   N28       1.0  0.54274  0.88505  0.32520  1.0000
  C   C64       1.0  0.55232  0.87113  0.32961  1.0000
  H   H28       1.0  0.54156  0.85356  0.33493  1.0000
  N   N29       1.0  0.35246  0.47000  0.32520  1.0000
  C   C65       1.0  0.32897  0.46043  0.33023  1.0000
  H   H29       1.0  0.32220  0.47118  0.33728  1.0000
  N   N30       1.0  0.12784  0.66071  0.32206  1.0000
  C   C66       1.0  0.14154  0.68419  0.32866  1.0000
  H   H30       1.0  0.15913  0.69116  0.33376  1.0000
  N   N31       1.0  0.09961  0.21293  0.29164  1.0000
  C   C67       1.0  0.10908  0.23643  0.29602  1.0000
  H   H31       1.0  0.09835  0.24330  0.29233  1.0000
  N   N32       1.0  0.79983  0.88952  0.29298  1.0000
  C   C68       1.0  0.77634  0.87548  0.29770  1.0000
  H   H32       1.0  0.76948  0.85787  0.29443  1.0000
  N   N33       1.0  0.12320  0.91317  0.29466  1.0000
  C   C69       1.0  0.13720  0.90366  0.29957  1.0000
  H   H33       1.0  0.15481  0.91436  0.29656  1.0000
  N   N34       1.0  0.91549  0.79752  0.29403  1.0000
  C   C70       1.0  0.90599  0.77402  0.29865  1.0000
  H   H34       1.0  0.91669  0.76711  0.29536  1.0000
  N   N35       1.0  0.21522  0.12085  0.29205  1.0000
  C   C71       1.0  0.23872  0.13488  0.29653  1.0000
  H   H35       1.0  0.24559  0.15248  0.29289  1.0000
  N   N36       1.0  0.89192  0.09716  0.29203  1.0000
  C   C72       1.0  0.87788  0.10662  0.29648  1.0000
  H   H36       1.0  0.86028  0.09589  0.29291  1.0000
  C   C73       1.0  0.10108  0.53085  0.32138  1.0000
  C   C74       1.0  0.10197  0.57371  0.32540  1.0000
  N   N37       1.0  0.10513  0.56469  0.24797  1.0000
  C   C75       1.0  0.10591  0.54455  0.24205  1.0000
  C   C76       1.0  0.10846  0.53756  0.15715  1.0000
  O   O13       1.0  0.09491  0.53643  0.09905  1.0000
  H   H37       1.0  0.11288  0.52536  0.15393  1.0000
  C   C77       1.0  0.48196  0.57285  0.31310  1.0000
  C   C78       1.0  0.43995  0.53018  0.32914  1.0000
  N   N38       1.0  0.44748  0.54150  0.24908  1.0000
  C   C79       1.0  0.46723  0.56255  0.23723  1.0000
  C   C80       1.0  0.47279  0.57143  0.15077  1.0000
  O   O14       1.0  0.46871  0.55807  0.08779  1.0000
  H   H38       1.0  0.48645  0.58718  0.14202  1.0000
  C   C81       1.0  0.43972  0.91155  0.31701  1.0000
  C   C82       1.0  0.48249  0.91236  0.33184  1.0000
  N   N39       1.0  0.47087  0.90811  0.25236  1.0000
  C   C83       1.0  0.44976  0.90672  0.24121  1.0000
  C   C84       1.0  0.44050  0.90287  0.15525  1.0000
  O   O15       1.0  0.45358  0.91175  0.09120  1.0000
  H   H39       1.0  0.42472  0.90073  0.14705  1.0000
  C   C85       1.0  0.91413  0.47948  0.31323  1.0000
  C   C86       1.0  0.91479  0.43752  0.32792  1.0000
  N   N40       1.0  0.91156  0.44538  0.24764  1.0000
  C   C87       1.0  0.91029  0.46515  0.23649  1.0000
  C   C88       1.0  0.90766  0.47109  0.14986  1.0000
  O   O16       1.0  0.92157  0.47189  0.09400  1.0000
  H   H40       1.0  0.90333  0.48327  0.14234  1.0000
  C   C89       1.0  0.53330  0.43721  0.32234  1.0000
  C   C90       1.0  0.57619  0.47918  0.32588  1.0000
  N   N41       1.0  0.56722  0.46682  0.24875  1.0000
  C   C91       1.0  0.54709  0.44589  0.24312  1.0000
  C   C92       1.0  0.54018  0.43616  0.15846  1.0000
  O   O17       1.0  0.53910  0.44846  0.09966  1.0000
  H   H41       1.0  0.52799  0.41953  0.15562  1.0000
  C   C93       1.0  0.57536  0.09864  0.32330  1.0000
  C   C94       1.0  0.53319  0.09928  0.32887  1.0000
  N   N42       1.0  0.54575  0.10331  0.25182  1.0000
  C   C95       1.0  0.56673  0.10421  0.24511  1.0000
  C   C96       1.0  0.57683  0.10789  0.16074  1.0000
  O   O18       1.0  0.56437  0.09941  0.09482  1.0000
  H   H42       1.0  0.59250  0.10959  0.15540  1.0000
  N   N43       1.0  0.99574  0.42341  0.30755  1.0000
  C   C97       1.0  0.01923  0.43342  0.30244  1.0000
  H   H43       1.0  0.02632  0.42439  0.27380  1.0000
  N   N44       1.0  0.58977  0.57480  0.30280  1.0000
  C   C98       1.0  0.57996  0.58852  0.30069  1.0000
  H   H44       1.0  0.59043  0.60618  0.30091  1.0000
  N   N45       1.0  0.43754  0.01725  0.30512  1.0000
  C   C99       1.0  0.42384  0.99373  0.30283  1.0000
  H   H45       1.0  0.40618  0.98653  0.30076  1.0000
  N   N46       1.0  0.01990  0.58732  0.30421  1.0000
  C   C100      1.0  0.99638  0.57751  0.30201  1.0000
  H   H46       1.0  0.98916  0.58797  0.30135  1.0000
  N   N47       1.0  0.42580  0.43507  0.30879  1.0000
  C   C101      1.0  0.43581  0.42159  0.30378  1.0000
  H   H47       1.0  0.42671  0.40538  0.27588  1.0000
  N   N48       1.0  0.57748  0.99330  0.30784  1.0000
  C   C102      1.0  0.59094  0.01678  0.30227  1.0000
  H   H48       1.0  0.60700  0.02386  0.27314  1.0000
  C   C103      1.0  0.13054  0.09831  0.28848  1.0000
  C   C104      1.0  0.10988  0.12681  0.29065  1.0000
  N   N49       1.0  0.09720  0.10327  0.28345  1.0000
  C   C105      1.0  0.10593  0.08853  0.28217  1.0000
  C   C106      1.0  0.09027  0.06506  0.27168  1.0000
  O   O19       1.0  0.07036  0.05722  0.29891  1.0000
  H   H49       1.0  0.09177  0.05825  0.21438  1.0000
  C   C107      1.0  0.91449  0.03504  0.28848  1.0000
  C   C108      1.0  0.88598  0.98588  0.29094  1.0000
  N   N50       1.0  0.90951  0.99673  0.28368  1.0000
  C   C109      1.0  0.92426  0.02020  0.28220  1.0000
  C   C110      1.0  0.94768  0.02793  0.27169  1.0000
  O   O20       1.0  0.95570  0.01585  0.29705  1.0000
  H   H50       1.0  0.95502  0.03700  0.21621  1.0000
  C   C111      1.0  0.97767  0.88224  0.28920  1.0000
  C   C112      1.0  0.02683  0.90292  0.29183  1.0000
  N   N51       1.0  0.01597  0.91557  0.28365  1.0000
  C   C113      1.0  0.99250  0.90684  0.28198  1.0000
  C   C114      1.0  0.98476  0.92250  0.27042  1.0000
  O   O21       1.0  0.99690  0.94270  0.29453  1.0000
  H   H51       1.0  0.97560  0.92055  0.21501  1.0000
  C   C115      1.0  0.88443  0.91202  0.28893  1.0000
  C   C116      1.0  0.90527  0.88367  0.29147  1.0000
  N   N52       1.0  0.91791  0.90721  0.28373  1.0000
  C   C117      1.0  0.90902  0.92176  0.28210  1.0000
  C   C118      1.0  0.92535  0.94484  0.27144  1.0000
  O   O22       1.0  0.93202  0.95594  0.34145  1.0000
  H   H52       1.0  0.92280  0.95317  0.22140  1.0000
  C   C119      1.0  0.10063  0.97532  0.28928  1.0000
  C   C120      1.0  0.12910  0.02448  0.29109  1.0000
  N   N53       1.0  0.10557  0.01361  0.28389  1.0000
  C   C121      1.0  0.09083  0.99013  0.28277  1.0000
  C   C122      1.0  0.06736  0.98230  0.27224  1.0000
  O   O23       1.0  0.05951  0.99436  0.29943  1.0000
  H   H53       1.0  0.06056  0.97398  0.21493  1.0000
  C   C123      1.0  0.03748  0.12820  0.28815  1.0000
  C   C124      1.0  0.98831  0.10747  0.29082  1.0000
  N   N54       1.0  0.99919  0.09483  0.28312  1.0000
  C   C125      1.0  0.02267  0.10359  0.28151  1.0000
  C   C126      1.0  0.03043  0.08793  0.27045  1.0000
  O   O24       1.0  0.01835  0.06778  0.29522  1.0000
  H   H54       1.0  0.03954  0.08978  0.21498  1.0000
  C   C127      1.0  0.17866  0.42766  0.41440  1.0000
  N   N55       1.0  0.16914  0.43851  0.36800  1.0000
  C   C128      1.0  0.14669  0.42663  0.33681  1.0000
  N   N56       1.0  0.13441  0.40281  0.34543  1.0000
  C   C129      1.0  0.14323  0.39109  0.39091  1.0000
  N   N57       1.0  0.16501  0.40442  0.42359  1.0000
  C   C130      1.0  0.58503  0.75356  0.41594  1.0000
  N   N58       1.0  0.57426  0.73314  0.36982  1.0000
  C   C131      1.0  0.58625  0.72265  0.33907  1.0000
  N   N59       1.0  0.61007  0.73428  0.34775  1.0000
  C   C132      1.0  0.62169  0.75488  0.39281  1.0000
  N   N60       1.0  0.60828  0.76326  0.42518  1.0000
  C   C133      1.0  0.25879  0.83369  0.41711  1.0000
  N   N61       1.0  0.27930  0.84339  0.37157  1.0000
  C   C134      1.0  0.28979  0.86588  0.34089  1.0000
  N   N62       1.0  0.27812  0.87804  0.34946  1.0000
  C   C135      1.0  0.25750  0.86905  0.39438  1.0000
  N   N63       1.0  0.24910  0.84723  0.42649  1.0000
  C   C136      1.0  0.83626  0.58245  0.41593  1.0000
  N   N64       1.0  0.84599  0.57167  0.37041  1.0000
  C   C137      1.0  0.86848  0.58370  0.33975  1.0000
  N   N65       1.0  0.88060  0.60754  0.34809  1.0000
  C   C138      1.0  0.87154  0.61915  0.39268  1.0000
  N   N66       1.0  0.84974  0.60570  0.42505  1.0000
  C   C139      1.0  0.42991  0.25640  0.41491  1.0000
  N   N67       1.0  0.44079  0.27677  0.36851  1.0000
  C   C140      1.0  0.42894  0.28737  0.33730  1.0000
  N   N68       1.0  0.40512  0.27587  0.34591  1.0000
  C   C141      1.0  0.39337  0.25534  0.39138  1.0000
  N   N69       1.0  0.40668  0.24685  0.42408  1.0000
  C   C142      1.0  0.75624  0.17628  0.41457  1.0000
  N   N70       1.0  0.73585  0.16675  0.36829  1.0000
  C   C143      1.0  0.72528  0.14430  0.33717  1.0000
  N   N71       1.0  0.73681  0.13201  0.34576  1.0000
  C   C144      1.0  0.75738  0.14086  0.39099  1.0000
  N   N72       1.0  0.76584  0.16264  0.42367  1.0000
  C   C145      1.0  0.42844  0.17480  0.42159  1.0000
  N   N73       1.0  0.43844  0.16402  0.37794  1.0000
  C   C146      1.0  0.42609  0.14076  0.35780  1.0000
  N   N74       1.0  0.40255  0.12887  0.37392  1.0000
  C   C147      1.0  0.39177  0.13900  0.41715  1.0000
  N   N75       1.0  0.40556  0.16153  0.44095  1.0000
  C   C148      1.0  0.75647  0.58430  0.42303  1.0000
  N   N76       1.0  0.73569  0.57421  0.37926  1.0000
  C   C149      1.0  0.72471  0.58646  0.35897  1.0000
  N   N77       1.0  0.73628  0.60999  0.37497  1.0000
  C   C150      1.0  0.75719  0.62085  0.41813  1.0000
  N   N78       1.0  0.76604  0.60718  0.44247  1.0000
  C   C151      1.0  0.83763  0.25657  0.42061  1.0000
  N   N79       1.0  0.84830  0.27730  0.37654  1.0000
  C   C152      1.0  0.87150  0.28818  0.35541  1.0000
  N   N80       1.0  0.88341  0.27653  0.37085  1.0000
  C   C153      1.0  0.87339  0.25563  0.41420  1.0000
  N   N81       1.0  0.85093  0.24694  0.43896  1.0000
  C   C154      1.0  0.58625  0.83499  0.42084  1.0000
  N   N82       1.0  0.57619  0.84570  0.37707  1.0000
  C   C155      1.0  0.58851  0.86894  0.35656  1.0000
  N   N83       1.0  0.61207  0.88086  0.37239  1.0000
  C   C156      1.0  0.62292  0.87078  0.41545  1.0000
  N   N84       1.0  0.60916  0.84828  0.43973  1.0000
  C   C157      1.0  0.25892  0.42645  0.42041  1.0000
  N   N85       1.0  0.27971  0.43652  0.37677  1.0000
  C   C158      1.0  0.29059  0.42418  0.35602  1.0000
  N   N86       1.0  0.27892  0.40061  0.37163  1.0000
  C   C159      1.0  0.25801  0.38977  0.41491  1.0000
  N   N87       1.0  0.24930  0.40354  0.43924  1.0000
  C   C160      1.0  0.17719  0.75394  0.42313  1.0000
  N   N88       1.0  0.16654  0.73319  0.37918  1.0000
  C   C161      1.0  0.14333  0.72223  0.35850  1.0000
  N   N89       1.0  0.13136  0.73380  0.37434  1.0000
  C   C162      1.0  0.14138  0.75469  0.41771  1.0000
  N   N90       1.0  0.16387  0.76351  0.44239  1.0000
  C   C163      1.0  0.14113  0.30755  0.38038  1.0000
  N   N91       1.0  0.13204  0.28636  0.33953  1.0000
  C   C164      1.0  0.14441  0.27486  0.33241  1.0000
  N   N92       1.0  0.16721  0.28606  0.36063  1.0000
  C   C165      1.0  0.17703  0.30706  0.40299  1.0000
  N   N93       1.0  0.16317  0.31639  0.41035  1.0000
  C   C166      1.0  0.70521  0.83640  0.38164  1.0000
  N   N94       1.0  0.72642  0.84853  0.34100  1.0000
  C   C167      1.0  0.73791  0.87240  0.33388  1.0000
  N   N95       1.0  0.72672  0.88401  0.36200  1.0000
  C   C168      1.0  0.70572  0.87282  0.40428  1.0000
  N   N96       1.0  0.69637  0.84962  0.41148  1.0000
  C   C169      1.0  0.17591  0.87104  0.38274  1.0000
  N   N97       1.0  0.16393  0.88037  0.34270  1.0000
  C   C170      1.0  0.14006  0.86816  0.33545  1.0000
  N   N98       1.0  0.12830  0.84533  0.36310  1.0000
  C   C171      1.0  0.13934  0.83532  0.40500  1.0000
  N   N99       1.0  0.16257  0.84899  0.41254  1.0000
  C   C172      1.0  0.87346  0.70269  0.38213  1.0000
  N   N100      1.0  0.88276  0.72397  0.34181  1.0000
  C   C173      1.0  0.87055  0.73563  0.33480  1.0000
  N   N101      1.0  0.84774  0.72457  0.36279  1.0000
  C   C174      1.0  0.83774  0.70351  0.40462  1.0000
  N   N102      1.0  0.85143  0.69398  0.41215  1.0000
  C   C175      1.0  0.30980  0.17392  0.38126  1.0000
  N   N103      1.0  0.28864  0.16183  0.34021  1.0000
  C   C176      1.0  0.27712  0.13796  0.33326  1.0000
  N   N104      1.0  0.28826  0.12634  0.36191  1.0000
  C   C177      1.0  0.30922  0.13750  0.40451  1.0000
  N   N105      1.0  0.31859  0.16071  0.41166  1.0000
  C   C178      1.0  0.83880  0.13873  0.37987  1.0000
  N   N106      1.0  0.85093  0.12961  0.33948  1.0000
  C   C179      1.0  0.87479  0.14198  0.33240  1.0000
  N   N107      1.0  0.88639  0.16481  0.36028  1.0000
  C   C180      1.0  0.87521  0.17467  0.40226  1.0000
  N   N108      1.0  0.85200  0.16081  0.40947  1.0000
  C   C181      1.0  0.09213  0.50651  0.31912  1.0000
  N   N109      1.0  0.10482  0.49575  0.30524  1.0000
  C   C182      1.0  0.09441  0.47201  0.29992  1.0000
  N   N110      1.0  0.07085  0.45953  0.30939  1.0000
  C   C183      1.0  0.05764  0.46958  0.32303  1.0000
  N   N111      1.0  0.06874  0.49310  0.32784  1.0000
  C   C184      1.0  0.50625  0.58808  0.30574  1.0000
  N   N112      1.0  0.51723  0.61177  0.30048  1.0000
  C   C185      1.0  0.54097  0.62496  0.29403  1.0000
  N   N113      1.0  0.55322  0.61351  0.29472  1.0000
  C   C186      1.0  0.54294  0.59000  0.29943  1.0000
  N   N114      1.0  0.51943  0.57777  0.30501  1.0000
  C   C187      1.0  0.42439  0.92049  0.30943  1.0000
  N   N115      1.0  0.40072  0.90775  0.30339  1.0000
  C   C188      1.0  0.38749  0.91826  0.29669  1.0000
  N   N116      1.0  0.39889  0.94197  0.29795  1.0000
  C   C189      1.0  0.42239  0.95523  0.30349  1.0000
  N   N117      1.0  0.43464  0.94398  0.30933  1.0000
  C   C190      1.0  0.92311  0.50377  0.30640  1.0000
  N   N118      1.0  0.91040  0.51474  0.30085  1.0000
  C   C191      1.0  0.92095  0.53849  0.29471  1.0000
  N   N119      1.0  0.94466  0.55075  0.29605  1.0000
  C   C192      1.0  0.95789  0.54048  0.30114  1.0000
  N   N120      1.0  0.94661  0.51696  0.30636  1.0000
  C   C193      1.0  0.50896  0.42181  0.31997  1.0000
  N   N121      1.0  0.49818  0.39836  0.30609  1.0000
  C   C194      1.0  0.47444  0.38504  0.30070  1.0000
  N   N122      1.0  0.46198  0.39614  0.31009  1.0000
  C   C195      1.0  0.47204  0.41941  0.32369  1.0000
  N   N123      1.0  0.49556  0.43181  0.32858  1.0000
  C   C196      1.0  0.59076  0.08969  0.32023  1.0000
  N   N124      1.0  0.61421  0.10241  0.30647  1.0000
  C   C197      1.0  0.62756  0.09202  0.30075  1.0000
  N   N125      1.0  0.61651  0.06846  0.30979  1.0000
  C   C198      1.0  0.59325  0.05522  0.32337  1.0000
  N   N126      1.0  0.58082  0.06629  0.32858  1.0000
  C   C199      1.0  0.50890  0.08955  0.32080  1.0000
  N   N127      1.0  0.49682  0.10120  0.32142  1.0000
  C   C200      1.0  0.47299  0.08957  0.31657  1.0000
  N   N128      1.0  0.46190  0.06589  0.31178  1.0000
  C   C201      1.0  0.47322  0.05357  0.31112  1.0000
  N   N129      1.0  0.49668  0.06607  0.31599  1.0000
  C   C202      1.0  0.59075  0.50348  0.31782  1.0000
  N   N130      1.0  0.61447  0.51559  0.31996  1.0000
  C   C203      1.0  0.62665  0.53942  0.31519  1.0000
  N   N131      1.0  0.61404  0.55048  0.30908  1.0000
  C   C204      1.0  0.59042  0.53913  0.30700  1.0000
  N   N132      1.0  0.57947  0.51566  0.31180  1.0000
  C   C205      1.0  0.92436  0.42270  0.32714  1.0000
  N   N133      1.0  0.91231  0.39901  0.32060  1.0000
  C   C206      1.0  0.92348  0.38633  0.32089  1.0000
  N   N134      1.0  0.94710  0.39839  0.32858  1.0000
  C   C207      1.0  0.95973  0.42190  0.33607  1.0000
  N   N135      1.0  0.94782  0.43351  0.33431  1.0000
  C   C208      1.0  0.50689  0.92191  0.33031  1.0000
  N   N136      1.0  0.51853  0.90986  0.32398  1.0000
  C   C209      1.0  0.54239  0.92103  0.32383  1.0000
  N   N137      1.0  0.55393  0.94467  0.33057  1.0000
  C   C210      1.0  0.54307  0.95732  0.33776  1.0000
  N   N138      1.0  0.51955  0.94538  0.33663  1.0000
  C   C211      1.0  0.42512  0.50580  0.32801  1.0000
  N   N139      1.0  0.40142  0.49416  0.32153  1.0000
  C   C212      1.0  0.38875  0.47031  0.32168  1.0000
  N   N140      1.0  0.40082  0.45876  0.32916  1.0000
  C   C213      1.0  0.42433  0.46963  0.33654  1.0000
  N   N141      1.0  0.43592  0.49315  0.33495  1.0000
  C   C214      1.0  0.09221  0.58827  0.31800  1.0000
  N   N142      1.0  0.10384  0.61199  0.31953  1.0000
  C   C215      1.0  0.09220  0.62418  0.31520  1.0000
  N   N143      1.0  0.06852  0.61159  0.31019  1.0000
  C   C216      1.0  0.05622  0.58796  0.30876  1.0000
  N   N144      1.0  0.06874  0.57700  0.31299  1.0000
  C   C217      1.0  0.09831  0.14001  0.29124  1.0000
  N   N145      1.0  0.10989  0.16365  0.29411  1.0000
  C   C218      1.0  0.09897  0.17643  0.29505  1.0000
  N   N146      1.0  0.07519  0.16429  0.29267  1.0000
  C   C219      1.0  0.06246  0.14054  0.28948  1.0000
  N   N147      1.0  0.07470  0.12912  0.28921  1.0000
  C   C220      1.0  0.87276  0.96111  0.29164  1.0000
  N   N148      1.0  0.84912  0.94908  0.29461  1.0000
  C   C221      1.0  0.83631  0.92539  0.29562  1.0000
  N   N149      1.0  0.84842  0.91372  0.29335  1.0000
  C   C222      1.0  0.87216  0.92471  0.29009  1.0000
  N   N150      1.0  0.88363  0.94837  0.28962  1.0000
  C   C223      1.0  0.05159  0.91450  0.29259  1.0000
  N   N151      1.0  0.06364  0.90292  0.29577  1.0000
  C   C224      1.0  0.08734  0.91383  0.29675  1.0000
  N   N152      1.0  0.09899  0.93761  0.29423  1.0000
  C   C225      1.0  0.08798  0.95034  0.29077  1.0000
  N   N153      1.0  0.06431  0.93811  0.29035  1.0000
  C   C226      1.0  0.91686  0.87049  0.29232  1.0000
  N   N154      1.0  0.90528  0.84686  0.29553  1.0000
  C   C227      1.0  0.91618  0.83406  0.29670  1.0000
  N   N155      1.0  0.93996  0.84619  0.29419  1.0000
  C   C228      1.0  0.95269  0.86993  0.29065  1.0000
  N   N156      1.0  0.94046  0.88137  0.29017  1.0000
  C   C229      1.0  0.14229  0.04925  0.29157  1.0000
  N   N157      1.0  0.16593  0.06130  0.29447  1.0000
  C   C230      1.0  0.17872  0.08499  0.29538  1.0000
  N   N158      1.0  0.16659  0.09665  0.29300  1.0000
  C   C231      1.0  0.14285  0.08564  0.28980  1.0000
  N   N159      1.0  0.13140  0.06197  0.28951  1.0000
  C   C232      1.0  0.96354  0.09588  0.29153  1.0000
  N   N160      1.0  0.95148  0.10746  0.29436  1.0000
  C   C233      1.0  0.92779  0.09654  0.29523  1.0000
  N   N161      1.0  0.91614  0.07276  0.29289  1.0000
  C   C234      1.0  0.92716  0.06003  0.28978  1.0000
  N   N162      1.0  0.95083  0.07227  0.28951  1.0000
  N   N163      1.0  0.14274  0.33868  0.45858  1.0000
  C   C235      1.0  0.14278  0.35872  0.46964  1.0000
  H   H55       1.0  0.15172  0.36889  0.52331  1.0000
  N   N164      1.0  0.67399  0.80700  0.45946  1.0000
  C   C236      1.0  0.65400  0.78699  0.47118  1.0000
  H   H56       1.0  0.64373  0.78598  0.52416  1.0000
  N   N165      1.0  0.20523  0.86905  0.46042  1.0000
  C   C237      1.0  0.22520  0.86899  0.47212  1.0000
  H   H57       1.0  0.22607  0.85959  0.52492  1.0000
  N   N166      1.0  0.87154  0.67136  0.45980  1.0000
  C   C238      1.0  0.87152  0.65134  0.47101  1.0000
  H   H58       1.0  0.86237  0.64107  0.52418  1.0000
  N   N167      1.0  0.34094  0.20346  0.45932  1.0000
  C   C239      1.0  0.36099  0.22347  0.47029  1.0000
  H   H59       1.0  0.37115  0.22473  0.52401  1.0000
  N   N168      1.0  0.80937  0.14045  0.45787  1.0000
  C   C240      1.0  0.78936  0.14044  0.46957  1.0000
  H   H60       1.0  0.78833  0.14963  0.52272  1.0000
  C   C241      1.0  0.32463  0.12957  0.43046  1.0000
  C   C242      1.0  0.36773  0.13079  0.42862  1.0000
  N   N169      1.0  0.36204  0.14197  0.49129  1.0000
  C   C243      1.0  0.34137  0.14112  0.49989  1.0000
  C   C244      1.0  0.33880  0.15347  0.57014  1.0000
  O   O25       1.0  0.35361  0.16222  0.62895  1.0000
  H   H61       1.0  0.32272  0.14827  0.59089  1.0000
  C   C245      1.0  0.81432  0.68832  0.43033  1.0000
  C   C246      1.0  0.77275  0.64495  0.42930  1.0000
  N   N170      1.0  0.78944  0.65097  0.49308  1.0000
  C   C247      1.0  0.80917  0.67176  0.50035  1.0000
  C   C248      1.0  0.82323  0.67470  0.57379  1.0000
  O   O26       1.0  0.82871  0.65985  0.58566  1.0000
  H   H62       1.0  0.83556  0.69073  0.58885  1.0000
  C   C249      1.0  0.88311  0.19807  0.42748  1.0000
  C   C250      1.0  0.88169  0.23986  0.42536  1.0000
  N   N171      1.0  0.87057  0.22299  0.48814  1.0000
  C   C251      1.0  0.87153  0.20322  0.49698  1.0000
  C   C252      1.0  0.85922  0.18831  0.56748  1.0000
  O   O27       1.0  0.85074  0.19466  0.62627  1.0000
  H   H63       1.0  0.86488  0.17781  0.58830  1.0000
  C   C253      1.0  0.69021  0.88069  0.42988  1.0000
  C   C254      1.0  0.64698  0.87917  0.42721  1.0000
  N   N172      1.0  0.65271  0.86808  0.49014  1.0000
  C   C255      1.0  0.67346  0.86911  0.49924  1.0000
  C   C256      1.0  0.67603  0.85679  0.56960  1.0000
  O   O28       1.0  0.66115  0.84792  0.62809  1.0000
  H   H64       1.0  0.69210  0.86208  0.59069  1.0000
  C   C257      1.0  0.20040  0.32254  0.42858  1.0000
  C   C258      1.0  0.24220  0.36572  0.42625  1.0000
  N   N173      1.0  0.22537  0.35999  0.48916  1.0000
  C   C259      1.0  0.20559  0.33929  0.49797  1.0000
  C   C260      1.0  0.19074  0.33669  0.56849  1.0000
  O   O29       1.0  0.19682  0.35149  0.62732  1.0000
  H   H65       1.0  0.17991  0.32060  0.58933  1.0000
  C   C261      1.0  0.13111  0.81187  0.43021  1.0000
  C   C262      1.0  0.13285  0.77026  0.42890  1.0000
  N   N174      1.0  0.14351  0.78691  0.49280  1.0000
  C   C263      1.0  0.14250  0.80666  0.50018  1.0000
  C   C264      1.0  0.15361  0.82065  0.57376  1.0000
  O   O30       1.0  0.17392  0.82609  0.58563  1.0000
  H   H66       1.0  0.14992  0.83298  0.58900  1.0000
  C   C265      1.0  0.20212  0.43645  0.43994  1.0000
  C   C266      1.0  0.24401  0.43552  0.43606  1.0000
  N   N175      1.0  0.22777  0.42489  0.50135  1.0000
  C   C267      1.0  0.20791  0.42564  0.51029  1.0000
  C   C268      1.0  0.19433  0.41489  0.58539  1.0000
  O   O31       1.0  0.19251  0.39660  0.61159  1.0000
  H   H67       1.0  0.18076  0.41695  0.59689  1.0000
  C   C269      1.0  0.57619  0.76821  0.44138  1.0000
  C   C270      1.0  0.57729  0.81102  0.43637  1.0000
  N   N176      1.0  0.58780  0.80543  0.50223  1.0000
  C   C271      1.0  0.58693  0.78478  0.51176  1.0000
  C   C272      1.0  0.59766  0.78194  0.58679  1.0000
  O   O32       1.0  0.61548  0.79846  0.61610  1.0000
  H   H68       1.0  0.59573  0.76638  0.59910  1.0000
  C   C273      1.0  0.24428  0.81025  0.44336  1.0000
  C   C274      1.0  0.20117  0.76880  0.43862  1.0000
  N   N177      1.0  0.20700  0.78489  0.50470  1.0000
  C   C275      1.0  0.22781  0.80451  0.51405  1.0000
  C   C276      1.0  0.23112  0.81808  0.58958  1.0000
  O   O33       1.0  0.21472  0.81885  0.62322  1.0000
  H   H69       1.0  0.24669  0.83182  0.60067  1.0000
  C   C277      1.0  0.81279  0.57347  0.44178  1.0000
  C   C278      1.0  0.77135  0.57518  0.43795  1.0000
  N   N178      1.0  0.78747  0.58537  0.50396  1.0000
  C   C279      1.0  0.80712  0.58420  0.51280  1.0000
  C   C280      1.0  0.82059  0.59419  0.58885  1.0000
  O   O34       1.0  0.82215  0.61208  0.61865  1.0000
  H   H70       1.0  0.83439  0.59242  0.59896  1.0000
  C   C281      1.0  0.43865  0.24169  0.44051  1.0000
  C   C282      1.0  0.43755  0.19879  0.43686  1.0000
  N   N179      1.0  0.42699  0.20449  0.50217  1.0000
  C   C283      1.0  0.42782  0.22515  0.51098  1.0000
  C   C284      1.0  0.41712  0.22804  0.58609  1.0000
  O   O35       1.0  0.39882  0.21162  0.61245  1.0000
  H   H71       1.0  0.41923  0.24370  0.59747  1.0000
  C   C285      1.0  0.77092  0.19973  0.44035  1.0000
  C   C286      1.0  0.81367  0.24158  0.43619  1.0000
  N   N180      1.0  0.80810  0.22534  0.50151  1.0000
  C   C287      1.0  0.78749  0.20549  0.51067  1.0000
  C   C288      1.0  0.78470  0.19183  0.58535  1.0000
  O   O36       1.0  0.80124  0.19051  0.61424  1.0000
  H   H72       1.0  0.76915  0.17819  0.59761  1.0000
  N   N181      1.0  0.13035  0.47235  0.31690  1.0000
  C   C289      1.0  0.14444  0.46304  0.32426  1.0000
  H   H73       1.0  0.16110  0.47343  0.34629  1.0000
  N   N182      1.0  0.54065  0.66053  0.31583  1.0000
  C   C290      1.0  0.54993  0.68390  0.32495  1.0000
  H   H74       1.0  0.53940  0.69011  0.34581  1.0000
  N   N183      1.0  0.35191  0.88235  0.31822  1.0000
  C   C291      1.0  0.32854  0.86828  0.32722  1.0000
  H   H75       1.0  0.32232  0.85154  0.34821  1.0000
  N   N184      1.0  0.88514  0.53821  0.31709  1.0000
  C   C292      1.0  0.87102  0.54744  0.32630  1.0000
  H   H76       1.0  0.85437  0.53693  0.34820  1.0000
  N   N185      1.0  0.47473  0.34941  0.31753  1.0000
  C   C293      1.0  0.46539  0.32601  0.32481  1.0000
  H   H77       1.0  0.47576  0.31971  0.34677  1.0000
  N   N186      1.0  0.66321  0.12804  0.31733  1.0000
  C   C294      1.0  0.68662  0.14208  0.32458  1.0000
  H   H78       1.0  0.69296  0.15883  0.34573  1.0000
  C   C295      1.0  0.46001  0.10151  0.31975  1.0000
  C   C296      1.0  0.43788  0.12850  0.33430  1.0000
  N   N187      1.0  0.42580  0.10487  0.33275  1.0000
  C   C297      1.0  0.43529  0.09095  0.32407  1.0000
  C   C298      1.0  0.41939  0.06757  0.32753  1.0000
  O   O37       1.0  0.41434  0.05750  0.25514  1.0000
  H   H79       1.0  0.42148  0.05902  0.37803  1.0000
  C   C299      1.0  0.65156  0.55243  0.31938  1.0000
  C   C300      1.0  0.70068  0.57465  0.33518  1.0000
  N   N188      1.0  0.68908  0.58669  0.33305  1.0000
  C   C301      1.0  0.66568  0.57715  0.32380  1.0000
  C   C302      1.0  0.65811  0.59295  0.32678  1.0000
  O   O38       1.0  0.65368  0.59869  0.25465  1.0000
  H   H80       1.0  0.64727  0.59108  0.37627  1.0000
  C   C303      1.0  0.91117  0.36139  0.31898  1.0000
  C   C304      1.0  0.88377  0.31224  0.33193  1.0000
  N   N189      1.0  0.90733  0.32351  0.32559  1.0000
  C   C305      1.0  0.92139  0.34690  0.31730  1.0000
  C   C306      1.0  0.94465  0.35401  0.31291  1.0000
  O   O39       1.0  0.95427  0.36144  0.24053  1.0000
  H   H81       1.0  0.95415  0.36250  0.36614  1.0000
  C   C307      1.0  0.55505  0.90875  0.32217  1.0000
  C   C308      1.0  0.57677  0.88128  0.33357  1.0000
  N   N190      1.0  0.58906  0.90489  0.33024  1.0000
  C   C309      1.0  0.57978  0.91901  0.32287  1.0000
  C   C310      1.0  0.59602  0.94230  0.32262  1.0000
  O   O40       1.0  0.59884  0.95203  0.25004  1.0000
  H   H82       1.0  0.59587  0.95144  0.37503  1.0000
  C   C311      1.0  0.36380  0.45767  0.31994  1.0000
  C   C312      1.0  0.31466  0.43596  0.33270  1.0000
  N   N191      1.0  0.32592  0.42365  0.32691  1.0000
  C   C313      1.0  0.34931  0.43295  0.31867  1.0000
  C   C314      1.0  0.35637  0.41672  0.31526  1.0000
  O   O41       1.0  0.36385  0.41472  0.24273  1.0000
  H   H83       1.0  0.36505  0.41630  0.36889  1.0000
  C   C315      1.0  0.10415  0.64910  0.31887  1.0000
  C   C316      1.0  0.13111  0.69821  0.33460  1.0000
  N   N192      1.0  0.10749  0.68667  0.33151  1.0000
  C   C317      1.0  0.09360  0.66328  0.32220  1.0000
  C   C318      1.0  0.07023  0.65578  0.32376  1.0000
  O   O42       1.0  0.06024  0.65102  0.25119  1.0000
  H   H84       1.0  0.06112  0.64517  0.37365  1.0000
  C   C319      1.0  0.11174  0.20140  0.29935  1.0000
  C   C320      1.0  0.13321  0.25065  0.31100  1.0000
  N   N193      1.0  0.14526  0.23914  0.31908  1.0000
  C   C321      1.0  0.13621  0.21567  0.31246  1.0000
  C   C322      1.0  0.15118  0.20721  0.32625  1.0000
  O   O43       1.0  0.17167  0.21908  0.30543  1.0000
  H   H85       1.0  0.14840  0.19770  0.38133  1.0000
  C   C323      1.0  0.81134  0.91318  0.29996  1.0000
  C   C324      1.0  0.76211  0.88540  0.31220  1.0000
  N   N194      1.0  0.77361  0.90898  0.31959  1.0000
  C   C325      1.0  0.79707  0.92340  0.31252  1.0000
  C   C326      1.0  0.80562  0.94689  0.32554  1.0000
  O   O44       1.0  0.79371  0.95521  0.30139  1.0000
  H   H86       1.0  0.81427  0.95347  0.38236  1.0000
  C   C327      1.0  0.09953  0.90105  0.30129  1.0000
  C   C328      1.0  0.12719  0.87950  0.31392  1.0000
  N   N195      1.0  0.10361  0.86745  0.32088  1.0000
  C   C329      1.0  0.08925  0.87655  0.31361  1.0000
  C   C330      1.0  0.06574  0.86160  0.32639  1.0000
  O   O45       1.0  0.05730  0.84143  0.30148  1.0000
  H   H87       1.0  0.05948  0.86378  0.38390  1.0000
  C   C331      1.0  0.90340  0.80909  0.30128  1.0000
  C   C332      1.0  0.88184  0.75985  0.31345  1.0000
  N   N196      1.0  0.86982  0.77140  0.32106  1.0000
  C   C333      1.0  0.87891  0.79487  0.31415  1.0000
  C   C334      1.0  0.86395  0.80336  0.32769  1.0000
  O   O46       1.0  0.84349  0.79152  0.30654  1.0000
  H   H88       1.0  0.86669  0.81285  0.38280  1.0000
  C   C335      1.0  0.20369  0.09719  0.29973  1.0000
  C   C336      1.0  0.25292  0.12495  0.31163  1.0000
  N   N197      1.0  0.24141  0.10139  0.31966  1.0000
  C   C337      1.0  0.21794  0.08698  0.31291  1.0000
  C   C338      1.0  0.20948  0.06355  0.32667  1.0000
  O   O47       1.0  0.22134  0.05493  0.30579  1.0000
  H   H89       1.0  0.19997  0.05681  0.38176  1.0000
  C   C339      1.0  0.91558  0.10930  0.29939  1.0000
  C   C340      1.0  0.88780  0.13077  0.31105  1.0000
  N   N198      1.0  0.91136  0.14284  0.31885  1.0000
  C   C341      1.0  0.92578  0.13379  0.31209  1.0000
  C   C342      1.0  0.94926  0.14871  0.32559  1.0000
  O   O48       1.0  0.95761  0.16897  0.30176  1.0000
  H   H90       1.0  0.95577  0.14658  0.38247  1.0000
  N   N199      1.0  0.09668  0.53932  0.39775  1.0000
  C   C343      1.0  0.09786  0.56027  0.40400  1.0000
  H   H91       1.0  0.09262  0.56442  0.46249  1.0000
  N   N200      1.0  0.47498  0.56089  0.39206  1.0000
  C   C344      1.0  0.45450  0.54089  0.40414  1.0000
  H   H92       1.0  0.45155  0.53233  0.46422  1.0000
  N   N201      1.0  0.45200  0.91692  0.39530  1.0000
  C   C345      1.0  0.47208  0.91656  0.40691  1.0000
  H   H93       1.0  0.48079  0.92240  0.46660  1.0000
  N   N202      1.0  0.91856  0.47216  0.39250  1.0000
  C   C346      1.0  0.91813  0.45167  0.40374  1.0000
  H   H94       1.0  0.92316  0.44832  0.46438  1.0000
  N   N203      1.0  0.54172  0.45025  0.39837  1.0000
  C   C347      1.0  0.56268  0.47002  0.40443  1.0000
  H   H95       1.0  0.56677  0.47953  0.46259  1.0000
  N   N204      1.0  0.56217  0.09340  0.39918  1.0000
  C   C348      1.0  0.54237  0.09449  0.40639  1.0000
  H   H96       1.0  0.53274  0.08846  0.46404  1.0000
  C   C349      1.0  0.98440  0.43404  0.34202  1.0000
  C   C350      1.0  0.03315  0.45663  0.33110  1.0000
  N   N205      1.0  0.02183  0.46701  0.36721  1.0000
  C   C351      1.0  0.99836  0.45705  0.37602  1.0000
  C   C352      1.0  0.98974  0.46955  0.42024  1.0000
  O   O49       1.0  0.00288  0.48948  0.44515  1.0000
  H   H97       1.0  0.97645  0.46065  0.46169  1.0000
  C   C353      1.0  0.57759  0.55108  0.30331  1.0000
  C   C354      1.0  0.55552  0.57795  0.29978  1.0000
  N   N206      1.0  0.54343  0.55435  0.29989  1.0000
  C   C355      1.0  0.55287  0.54032  0.30079  1.0000
  C   C356      1.0  0.53768  0.51661  0.30191  1.0000
  O   O50       1.0  0.51957  0.50892  0.25910  1.0000
  H   H98       1.0  0.53620  0.50871  0.36012  1.0000
  C   C357      1.0  0.46125  0.02879  0.30830  1.0000
  C   C358      1.0  0.43440  0.97985  0.30438  1.0000
  N   N207      1.0  0.45799  0.99135  0.30731  1.0000
  C   C359      1.0  0.47201  0.01482  0.30868  1.0000
  C   C360      1.0  0.49568  0.02330  0.31318  1.0000
  O   O51       1.0  0.50385  0.01322  0.27118  1.0000
  H   H99       1.0  0.50269  0.02925  0.37319  1.0000
  C   C361      1.0  0.03144  0.57514  0.30579  1.0000
  C   C362      1.0  0.98251  0.55306  0.30195  1.0000
  N   N208      1.0  0.99401  0.54097  0.30320  1.0000
  C   C363      1.0  0.01747  0.55041  0.30447  1.0000
  C   C364      1.0  0.02588  0.53516  0.30684  1.0000
  O   O52       1.0  0.01566  0.51677  0.26576  1.0000
  H   H100      1.0  0.03286  0.53428  0.36475  1.0000
  C   C365      1.0  0.43651  0.45713  0.34236  1.0000
  C   C366      1.0  0.45910  0.43096  0.33164  1.0000
  N   N209      1.0  0.46956  0.45275  0.36681  1.0000
  C   C367      1.0  0.45962  0.46629  0.37542  1.0000
  C   C368      1.0  0.47225  0.48754  0.41860  1.0000
  O   O53       1.0  0.49239  0.49461  0.44128  1.0000
  H   H101      1.0  0.46353  0.49189  0.46113  1.0000
  C   C369      1.0  0.55560  0.98200  0.34312  1.0000
  C   C370      1.0  0.58173  0.03073  0.33150  1.0000
  N   N210      1.0  0.56015  0.01944  0.36848  1.0000
  C   C371      1.0  0.54663  0.99598  0.37774  1.0000
  C   C372      1.0  0.52559  0.98731  0.42288  1.0000
  O   O54       1.0  0.51937  0.00078  0.44938  1.0000
  H   H102      1.0  0.52136  0.97409  0.46434  1.0000
  N   N211      1.0  0.14323  0.12196  0.29555  1.0000
  C   C373      1.0  0.13419  0.13637  0.29667  1.0000
  H   H103      1.0  0.14517  0.15390  0.30227  1.0000
  N   N212      1.0  0.89085  0.02410  0.29562  1.0000
  C   C374      1.0  0.87643  0.00064  0.29684  1.0000
  H   H104      1.0  0.85891  0.99411  0.30252  1.0000
  N   N213      1.0  0.98863  0.86957  0.29723  1.0000
  C   C375      1.0  0.01209  0.87862  0.29854  1.0000
  H   H105      1.0  0.01863  0.86766  0.30494  1.0000
  N   N214      1.0  0.87181  0.88838  0.29651  1.0000
  C   C376      1.0  0.88094  0.87404  0.29779  1.0000
  H   H106      1.0  0.87001  0.85651  0.30381  1.0000
  N   N215      1.0  0.12428  0.98629  0.29634  1.0000
  C   C377      1.0  0.13868  0.00975  0.29730  1.0000
  H   H107      1.0  0.15621  0.01631  0.30293  1.0000
  N   N216      1.0  0.02650  0.14086  0.29572  1.0000
  C   C378      1.0  0.00304  0.13178  0.29704  1.0000
  H   H108      1.0  0.99647  0.14274  0.30305  1.0000
