data_image0
_chemical_formula_structural       C2NC2HC3NCH2C3H2C3H2CH3CH2C3H2C3H2C3H4C3H4C2H6C2H6C2H6C2H6C2H6C2H6C4NC2NCHCH2C4NC2NCHCH2C3NCH2C4NC2NCHCH2C4NC2NCHCH2C2NC2HC4NC2NCHCH2C4NC2NCHCH2C4NC2NCHCH2C4NC2NCHCH2C4NC2NCHCH2C4NC2NCHCH2C15H7C24H15C15H7C24H15C24H15C24H15C24H15C24H15C24H15C24H15C24H15C24H15C4NC2NCHCHC4NC2NCHCHC4NC2NCHCHC4NC2NCHCHC4NC2NCHCHC4NC2NCHCHC2H5C2H5CH2C2H5C2H5CH3C2H5C2H5C2H5C2H5C2H5C2H5
_chemical_formula_sum              "C468 N36 H324"
_cell_length_a       75.8965
_cell_length_b       75.8964
_cell_length_c       14.9478
_cell_angle_alpha    90
_cell_angle_beta     90
_cell_angle_gamma    120

_space_group_name_H-M_alt    "P 1"
_space_group_IT_number       1

loop_
  _space_group_symop_operation_xyz
  'x, y, z'

loop_
  _atom_site_type_symbol
  _atom_site_label
  _atom_site_symmetry_multiplicity
  _atom_site_fract_x
  _atom_site_fract_y
  _atom_site_fract_z
  _atom_site_occupancy
  C   C1        1.0  0.00920  0.80191  0.25320  1.0000
  C   C2        1.0  0.02008  0.80590  0.33493  1.0000
  N   N1        1.0  0.01904  0.80784  0.17341  1.0000
  C   C3        1.0  0.00982  0.80460  0.09247  1.0000
  C   C4        1.0  0.02290  0.81191  0.01225  1.0000
  H   H1        1.0  0.03901  0.81962  0.03005  1.0000
  C   C5        1.0  0.02022  0.20196  0.33142  1.0000
  C   C6        1.0  0.00873  0.19454  0.25148  1.0000
  C   C7        1.0  0.00803  0.19153  0.09089  1.0000
  N   N2        1.0  0.01792  0.19789  0.17029  1.0000
  C   C8        1.0  0.02087  0.19617  0.01033  1.0000
  H   H2        1.0  0.03124  0.19025  0.01861  1.0000
  H   H3        1.0  0.02978  0.21261  0.00095  1.0000
  C   C9        1.0  0.05330  0.20514  0.28746  1.0000
  C   C10       1.0  0.04208  0.21270  0.33281  1.0000
  C   C11       1.0  0.05324  0.23109  0.38112  1.0000
  H   H4        1.0  0.04594  0.19166  0.25338  1.0000
  H   H5        1.0  0.04583  0.23720  0.41492  1.0000
  C   C12       1.0  0.05301  0.81024  0.38959  1.0000
  C   C13       1.0  0.04193  0.81726  0.33926  1.0000
  C   C14       1.0  0.05326  0.83594  0.29325  1.0000
  H   H6        1.0  0.04553  0.79679  0.42388  1.0000
  H   H7        1.0  0.04599  0.84194  0.25761  1.0000
  C   C15       1.0  0.00848  0.79812  0.41397  1.0000
  H   H8        1.0  0.01558  0.80071  0.47455  1.0000
  H   H9        1.0  0.02003  0.82261  0.64190  1.0000
  H   H10       1.0  0.01969  0.79899  0.63625  1.0000
  C   C16       1.0  0.00922  0.19840  0.41216  1.0000
  H   H11       1.0  0.01683  0.20346  0.47138  1.0000
  H   H12       1.0  0.01192  0.18937  0.61695  1.0000
  C   C17       1.0  0.08598  0.23421  0.33653  1.0000
  C   C18       1.0  0.07474  0.21571  0.28884  1.0000
  C   C19       1.0  0.07468  0.24158  0.38294  1.0000
  H   H13       1.0  0.08208  0.20979  0.25320  1.0000
  H   H14       1.0  0.08197  0.25464  0.41998  1.0000
  C   C20       1.0  0.08586  0.83958  0.34383  1.0000
  C   C21       1.0  0.07445  0.82115  0.39187  1.0000
  C   C22       1.0  0.07469  0.84673  0.29485  1.0000
  H   H15       1.0  0.08167  0.81544  0.42976  1.0000
  H   H16       1.0  0.08206  0.85975  0.25762  1.0000
  C   C23       1.0  0.11920  0.26655  0.33261  1.0000
  C   C24       1.0  0.10788  0.24504  0.33765  1.0000
  C   C25       1.0  0.11898  0.23462  0.34331  1.0000
  H   H17       1.0  0.13118  0.20974  0.25767  1.0000
  H   H18       1.0  0.13159  0.30371  0.41804  1.0000
  H   H19       1.0  0.11112  0.21913  0.35031  1.0000
  H   H20       1.0  0.11151  0.27433  0.32493  1.0000
  C   C26       1.0  0.10779  0.85039  0.34262  1.0000
  C   C27       1.0  0.11888  0.83993  0.33879  1.0000
  C   C28       1.0  0.11912  0.87195  0.34326  1.0000
  H   H21       1.0  0.13120  0.90885  0.25318  1.0000
  H   H22       1.0  0.13107  0.81500  0.24807  1.0000
  H   H23       1.0  0.11103  0.82437  0.33910  1.0000
  H   H24       1.0  0.11150  0.87981  0.35029  1.0000
  C   C29       1.0  0.19345  0.37673  0.25917  1.0000
  C   C30       1.0  0.20438  0.39814  0.25938  1.0000
  H   H25       1.0  0.20943  0.40550  0.19961  1.0000
  H   H26       1.0  0.19086  0.36939  0.19919  1.0000
  H   H27       1.0  0.16892  0.36688  0.03114  1.0000
  H   H28       1.0  0.19249  0.36713  0.03758  1.0000
  H   H29       1.0  0.19545  0.40260  0.05402  1.0000
  H   H30       1.0  0.21866  0.42023  0.00246  1.0000
  C   C31       1.0  0.61420  0.80416  0.25919  1.0000
  C   C32       1.0  0.59279  0.79367  0.25941  1.0000
  H   H31       1.0  0.58543  0.79136  0.19964  1.0000
  H   H32       1.0  0.62154  0.80889  0.19921  1.0000
  H   H33       1.0  0.62406  0.78948  0.03116  1.0000
  H   H34       1.0  0.62381  0.81281  0.03759  1.0000
  H   H35       1.0  0.58834  0.78029  0.05405  1.0000
  H   H36       1.0  0.57071  0.78587  0.00252  1.0000
  C   C33       1.0  0.18677  0.79749  0.25918  1.0000
  C   C34       1.0  0.19726  0.78656  0.25939  1.0000
  H   H37       1.0  0.19956  0.78151  0.19962  1.0000
  H   H38       1.0  0.18203  0.80008  0.19920  1.0000
  H   H39       1.0  0.20144  0.82201  0.03116  1.0000
  H   H40       1.0  0.17811  0.79844  0.03759  1.0000
  H   H41       1.0  0.21063  0.79548  0.05404  1.0000
  H   H42       1.0  0.20504  0.77227  0.00250  1.0000
  C   C35       1.0  0.80284  0.60886  0.25920  1.0000
  C   C36       1.0  0.79191  0.58745  0.25943  1.0000
  H   H43       1.0  0.78687  0.58009  0.19966  1.0000
  H   H44       1.0  0.80544  0.61620  0.19922  1.0000
  H   H45       1.0  0.82736  0.61872  0.03118  1.0000
  H   H46       1.0  0.80380  0.61848  0.03760  1.0000
  H   H47       1.0  0.80084  0.58301  0.05408  1.0000
  H   H48       1.0  0.77762  0.56538  0.00256  1.0000
  C   C37       1.0  0.38207  0.18141  0.25917  1.0000
  C   C38       1.0  0.40349  0.19190  0.25938  1.0000
  H   H49       1.0  0.41085  0.19421  0.19960  1.0000
  H   H50       1.0  0.37474  0.17667  0.19920  1.0000
  H   H51       1.0  0.37223  0.19609  0.03114  1.0000
  H   H52       1.0  0.37248  0.17277  0.03759  1.0000
  H   H53       1.0  0.40795  0.20529  0.05402  1.0000
  H   H54       1.0  0.42558  0.19971  0.00246  1.0000
  C   C39       1.0  0.80952  0.18810  0.25922  1.0000
  C   C40       1.0  0.79903  0.19904  0.25944  1.0000
  H   H55       1.0  0.79671  0.20408  0.19967  1.0000
  H   H56       1.0  0.81425  0.18551  0.19924  1.0000
  H   H57       1.0  0.79484  0.16357  0.03118  1.0000
  H   H58       1.0  0.81816  0.18714  0.03761  1.0000
  H   H59       1.0  0.78564  0.19009  0.05408  1.0000
  H   H60       1.0  0.79123  0.21331  0.00254  1.0000
  C   C41       1.0  0.20731  0.17988  0.33146  1.0000
  C   C42       1.0  0.19989  0.18395  0.25152  1.0000
  C   C43       1.0  0.18902  0.19473  0.25324  1.0000
  C   C44       1.0  0.18503  0.20162  0.33497  1.0000
  N   N3        1.0  0.18309  0.19864  0.17344  1.0000
  C   C45       1.0  0.18632  0.19265  0.09251  1.0000
  C   C46       1.0  0.19688  0.18164  0.09092  1.0000
  N   N4        1.0  0.20323  0.17810  0.17033  1.0000
  C   C47       1.0  0.17902  0.19842  0.01229  1.0000
  H   H61       1.0  0.17130  0.20682  0.03009  1.0000
  C   C48       1.0  0.20152  0.17344  0.01036  1.0000
  H   H62       1.0  0.19559  0.15715  0.01864  1.0000
  H   H63       1.0  0.21796  0.18097  0.00099  1.0000
  C   C49       1.0  0.81104  0.01486  0.33144  1.0000
  C   C50       1.0  0.80697  0.00337  0.25150  1.0000
  C   C51       1.0  0.79619  0.98172  0.25322  1.0000
  C   C52       1.0  0.78930  0.97084  0.33495  1.0000
  N   N5        1.0  0.79229  0.97189  0.17343  1.0000
  C   C53       1.0  0.79828  0.98111  0.09250  1.0000
  C   C54       1.0  0.80929  0.00267  0.09090  1.0000
  N   N6        1.0  0.81282  0.01257  0.17030  1.0000
  C   C55       1.0  0.79250  0.96803  0.01228  1.0000
  H   H64       1.0  0.78410  0.95191  0.03009  1.0000
  C   C56       1.0  0.81748  0.01551  0.01034  1.0000
  H   H65       1.0  0.83378  0.02588  0.01861  1.0000
  H   H66       1.0  0.80996  0.02442  0.00096  1.0000
  C   C57       1.0  0.97607  0.78363  0.33142  1.0000
  C   C58       1.0  0.98755  0.79104  0.25148  1.0000
  C   C59       1.0  0.98825  0.79405  0.09088  1.0000
  N   N7        1.0  0.97836  0.78770  0.17029  1.0000
  C   C60       1.0  0.97542  0.78941  0.01032  1.0000
  H   H67       1.0  0.96505  0.79533  0.01859  1.0000
  H   H68       1.0  0.96650  0.77297  0.00095  1.0000
  C   C61       1.0  0.78897  0.80569  0.33144  1.0000
  C   C62       1.0  0.79639  0.80163  0.25149  1.0000
  C   C63       1.0  0.80725  0.79084  0.25321  1.0000
  C   C64       1.0  0.81124  0.78395  0.33494  1.0000
  N   N8        1.0  0.81318  0.78694  0.17341  1.0000
  C   C65       1.0  0.80995  0.79293  0.09248  1.0000
  C   C66       1.0  0.79939  0.80394  0.09090  1.0000
  N   N9        1.0  0.79304  0.80747  0.17031  1.0000
  C   C67       1.0  0.81726  0.78716  0.01226  1.0000
  H   H69       1.0  0.82497  0.77876  0.03007  1.0000
  C   C68       1.0  0.79475  0.81213  0.01034  1.0000
  H   H70       1.0  0.80068  0.82843  0.01863  1.0000
  H   H71       1.0  0.77831  0.80461  0.00096  1.0000
  C   C69       1.0  0.18524  0.97071  0.33144  1.0000
  C   C70       1.0  0.18930  0.98220  0.25150  1.0000
  C   C71       1.0  0.20009  0.00385  0.25322  1.0000
  C   C72       1.0  0.20697  0.01473  0.33495  1.0000
  N   N10       1.0  0.20399  0.01368  0.17343  1.0000
  C   C73       1.0  0.19800  0.00446  0.09249  1.0000
  C   C74       1.0  0.18700  0.98290  0.09090  1.0000
  N   N11       1.0  0.18346  0.97301  0.17030  1.0000
  C   C75       1.0  0.20378  0.01755  0.01227  1.0000
  H   H72       1.0  0.21217  0.03366  0.03008  1.0000
  C   C76       1.0  0.17880  0.97006  0.01034  1.0000
  H   H73       1.0  0.16250  0.95969  0.01861  1.0000
  H   H74       1.0  0.18633  0.96115  0.00097  1.0000
  C   C77       1.0  0.98708  0.18368  0.25321  1.0000
  C   C78       1.0  0.97620  0.17968  0.33493  1.0000
  N   N12       1.0  0.97725  0.17774  0.17341  1.0000
  C   C79       1.0  0.98647  0.18097  0.09248  1.0000
  C   C80       1.0  0.97338  0.17366  0.01226  1.0000
  H   H75       1.0  0.95727  0.16595  0.03007  1.0000
  C   C81       1.0  0.21871  0.58350  0.33176  1.0000
  C   C82       1.0  0.22016  0.59427  0.25187  1.0000
  C   C83       1.0  0.21962  0.61275  0.25439  1.0000
  C   C84       1.0  0.21769  0.62097  0.33669  1.0000
  N   N13       1.0  0.22206  0.62268  0.17571  1.0000
  C   C85       1.0  0.22457  0.61615  0.09470  1.0000
  C   C86       1.0  0.22524  0.59782  0.09217  1.0000
  N   N14       1.0  0.22322  0.58806  0.17094  1.0000
  C   C87       1.0  0.22592  0.62835  0.01531  1.0000
  H   H76       1.0  0.22519  0.64189  0.03383  1.0000
  C   C88       1.0  0.22796  0.58829  0.01110  1.0000
  H   H77       1.0  0.21455  0.57334  0.00131  1.0000
  H   H78       1.0  0.24123  0.58644  0.01936  1.0000
  C   C89       1.0  0.40743  0.62268  0.33201  1.0000
  C   C90       1.0  0.39670  0.61329  0.25212  1.0000
  C   C91       1.0  0.37823  0.59427  0.25468  1.0000
  C   C92       1.0  0.36995  0.58417  0.33701  1.0000
  N   N15       1.0  0.36836  0.58671  0.17595  1.0000
  C   C93       1.0  0.37493  0.59569  0.09487  1.0000
  C   C94       1.0  0.39325  0.61470  0.09231  1.0000
  N   N16       1.0  0.40296  0.62251  0.17112  1.0000
  C   C95       1.0  0.36282  0.58475  0.01543  1.0000
  H   H79       1.0  0.34928  0.57047  0.03398  1.0000
  C   C96       1.0  0.40281  0.62691  0.01119  1.0000
  H   H80       1.0  0.41775  0.62840  0.00150  1.0000
  H   H81       1.0  0.40471  0.64205  0.01925  1.0000
  C   C97       1.0  0.36824  0.77217  0.33189  1.0000
  C   C98       1.0  0.37757  0.77075  0.25199  1.0000
  C   C99       1.0  0.39660  0.77131  0.25450  1.0000
  C   C100      1.0  0.40674  0.77322  0.33681  1.0000
  N   N17       1.0  0.40410  0.76889  0.17581  1.0000
  C   C101      1.0  0.39508  0.76640  0.09479  1.0000
  C   C102      1.0  0.37607  0.76571  0.09226  1.0000
  N   N18       1.0  0.36831  0.76770  0.17106  1.0000
  C   C103      1.0  0.40594  0.76509  0.01538  1.0000
  H   H82       1.0  0.42022  0.76583  0.03390  1.0000
  C   C104      1.0  0.36382  0.76299  0.01119  1.0000
  H   H83       1.0  0.36227  0.77640  0.00143  1.0000
  H   H84       1.0  0.34870  0.74972  0.01942  1.0000
  C   C105      1.0  0.77750  0.40206  0.33208  1.0000
  C   C106      1.0  0.77623  0.39138  0.25215  1.0000
  C   C107      1.0  0.77680  0.37292  0.25471  1.0000
  C   C108      1.0  0.77859  0.36463  0.33706  1.0000
  N   N19       1.0  0.77456  0.36309  0.17594  1.0000
  C   C109      1.0  0.77220  0.36968  0.09484  1.0000
  C   C110      1.0  0.77146  0.38798  0.09230  1.0000
  N   N20       1.0  0.77331  0.39766  0.17113  1.0000
  C   C111      1.0  0.77110  0.35761  0.01537  1.0000
  H   H85       1.0  0.77186  0.34408  0.03392  1.0000
  C   C112      1.0  0.76884  0.39755  0.01116  1.0000
  H   H86       1.0  0.78229  0.41249  0.00153  1.0000
  H   H87       1.0  0.75559  0.39945  0.01915  1.0000
  C   C113      1.0  0.58884  0.36295  0.33174  1.0000
  C   C114      1.0  0.59960  0.37226  0.25182  1.0000
  C   C115      1.0  0.61807  0.39128  0.25433  1.0000
  C   C116      1.0  0.62628  0.40145  0.33662  1.0000
  N   N21       1.0  0.62800  0.39877  0.17566  1.0000
  C   C117      1.0  0.62149  0.38972  0.09466  1.0000
  C   C118      1.0  0.60317  0.37072  0.09214  1.0000
  N   N22       1.0  0.59340  0.36298  0.17090  1.0000
  C   C119      1.0  0.63369  0.40057  0.01527  1.0000
  H   H88       1.0  0.64723  0.41484  0.03379  1.0000
  C   C120      1.0  0.59365  0.35846  0.01105  1.0000
  H   H89       1.0  0.57868  0.35689  0.00127  1.0000
  H   H90       1.0  0.59181  0.34334  0.01935  1.0000
  C   C121      1.0  0.62798  0.21333  0.33197  1.0000
  C   C122      1.0  0.61859  0.21464  0.25207  1.0000
  C   C123      1.0  0.59958  0.21412  0.25462  1.0000
  C   C124      1.0  0.58951  0.21235  0.33697  1.0000
  N   N23       1.0  0.59201  0.21640  0.17587  1.0000
  C   C125      1.0  0.60096  0.21875  0.09477  1.0000
  C   C126      1.0  0.61996  0.21943  0.09222  1.0000
  N   N24       1.0  0.62778  0.21755  0.17104  1.0000
  C   C127      1.0  0.59001  0.21990  0.01531  1.0000
  H   H91       1.0  0.57574  0.21917  0.03387  1.0000
  C   C128      1.0  0.63215  0.22203  0.01108  1.0000
  H   H92       1.0  0.63360  0.20856  0.00144  1.0000
  H   H93       1.0  0.64731  0.23525  0.01907  1.0000
  C   C129      1.0  0.14054  0.24484  0.34265  1.0000
  C   C130      1.0  0.15101  0.26639  0.33883  1.0000
  C   C131      1.0  0.14076  0.27769  0.33443  1.0000
  C   C132      1.0  0.15176  0.29962  0.33307  1.0000
  C   C133      1.0  0.17026  0.31085  0.28537  1.0000
  C   C134      1.0  0.18127  0.33230  0.28688  1.0000
  C   C135      1.0  0.17428  0.34355  0.33604  1.0000
  C   C136      1.0  0.15556  0.33238  0.38196  1.0000
  C   C137      1.0  0.14467  0.31096  0.38114  1.0000
  C   C138      1.0  0.15135  0.23372  0.34387  1.0000
  C   C139      1.0  0.16978  0.24074  0.39191  1.0000
  C   C140      1.0  0.18069  0.23021  0.38964  1.0000
  C   C141      1.0  0.17367  0.21211  0.33929  1.0000
  C   C142      1.0  0.15499  0.20476  0.29328  1.0000
  C   C143      1.0  0.14420  0.21540  0.29486  1.0000
  H   H94       1.0  0.19415  0.23618  0.42389  1.0000
  H   H95       1.0  0.17549  0.25367  0.42978  1.0000
  H   H96       1.0  0.14899  0.19149  0.25765  1.0000
  H   H97       1.0  0.14958  0.33979  0.41673  1.0000
  H   H98       1.0  0.19475  0.33965  0.25269  1.0000
  H   H99       1.0  0.17594  0.30351  0.24811  1.0000
  H   H100      1.0  0.16656  0.27410  0.33914  1.0000
  C   C144      1.0  0.74609  0.88314  0.34265  1.0000
  C   C145      1.0  0.72453  0.87205  0.33882  1.0000
  C   C146      1.0  0.71324  0.85050  0.33443  1.0000
  C   C147      1.0  0.72438  0.84008  0.33262  1.0000
  C   C148      1.0  0.74589  0.85028  0.33766  1.0000
  C   C149      1.0  0.75631  0.87180  0.34332  1.0000
  C   C150      1.0  0.69132  0.83958  0.33307  1.0000
  C   C151      1.0  0.68008  0.84684  0.28537  1.0000
  C   C152      1.0  0.65863  0.83640  0.28686  1.0000
  C   C153      1.0  0.64738  0.81816  0.33604  1.0000
  C   C154      1.0  0.65855  0.81061  0.38196  1.0000
  C   C155      1.0  0.67997  0.82115  0.38114  1.0000
  C   C156      1.0  0.75721  0.90507  0.34387  1.0000
  C   C157      1.0  0.75019  0.91648  0.39189  1.0000
  C   C158      1.0  0.76072  0.93792  0.38964  1.0000
  C   C159      1.0  0.77882  0.94900  0.33928  1.0000
  C   C160      1.0  0.78616  0.93766  0.29328  1.0000
  C   C161      1.0  0.77553  0.91624  0.29486  1.0000
  C   C162      1.0  0.75672  0.83921  0.33656  1.0000
  C   C163      1.0  0.77523  0.84647  0.28889  1.0000
  C   C164      1.0  0.78579  0.83560  0.28750  1.0000
  C   C165      1.0  0.77823  0.81681  0.33283  1.0000
  C   C166      1.0  0.75984  0.80960  0.38117  1.0000
  C   C167      1.0  0.74935  0.82054  0.38299  1.0000
  H   H101      1.0  0.75474  0.94540  0.42387  1.0000
  H   H102      1.0  0.73725  0.90926  0.42976  1.0000
  H   H103      1.0  0.79944  0.94494  0.25765  1.0000
  H   H104      1.0  0.78118  0.90887  0.25767  1.0000
  H   H105      1.0  0.78114  0.85973  0.25321  1.0000
  H   H106      1.0  0.79927  0.84172  0.25340  1.0000
  H   H107      1.0  0.73629  0.81477  0.41998  1.0000
  H   H108      1.0  0.75373  0.79607  0.41493  1.0000
  H   H109      1.0  0.68722  0.81531  0.41804  1.0000
  H   H110      1.0  0.65115  0.79722  0.41675  1.0000
  H   H111      1.0  0.65128  0.84252  0.25270  1.0000
  H   H112      1.0  0.68742  0.85986  0.24811  1.0000
  H   H113      1.0  0.71683  0.87989  0.33913  1.0000
  H   H114      1.0  0.77179  0.87942  0.35031  1.0000
  H   H115      1.0  0.71660  0.82461  0.32493  1.0000
  C   C168      1.0  0.14042  0.85018  0.33440  1.0000
  C   C169      1.0  0.15085  0.87174  0.33259  1.0000
  C   C170      1.0  0.14064  0.88305  0.33763  1.0000
  C   C171      1.0  0.15134  0.83918  0.33305  1.0000
  C   C172      1.0  0.14408  0.82067  0.28536  1.0000
  C   C173      1.0  0.15452  0.80966  0.28685  1.0000
  C   C174      1.0  0.17276  0.81666  0.33604  1.0000
  C   C175      1.0  0.18031  0.83538  0.38196  1.0000
  C   C176      1.0  0.16977  0.84626  0.38117  1.0000
  C   C177      1.0  0.15172  0.90496  0.33653  1.0000
  C   C178      1.0  0.14445  0.91619  0.28886  1.0000
  C   C179      1.0  0.15533  0.93763  0.28746  1.0000
  C   C180      1.0  0.17412  0.94886  0.33283  1.0000
  C   C181      1.0  0.18133  0.93769  0.38114  1.0000
  C   C182      1.0  0.17039  0.91625  0.38297  1.0000
  H   H116      1.0  0.14921  0.94499  0.25339  1.0000
  H   H117      1.0  0.17616  0.90896  0.41996  1.0000
  H   H118      1.0  0.19486  0.94510  0.41493  1.0000
  H   H119      1.0  0.17561  0.85935  0.41801  1.0000
  H   H120      1.0  0.19370  0.84136  0.41673  1.0000
  H   H121      1.0  0.14840  0.79619  0.25268  1.0000
  H   H122      1.0  0.16631  0.87943  0.32491  1.0000
  C   C183      1.0  0.85574  0.74075  0.34263  1.0000
  C   C184      1.0  0.84528  0.71920  0.33880  1.0000
  C   C185      1.0  0.85553  0.70790  0.33440  1.0000
  C   C186      1.0  0.87709  0.71903  0.33259  1.0000
  C   C187      1.0  0.88840  0.74055  0.33762  1.0000
  C   C188      1.0  0.87731  0.75097  0.34325  1.0000
  C   C189      1.0  0.84453  0.68598  0.33306  1.0000
  C   C190      1.0  0.82602  0.67474  0.28536  1.0000
  C   C191      1.0  0.81502  0.65329  0.28685  1.0000
  C   C192      1.0  0.82201  0.64204  0.33605  1.0000
  C   C193      1.0  0.84073  0.65321  0.38198  1.0000
  C   C194      1.0  0.85161  0.67463  0.38118  1.0000
  C   C195      1.0  0.84493  0.75187  0.34385  1.0000
  C   C196      1.0  0.82651  0.74485  0.39189  1.0000
  C   C197      1.0  0.81559  0.75537  0.38960  1.0000
  C   C198      1.0  0.82261  0.77347  0.33926  1.0000
  C   C199      1.0  0.84129  0.78082  0.29326  1.0000
  C   C200      1.0  0.85208  0.77019  0.29486  1.0000
  C   C201      1.0  0.91031  0.75138  0.33651  1.0000
  C   C202      1.0  0.92155  0.76988  0.28882  1.0000
  C   C203      1.0  0.94298  0.78045  0.28746  1.0000
  C   C204      1.0  0.95421  0.77289  0.33281  1.0000
  C   C205      1.0  0.94304  0.75450  0.38112  1.0000
  C   C206      1.0  0.92161  0.74401  0.38294  1.0000
  H   H123      1.0  0.80214  0.74940  0.42388  1.0000
  H   H124      1.0  0.82079  0.73191  0.42976  1.0000
  H   H125      1.0  0.84728  0.79409  0.25761  1.0000
  H   H126      1.0  0.86510  0.77584  0.25762  1.0000
  H   H127      1.0  0.91421  0.77580  0.25317  1.0000
  H   H128      1.0  0.95034  0.79393  0.25337  1.0000
  H   H129      1.0  0.91432  0.73095  0.41996  1.0000
  H   H130      1.0  0.95045  0.74839  0.41491  1.0000
  H   H131      1.0  0.86470  0.68188  0.41802  1.0000
  H   H132      1.0  0.84672  0.64581  0.41675  1.0000
  H   H133      1.0  0.80154  0.64594  0.25270  1.0000
  H   H134      1.0  0.82035  0.68208  0.24808  1.0000
  H   H135      1.0  0.82973  0.71149  0.33912  1.0000
  H   H136      1.0  0.88517  0.76645  0.35027  1.0000
  H   H137      1.0  0.88478  0.71126  0.32491  1.0000
  C   C207      1.0  0.25018  0.10243  0.34266  1.0000
  C   C208      1.0  0.27174  0.11353  0.33883  1.0000
  C   C209      1.0  0.28304  0.13507  0.33444  1.0000
  C   C210      1.0  0.27190  0.14550  0.33265  1.0000
  C   C211      1.0  0.25038  0.13529  0.33766  1.0000
  C   C212      1.0  0.23996  0.11377  0.34328  1.0000
  C   C213      1.0  0.30496  0.14599  0.33309  1.0000
  C   C214      1.0  0.31620  0.13872  0.28538  1.0000
  C   C215      1.0  0.33764  0.14916  0.28689  1.0000
  C   C216      1.0  0.34890  0.16741  0.33605  1.0000
  C   C217      1.0  0.33773  0.17496  0.38198  1.0000
  C   C218      1.0  0.31631  0.16442  0.38117  1.0000
  C   C219      1.0  0.23907  0.08051  0.34387  1.0000
  C   C220      1.0  0.24608  0.06910  0.39192  1.0000
  C   C221      1.0  0.23556  0.04765  0.38962  1.0000
  C   C222      1.0  0.21746  0.03658  0.33928  1.0000
  C   C223      1.0  0.21011  0.04791  0.29328  1.0000
  C   C224      1.0  0.22074  0.06933  0.29488  1.0000
  C   C225      1.0  0.23955  0.14637  0.33655  1.0000
  C   C226      1.0  0.22105  0.13911  0.28887  1.0000
  C   C227      1.0  0.21049  0.14998  0.28750  1.0000
  C   C228      1.0  0.21805  0.16876  0.33285  1.0000
  C   C229      1.0  0.23643  0.17598  0.38118  1.0000
  C   C230      1.0  0.24692  0.16504  0.38299  1.0000
  H   H138      1.0  0.24153  0.04017  0.42390  1.0000
  H   H139      1.0  0.25902  0.07631  0.42979  1.0000
  H   H140      1.0  0.19684  0.04064  0.25763  1.0000
  H   H141      1.0  0.21510  0.07671  0.25765  1.0000
  H   H142      1.0  0.21513  0.12585  0.25320  1.0000
  H   H143      1.0  0.19701  0.14386  0.25340  1.0000
  H   H144      1.0  0.25999  0.17081  0.41998  1.0000
  H   H145      1.0  0.24254  0.18951  0.41493  1.0000
  H   H146      1.0  0.30906  0.17026  0.41805  1.0000
  H   H147      1.0  0.34513  0.18835  0.41674  1.0000
  H   H148      1.0  0.34499  0.14304  0.25268  1.0000
  H   H149      1.0  0.30885  0.12571  0.24810  1.0000
  H   H150      1.0  0.27944  0.10568  0.33914  1.0000
  H   H151      1.0  0.22448  0.10615  0.35031  1.0000
  H   H152      1.0  0.27968  0.16096  0.32495  1.0000
  C   C231      1.0  0.88849  0.13519  0.34265  1.0000
  C   C232      1.0  0.87740  0.14565  0.33883  1.0000
  C   C233      1.0  0.85586  0.13540  0.33443  1.0000
  C   C234      1.0  0.84543  0.11384  0.33266  1.0000
  C   C235      1.0  0.85564  0.10253  0.33765  1.0000
  C   C236      1.0  0.87716  0.11363  0.34327  1.0000
  C   C237      1.0  0.84493  0.14641  0.33309  1.0000
  C   C238      1.0  0.85220  0.16491  0.28538  1.0000
  C   C239      1.0  0.84176  0.17592  0.28690  1.0000
  C   C240      1.0  0.82352  0.16893  0.33608  1.0000
  C   C241      1.0  0.81597  0.15021  0.38200  1.0000
  C   C242      1.0  0.82651  0.13932  0.38118  1.0000
  C   C243      1.0  0.91042  0.14600  0.34385  1.0000
  C   C244      1.0  0.92183  0.16443  0.39189  1.0000
  C   C245      1.0  0.94328  0.17534  0.38960  1.0000
  C   C246      1.0  0.95435  0.16832  0.33926  1.0000
  C   C247      1.0  0.94302  0.14964  0.29326  1.0000
  C   C248      1.0  0.92159  0.13885  0.29482  1.0000
  C   C249      1.0  0.84456  0.08062  0.33654  1.0000
  C   C250      1.0  0.85182  0.06938  0.28885  1.0000
  C   C251      1.0  0.84095  0.04795  0.28746  1.0000
  C   C252      1.0  0.82216  0.03672  0.33282  1.0000
  C   C253      1.0  0.81495  0.04789  0.38114  1.0000
  C   C254      1.0  0.82589  0.06932  0.38297  1.0000
  H   H153      1.0  0.95076  0.18879  0.42388  1.0000
  H   H154      1.0  0.91461  0.17014  0.42978  1.0000
  H   H155      1.0  0.95029  0.14364  0.25763  1.0000
  H   H156      1.0  0.91422  0.12582  0.25765  1.0000
  H   H157      1.0  0.86508  0.07672  0.25319  1.0000
  H   H158      1.0  0.84707  0.04059  0.25338  1.0000
  H   H159      1.0  0.82012  0.07662  0.41998  1.0000
  H   H160      1.0  0.80142  0.04048  0.41494  1.0000
  H   H161      1.0  0.82067  0.12624  0.41806  1.0000
  H   H162      1.0  0.80258  0.14422  0.41677  1.0000
  H   H163      1.0  0.84788  0.18939  0.25271  1.0000
  H   H164      1.0  0.86521  0.17058  0.24811  1.0000
  H   H165      1.0  0.88525  0.16120  0.33913  1.0000
  H   H166      1.0  0.88478  0.10577  0.35028  1.0000
  H   H167      1.0  0.82997  0.10615  0.32495  1.0000
  C   C255      1.0  0.25157  0.53000  0.33020  1.0000
  C   C256      1.0  0.24103  0.50849  0.32689  1.0000
  C   C257      1.0  0.25134  0.49718  0.32933  1.0000
  C   C258      1.0  0.27294  0.50826  0.33427  1.0000
  C   C259      1.0  0.28409  0.52977  0.33678  1.0000
  C   C260      1.0  0.27305  0.54020  0.33264  1.0000
  C   C261      1.0  0.24032  0.47525  0.33049  1.0000
  C   C262      1.0  0.22189  0.46414  0.37889  1.0000
  C   C263      1.0  0.21126  0.44271  0.38112  1.0000
  C   C264      1.0  0.21869  0.43132  0.33622  1.0000
  C   C265      1.0  0.23698  0.44234  0.28706  1.0000
  C   C266      1.0  0.24751  0.46378  0.28422  1.0000
  C   C267      1.0  0.24137  0.54158  0.33508  1.0000
  C   C268      1.0  0.22544  0.53840  0.27607  1.0000
  C   C269      1.0  0.21728  0.55155  0.27634  1.0000
  C   C270      1.0  0.22462  0.56825  0.33605  1.0000
  C   C271      1.0  0.23993  0.57081  0.39749  1.0000
  C   C272      1.0  0.24798  0.55770  0.39747  1.0000
  C   C273      1.0  0.30582  0.54115  0.34513  1.0000
  C   C274      1.0  0.31509  0.55769  0.40563  1.0000
  C   C275      1.0  0.33622  0.57105  0.40529  1.0000
  C   C276      1.0  0.34910  0.56832  0.34528  1.0000
  C   C277      1.0  0.33999  0.55105  0.28866  1.0000
  C   C278      1.0  0.31874  0.53767  0.28865  1.0000
  H   H168      1.0  0.20619  0.54907  0.23095  1.0000
  H   H169      1.0  0.22035  0.52707  0.22918  1.0000
  H   H170      1.0  0.24613  0.58289  0.44073  1.0000
  H   H171      1.0  0.25929  0.56051  0.44229  1.0000
  H   H172      1.0  0.30639  0.56079  0.44805  1.0000
  H   H173      1.0  0.34191  0.58357  0.44593  1.0000
  H   H174      1.0  0.31267  0.52608  0.24294  1.0000
  H   H175      1.0  0.34872  0.54848  0.24422  1.0000
  H   H176      1.0  0.26053  0.47095  0.24685  1.0000
  H   H177      1.0  0.24302  0.43483  0.25362  1.0000
  H   H178      1.0  0.19786  0.43548  0.41578  1.0000
  H   H179      1.0  0.21610  0.47156  0.41480  1.0000
  H   H180      1.0  0.22548  0.50096  0.32420  1.0000
  H   H181      1.0  0.28093  0.55579  0.33134  1.0000
  H   H182      1.0  0.28074  0.50055  0.34045  1.0000
  C   C279      1.0  0.46091  0.70905  0.33010  1.0000
  C   C280      1.0  0.48242  0.72001  0.32687  1.0000
  C   C281      1.0  0.49375  0.74163  0.32927  1.0000
  C   C282      1.0  0.48269  0.75218  0.33415  1.0000
  C   C283      1.0  0.46118  0.74184  0.33661  1.0000
  C   C284      1.0  0.45073  0.72036  0.33249  1.0000
  C   C285      1.0  0.51567  0.75252  0.33046  1.0000
  C   C286      1.0  0.52678  0.74521  0.37890  1.0000
  C   C287      1.0  0.54821  0.75600  0.38116  1.0000
  C   C288      1.0  0.55961  0.77482  0.33626  1.0000
  C   C289      1.0  0.54859  0.78209  0.28705  1.0000
  C   C290      1.0  0.52716  0.77119  0.28418  1.0000
  C   C291      1.0  0.44931  0.68727  0.33503  1.0000
  C   C292      1.0  0.45254  0.67451  0.27630  1.0000
  C   C293      1.0  0.43940  0.65320  0.27668  1.0000
  C   C294      1.0  0.42266  0.64384  0.33622  1.0000
  C   C295      1.0  0.42005  0.65661  0.39732  1.0000
  C   C296      1.0  0.43314  0.67777  0.39723  1.0000
  C   C297      1.0  0.44982  0.75219  0.34499  1.0000
  C   C298      1.0  0.43332  0.74496  0.40568  1.0000
  C   C299      1.0  0.41996  0.75273  0.40539  1.0000
  C   C300      1.0  0.42262  0.76827  0.34511  1.0000
  C   C301      1.0  0.43987  0.77641  0.28828  1.0000
  C   C302      1.0  0.45326  0.76855  0.28832  1.0000
  H   H183      1.0  0.44190  0.64457  0.23146  1.0000
  H   H184      1.0  0.46388  0.68073  0.22953  1.0000
  H   H185      1.0  0.40793  0.65074  0.44041  1.0000
  H   H186      1.0  0.43031  0.68629  0.44187  1.0000
  H   H187      1.0  0.43026  0.73320  0.44828  1.0000
  H   H188      1.0  0.40746  0.74592  0.44615  1.0000
  H   H189      1.0  0.46480  0.77401  0.24239  1.0000
  H   H190      1.0  0.44237  0.78764  0.24360  1.0000
  H   H191      1.0  0.52000  0.77704  0.24678  1.0000
  H   H192      1.0  0.55612  0.79564  0.25360  1.0000
  H   H193      1.0  0.55544  0.74982  0.41585  1.0000
  H   H194      1.0  0.51935  0.73200  0.41481  1.0000
  H   H195      1.0  0.48994  0.71198  0.32425  1.0000
  H   H196      1.0  0.43514  0.71267  0.33116  1.0000
  H   H197      1.0  0.49040  0.76768  0.34032  1.0000
  C   C303      1.0  0.28189  0.73933  0.33026  1.0000
  C   C304      1.0  0.27092  0.74987  0.32697  1.0000
  C   C305      1.0  0.24930  0.73958  0.32939  1.0000
  C   C306      1.0  0.23876  0.71797  0.33433  1.0000
  C   C307      1.0  0.24911  0.70681  0.33674  1.0000
  C   C308      1.0  0.27059  0.71784  0.33267  1.0000
  C   C309      1.0  0.23841  0.75060  0.33051  1.0000
  C   C310      1.0  0.24572  0.76902  0.37893  1.0000
  C   C311      1.0  0.23492  0.77966  0.38116  1.0000
  C   C312      1.0  0.21610  0.77224  0.33625  1.0000
  C   C313      1.0  0.20884  0.75395  0.28709  1.0000
  C   C314      1.0  0.21974  0.74341  0.28423  1.0000
  C   C315      1.0  0.30367  0.74952  0.33517  1.0000
  C   C316      1.0  0.31641  0.76546  0.27628  1.0000
  C   C317      1.0  0.33772  0.77361  0.27654  1.0000
  C   C318      1.0  0.34708  0.76625  0.33617  1.0000
  C   C319      1.0  0.33432  0.75094  0.39756  1.0000
  C   C320      1.0  0.31317  0.74289  0.39753  1.0000
  C   C321      1.0  0.23876  0.68509  0.34504  1.0000
  C   C322      1.0  0.24599  0.67581  0.40566  1.0000
  C   C323      1.0  0.23821  0.65468  0.40530  1.0000
  C   C324      1.0  0.22268  0.64181  0.34500  1.0000
  C   C325      1.0  0.21455  0.65093  0.28820  1.0000
  C   C326      1.0  0.22239  0.67218  0.28837  1.0000
  H   H198      1.0  0.34634  0.78470  0.23114  1.0000
  H   H199      1.0  0.31019  0.77055  0.22933  1.0000
  H   H200      1.0  0.34020  0.74472  0.44076  1.0000
  H   H201      1.0  0.30466  0.73157  0.44230  1.0000
  H   H202      1.0  0.25772  0.68449  0.44837  1.0000
  H   H203      1.0  0.24499  0.64897  0.44616  1.0000
  H   H204      1.0  0.21695  0.67826  0.24236  1.0000
  H   H205      1.0  0.20332  0.64222  0.24350  1.0000
  H   H206      1.0  0.21389  0.73040  0.24683  1.0000
  H   H207      1.0  0.19529  0.74791  0.25360  1.0000
  H   H208      1.0  0.24110  0.79307  0.41584  1.0000
  H   H209      1.0  0.25893  0.77481  0.41487  1.0000
  H   H210      1.0  0.27895  0.76543  0.32430  1.0000
  H   H211      1.0  0.27828  0.70995  0.33138  1.0000
  H   H212      1.0  0.22325  0.71017  0.34033  1.0000
  C   C327      1.0  0.74462  0.45556  0.33016  1.0000
  C   C328      1.0  0.75518  0.47707  0.32694  1.0000
  C   C329      1.0  0.74489  0.48841  0.32935  1.0000
  C   C330      1.0  0.72329  0.47736  0.33426  1.0000
  C   C331      1.0  0.71211  0.45585  0.33661  1.0000
  C   C332      1.0  0.72313  0.44539  0.33251  1.0000
  C   C333      1.0  0.75593  0.51034  0.33050  1.0000
  C   C334      1.0  0.77435  0.52144  0.37895  1.0000
  C   C335      1.0  0.78499  0.54287  0.38122  1.0000
  C   C336      1.0  0.77758  0.55427  0.33630  1.0000
  C   C337      1.0  0.75929  0.54326  0.28711  1.0000
  C   C338      1.0  0.74875  0.52182  0.28422  1.0000
  C   C339      1.0  0.75479  0.44395  0.33510  1.0000
  C   C340      1.0  0.77081  0.44720  0.27651  1.0000
  C   C341      1.0  0.77896  0.43405  0.27686  1.0000
  C   C342      1.0  0.77155  0.41729  0.33626  1.0000
  C   C343      1.0  0.75616  0.41467  0.39734  1.0000
  C   C344      1.0  0.74810  0.42777  0.39722  1.0000
  C   C345      1.0  0.69039  0.44449  0.34496  1.0000
  C   C346      1.0  0.68111  0.42801  0.40571  1.0000
  C   C347      1.0  0.65999  0.41464  0.40523  1.0000
  C   C348      1.0  0.64712  0.41731  0.34493  1.0000
  C   C349      1.0  0.65624  0.43456  0.28814  1.0000
  C   C350      1.0  0.67749  0.44794  0.28821  1.0000
  H   H213      1.0  0.79010  0.43656  0.23167  1.0000
  H   H214      1.0  0.77594  0.45855  0.22973  1.0000
  H   H215      1.0  0.74990  0.40255  0.44034  1.0000
  H   H216      1.0  0.73674  0.42493  0.44181  1.0000
  H   H217      1.0  0.68980  0.42494  0.44834  1.0000
  H   H218      1.0  0.65427  0.40216  0.44615  1.0000
  H   H219      1.0  0.68357  0.45946  0.24219  1.0000
  H   H220      1.0  0.64753  0.43706  0.24334  1.0000
  H   H221      1.0  0.73574  0.51467  0.24680  1.0000
  H   H222      1.0  0.75327  0.55078  0.25360  1.0000
  H   H223      1.0  0.79839  0.55009  0.41590  1.0000
  H   H224      1.0  0.78013  0.51401  0.41489  1.0000
  H   H225      1.0  0.77073  0.48459  0.32432  1.0000
  H   H226      1.0  0.71522  0.42980  0.33117  1.0000
  H   H227      1.0  0.71550  0.48508  0.34029  1.0000
  C   C351      1.0  0.53534  0.27660  0.33007  1.0000
  C   C352      1.0  0.51383  0.26562  0.32678  1.0000
  C   C353      1.0  0.50252  0.24400  0.32930  1.0000
  C   C354      1.0  0.51361  0.23348  0.33431  1.0000
  C   C355      1.0  0.53512  0.24384  0.33670  1.0000
  C   C356      1.0  0.54555  0.26532  0.33254  1.0000
  C   C357      1.0  0.48060  0.23309  0.33045  1.0000
  C   C358      1.0  0.46948  0.24040  0.37881  1.0000
  C   C359      1.0  0.44805  0.22959  0.38109  1.0000
  C   C360      1.0  0.43666  0.21076  0.33621  1.0000
  C   C361      1.0  0.44769  0.20351  0.28706  1.0000
  C   C362      1.0  0.46913  0.21442  0.28420  1.0000
  C   C363      1.0  0.54691  0.29838  0.33498  1.0000
  C   C364      1.0  0.54372  0.31111  0.27601  1.0000
  C   C365      1.0  0.55688  0.33242  0.27627  1.0000
  C   C366      1.0  0.57357  0.34179  0.33607  1.0000
  C   C367      1.0  0.57612  0.32904  0.39753  1.0000
  C   C368      1.0  0.56301  0.30788  0.39750  1.0000
  C   C369      1.0  0.54651  0.23351  0.34508  1.0000
  C   C370      1.0  0.56308  0.24080  0.40543  1.0000
  C   C371      1.0  0.57642  0.23301  0.40521  1.0000
  C   C372      1.0  0.57369  0.21740  0.34522  1.0000
  C   C373      1.0  0.55638  0.20919  0.28875  1.0000
  C   C374      1.0  0.54301  0.21708  0.28872  1.0000
  H   H228      1.0  0.55442  0.34104  0.23081  1.0000
  H   H229      1.0  0.53243  0.30488  0.22897  1.0000
  H   H230      1.0  0.58820  0.33492  0.44077  1.0000
  H   H231      1.0  0.56582  0.29938  0.44227  1.0000
  H   H232      1.0  0.56617  0.25259  0.44791  1.0000
  H   H233      1.0  0.58895  0.23985  0.44577  1.0000
  H   H234      1.0  0.53141  0.21154  0.24307  1.0000
  H   H235      1.0  0.55381  0.19790  0.24435  1.0000
  H   H236      1.0  0.47630  0.20857  0.24685  1.0000
  H   H237      1.0  0.44018  0.18995  0.25362  1.0000
  H   H238      1.0  0.44082  0.23576  0.41575  1.0000
  H   H239      1.0  0.47690  0.25361  0.41477  1.0000
  H   H240      1.0  0.50630  0.27364  0.32410  1.0000
  H   H241      1.0  0.56113  0.27303  0.33122  1.0000
  H   H242      1.0  0.50591  0.21797  0.34040  1.0000
  C   C375      1.0  0.71436  0.24623  0.32998  1.0000
  C   C376      1.0  0.72533  0.23569  0.32679  1.0000
  C   C377      1.0  0.74695  0.24600  0.32929  1.0000
  C   C378      1.0  0.75748  0.26760  0.33427  1.0000
  C   C379      1.0  0.74713  0.27876  0.33659  1.0000
  C   C380      1.0  0.72565  0.26772  0.33235  1.0000
  C   C381      1.0  0.75786  0.23497  0.33048  1.0000
  C   C382      1.0  0.75054  0.21655  0.37888  1.0000
  C   C383      1.0  0.76135  0.20593  0.38118  1.0000
  C   C384      1.0  0.78017  0.21335  0.33629  1.0000
  C   C385      1.0  0.78743  0.23164  0.28713  1.0000
  C   C386      1.0  0.77653  0.24217  0.28423  1.0000
  C   C387      1.0  0.69257  0.23603  0.33494  1.0000
  C   C388      1.0  0.67982  0.22005  0.27623  1.0000
  C   C389      1.0  0.65850  0.21187  0.27665  1.0000
  C   C390      1.0  0.64914  0.21925  0.33620  1.0000
  C   C391      1.0  0.66192  0.23463  0.39732  1.0000
  C   C392      1.0  0.68308  0.24270  0.39717  1.0000
  C   C393      1.0  0.75746  0.30048  0.34502  1.0000
  C   C394      1.0  0.75016  0.30974  0.40541  1.0000
  C   C395      1.0  0.75793  0.33087  0.40514  1.0000
  C   C396      1.0  0.77357  0.34377  0.34531  1.0000
  C   C397      1.0  0.78177  0.33467  0.28876  1.0000
  C   C398      1.0  0.77390  0.31342  0.28874  1.0000
  H   H243      1.0  0.64987  0.20073  0.23147  1.0000
  H   H244      1.0  0.68603  0.21490  0.22950  1.0000
  H   H245      1.0  0.65606  0.24090  0.44028  1.0000
  H   H246      1.0  0.69159  0.25407  0.44173  1.0000
  H   H247      1.0  0.73838  0.30104  0.44787  1.0000
  H   H248      1.0  0.75111  0.33656  0.44587  1.0000
  H   H249      1.0  0.77943  0.30737  0.24299  1.0000
  H   H250      1.0  0.79307  0.34341  0.24441  1.0000
  H   H251      1.0  0.78238  0.25519  0.24687  1.0000
  H   H252      1.0  0.80099  0.23768  0.25366  1.0000
  H   H253      1.0  0.75517  0.19252  0.41585  1.0000
  H   H254      1.0  0.73734  0.21077  0.41482  1.0000
  H   H255      1.0  0.71731  0.22014  0.32418  1.0000
  H   H256      1.0  0.71795  0.27560  0.33095  1.0000
  H   H257      1.0  0.77299  0.27541  0.34039  1.0000
  C   C399      1.0  0.20796  0.40945  0.33920  1.0000
  C   C400      1.0  0.20053  0.39826  0.41990  1.0000
  C   C401      1.0  0.18963  0.37660  0.41975  1.0000
  C   C402      1.0  0.18565  0.36541  0.33891  1.0000
  N   N25       1.0  0.18366  0.36706  0.50017  1.0000
  C   C403      1.0  0.18690  0.37659  0.58036  1.0000
  C   C404      1.0  0.19752  0.39815  0.58044  1.0000
  N   N26       1.0  0.20390  0.40774  0.50040  1.0000
  C   C405      1.0  0.17957  0.36381  0.66144  1.0000
  H   H258      1.0  0.17178  0.34763  0.64483  1.0000
  C   C406      1.0  0.20221  0.41130  0.66000  1.0000
  H   H259      1.0  0.19631  0.42165  0.65053  1.0000
  C   C407      1.0  0.58148  0.78594  0.33923  1.0000
  C   C408      1.0  0.59268  0.78971  0.41992  1.0000
  C   C409      1.0  0.61433  0.80047  0.41977  1.0000
  C   C410      1.0  0.62552  0.80767  0.33893  1.0000
  N   N27       1.0  0.62387  0.80403  0.50018  1.0000
  C   C411      1.0  0.61435  0.79774  0.58038  1.0000
  C   C412      1.0  0.59278  0.78680  0.58046  1.0000
  N   N28       1.0  0.58319  0.78359  0.50043  1.0000
  C   C413      1.0  0.62713  0.80319  0.66146  1.0000
  H   H260      1.0  0.64331  0.81159  0.64483  1.0000
  C   C414      1.0  0.57964  0.77836  0.66004  1.0000
  H   H261      1.0  0.56928  0.76210  0.65057  1.0000
  C   C415      1.0  0.20498  0.78298  0.33922  1.0000
  C   C416      1.0  0.20121  0.79040  0.41992  1.0000
  C   C417      1.0  0.19045  0.80130  0.41976  1.0000
  C   C418      1.0  0.18325  0.80528  0.33892  1.0000
  N   N29       1.0  0.18688  0.80727  0.50018  1.0000
  C   C419      1.0  0.19317  0.80404  0.58037  1.0000
  C   C420      1.0  0.20411  0.79341  0.58046  1.0000
  N   N30       1.0  0.20732  0.78704  0.50042  1.0000
  C   C421      1.0  0.18772  0.81137  0.66145  1.0000
  H   H262      1.0  0.17933  0.81915  0.64483  1.0000
  C   C422      1.0  0.21256  0.78872  0.66003  1.0000
  H   H263      1.0  0.22882  0.79462  0.65056  1.0000
  C   C423      1.0  0.78833  0.57614  0.33926  1.0000
  C   C424      1.0  0.79575  0.58734  0.41995  1.0000
  C   C425      1.0  0.80665  0.60899  0.41979  1.0000
  C   C426      1.0  0.81064  0.62018  0.33895  1.0000
  N   N31       1.0  0.81263  0.61853  0.50020  1.0000
  C   C427      1.0  0.80939  0.60901  0.58040  1.0000
  C   C428      1.0  0.79876  0.58745  0.58049  1.0000
  N   N32       1.0  0.79239  0.57786  0.50046  1.0000
  C   C429      1.0  0.81672  0.62180  0.66147  1.0000
  H   H264      1.0  0.82451  0.63797  0.64484  1.0000
  C   C430      1.0  0.79407  0.57431  0.66007  1.0000
  H   H265      1.0  0.79997  0.56395  0.65061  1.0000
  C   C431      1.0  0.41480  0.19963  0.33920  1.0000
  C   C432      1.0  0.40360  0.19586  0.41989  1.0000
  C   C433      1.0  0.38195  0.18510  0.41975  1.0000
  C   C434      1.0  0.37076  0.17789  0.33892  1.0000
  N   N33       1.0  0.37241  0.18154  0.50017  1.0000
  C   C435      1.0  0.38194  0.18783  0.58036  1.0000
  C   C436      1.0  0.40350  0.19877  0.58043  1.0000
  N   N34       1.0  0.41309  0.20198  0.50039  1.0000
  C   C437      1.0  0.36916  0.18238  0.66145  1.0000
  H   H266      1.0  0.35298  0.17398  0.64483  1.0000
  C   C438      1.0  0.41664  0.20722  0.66000  1.0000
  H   H267      1.0  0.42700  0.22348  0.65052  1.0000
  C   C439      1.0  0.79130  0.20261  0.33926  1.0000
  C   C440      1.0  0.79507  0.19518  0.41996  1.0000
  C   C441      1.0  0.80583  0.18429  0.41980  1.0000
  C   C442      1.0  0.81303  0.18030  0.33896  1.0000
  N   N35       1.0  0.80939  0.17831  0.50021  1.0000
  C   C443      1.0  0.80310  0.18154  0.58040  1.0000
  C   C444      1.0  0.79216  0.19217  0.58049  1.0000
  N   N36       1.0  0.78895  0.19854  0.50046  1.0000
  C   C445      1.0  0.80855  0.17421  0.66148  1.0000
  H   H268      1.0  0.81695  0.16643  0.64485  1.0000
  C   C446      1.0  0.78371  0.19686  0.66007  1.0000
  H   H269      1.0  0.76745  0.19095  0.65060  1.0000
  C   C447      1.0  0.19281  0.19780  0.41401  1.0000
  C   C448      1.0  0.20374  0.18731  0.41220  1.0000
  H   H270      1.0  0.20881  0.18478  0.47142  1.0000
  H   H271      1.0  0.19022  0.20230  0.47459  1.0000
  H   H272      1.0  0.16831  0.18485  0.64194  1.0000
  H   H273      1.0  0.19194  0.20813  0.63628  1.0000
  H   H274      1.0  0.19472  0.17560  0.61698  1.0000
  C   C449      1.0  0.79312  0.98245  0.41399  1.0000
  C   C450      1.0  0.80361  0.00387  0.41218  1.0000
  H   H275      1.0  0.80615  0.01147  0.47140  1.0000
  H   H276      1.0  0.78863  0.97536  0.47457  1.0000
  H   H277      1.0  0.80608  0.97090  0.64192  1.0000
  H   H278      1.0  0.78279  0.97123  0.63628  1.0000
  H   H279      1.0  0.81533  0.00656  0.61696  1.0000
  C   C451      1.0  0.98706  0.78719  0.41216  1.0000
  H   H280      1.0  0.97945  0.78212  0.47138  1.0000
  H   H281      1.0  0.98437  0.79621  0.61694  1.0000
  C   C452      1.0  0.80346  0.78778  0.41398  1.0000
  C   C453      1.0  0.79253  0.79826  0.41218  1.0000
  H   H282      1.0  0.78747  0.80080  0.47140  1.0000
  H   H283      1.0  0.80606  0.78328  0.47457  1.0000
  H   H284      1.0  0.82796  0.80073  0.64190  1.0000
  H   H285      1.0  0.80433  0.77744  0.63626  1.0000
  H   H286      1.0  0.80155  0.80998  0.61696  1.0000
  C   C454      1.0  0.20315  0.00312  0.41399  1.0000
  C   C455      1.0  0.19266  0.98171  0.41218  1.0000
  H   H287      1.0  0.19012  0.97410  0.47140  1.0000
  H   H288      1.0  0.20765  0.01022  0.47457  1.0000
  H   H289      1.0  0.19020  0.01467  0.64192  1.0000
  H   H290      1.0  0.21349  0.01434  0.63627  1.0000
  H   H291      1.0  0.18095  0.97901  0.61696  1.0000
  C   C456      1.0  0.98781  0.18747  0.41398  1.0000
  H   H292      1.0  0.98071  0.18487  0.47456  1.0000
  H   H293      1.0  0.97626  0.16296  0.64190  1.0000
  H   H294      1.0  0.97659  0.18658  0.63626  1.0000
  C   C457      1.0  0.21429  0.60908  0.41445  1.0000
  C   C458      1.0  0.21469  0.59077  0.41198  1.0000
  H   H295      1.0  0.21333  0.58339  0.47106  1.0000
  H   H296      1.0  0.21278  0.61436  0.47522  1.0000
  H   H297      1.0  0.21323  0.61921  0.63723  1.0000
  H   H298      1.0  0.24024  0.63324  0.64687  1.0000
  H   H299      1.0  0.23022  0.59731  0.61773  1.0000
  C   C459      1.0  0.38180  0.59273  0.41484  1.0000
  C   C460      1.0  0.40012  0.61144  0.41231  1.0000
  H   H300      1.0  0.40745  0.61750  0.47143  1.0000
  H   H301      1.0  0.37648  0.58601  0.47568  1.0000
  H   H302      1.0  0.37203  0.58120  0.63777  1.0000
  H   H303      1.0  0.35791  0.59411  0.64652  1.0000
  H   H304      1.0  0.39379  0.62014  0.61786  1.0000
  C   C461      1.0  0.39824  0.77660  0.41459  1.0000
  C   C462      1.0  0.37952  0.77618  0.41212  1.0000
  H   H305      1.0  0.37350  0.77753  0.47120  1.0000
  H   H306      1.0  0.40502  0.77810  0.47536  1.0000
  H   H307      1.0  0.40948  0.77779  0.63738  1.0000
  H   H308      1.0  0.39654  0.75078  0.64685  1.0000
  H   H309      1.0  0.37058  0.76074  0.61783  1.0000
  C   C463      1.0  0.78184  0.37645  0.41494  1.0000
  C   C464      1.0  0.78143  0.39476  0.41241  1.0000
  H   H310      1.0  0.78266  0.40208  0.47154  1.0000
  H   H311      1.0  0.78320  0.37111  0.47578  1.0000
  H   H312      1.0  0.78388  0.36686  0.63790  1.0000
  H   H313      1.0  0.75686  0.35269  0.64627  1.0000
  H   H314      1.0  0.76660  0.38853  0.61785  1.0000
  C   C465      1.0  0.61438  0.39296  0.41438  1.0000
  C   C466      1.0  0.59608  0.37424  0.41194  1.0000
  H   H315      1.0  0.58870  0.36824  0.47101  1.0000
  H   H316      1.0  0.61965  0.39976  0.47514  1.0000
  H   H317      1.0  0.62454  0.40410  0.63713  1.0000
  H   H318      1.0  0.63859  0.39114  0.64688  1.0000
  H   H319      1.0  0.60265  0.36521  0.61772  1.0000
  C   C467      1.0  0.59806  0.20907  0.41484  1.0000
  C   C468      1.0  0.61675  0.20942  0.41230  1.0000
  H   H320      1.0  0.62282  0.20817  0.47142  1.0000
  H   H321      1.0  0.59136  0.20771  0.47568  1.0000
  H   H322      1.0  0.58644  0.20711  0.63780  1.0000
  H   H323      1.0  0.59937  0.23414  0.64625  1.0000
  H   H324      1.0  0.62539  0.22429  0.61777  1.0000
