data_image0
_chemical_formula_structural       N8C4H2C4H2C4H2C4H2C4H2C4H2C4H2C4H2N8C4H2C4H2C4H2C4H2N8C4H2C4H2N8C4H2C4H2C4H2C4H2C4H2C4H2C4H2C4H2N8C6H3C6H3C6H3C6H3C6H3C6H3C6H3C6H3C6H3C6H3C6H3C6H3C6H3C6H3C6H3C6H3C6H3C6H3C6H3C6H3C6H3C6H3C6H3C6H3C6H3C6H3C6H3C6H3C4H2C4H2C4H2C4H2N16C4H2C4H2C4H2C4H2N8C4H2C4H2C4H2C4H2N4C4H2C4H2C4H2C4H2N16C4H2C4H2C4H2C4H2
_chemical_formula_sum              "N84 C336 H168"
_cell_length_a       51.7578
_cell_length_b       51.7578
_cell_length_c       14.8367
_cell_angle_alpha    90
_cell_angle_beta     90
_cell_angle_gamma    90

_space_group_name_H-M_alt    "P 1"
_space_group_IT_number       1

loop_
  _space_group_symop_operation_xyz
  'x, y, z'

loop_
  _atom_site_type_symbol
  _atom_site_label
  _atom_site_symmetry_multiplicity
  _atom_site_fract_x
  _atom_site_fract_y
  _atom_site_fract_z
  _atom_site_occupancy
  N   N1        1.0  0.14053  0.16261  0.29697  1.0000
  N   N2        1.0  0.12301  0.14449  0.29496  1.0000
  N   N3        1.0  0.87071  0.84866  0.29632  1.0000
  N   N4        1.0  0.88822  0.86679  0.29414  1.0000
  N   N5        1.0  0.84849  0.14030  0.29674  1.0000
  N   N6        1.0  0.86669  0.12286  0.29442  1.0000
  N   N7        1.0  0.16244  0.87053  0.29659  1.0000
  N   N8        1.0  0.14438  0.88812  0.29467  1.0000
  C   C1        1.0  0.09868  0.97801  0.35222  1.0000
  C   C2        1.0  0.11420  0.99108  0.28864  1.0000
  C   C3        1.0  0.11415  0.01828  0.28799  1.0000
  C   C4        1.0  0.09861  0.03158  0.35096  1.0000
  H   H1        1.0  0.12344  0.02798  0.23734  1.0000
  H   H2        1.0  0.12338  0.98121  0.23812  1.0000
  C   C5        1.0  0.91258  0.03317  0.35136  1.0000
  C   C6        1.0  0.89711  0.02012  0.28758  1.0000
  C   C7        1.0  0.89714  0.99292  0.28690  1.0000
  C   C8        1.0  0.91262  0.97962  0.35005  1.0000
  H   H3        1.0  0.88791  0.98323  0.23611  1.0000
  H   H4        1.0  0.88799  0.02999  0.23697  1.0000
  C   C9        1.0  0.03321  0.09871  0.35219  1.0000
  C   C10       1.0  0.02016  0.11418  0.28840  1.0000
  C   C11       1.0  0.99296  0.11413  0.28756  1.0000
  C   C12       1.0  0.97963  0.09862  0.35053  1.0000
  H   H5        1.0  0.98329  0.12338  0.23676  1.0000
  H   H6        1.0  0.03005  0.12333  0.23787  1.0000
  C   C13       1.0  0.97802  0.91254  0.35151  1.0000
  C   C14       1.0  0.99109  0.89708  0.28776  1.0000
  C   C15       1.0  0.01829  0.89713  0.28716  1.0000
  C   C16       1.0  0.03157  0.91263  0.35033  1.0000
  H   H7        1.0  0.02800  0.88790  0.23641  1.0000
  H   H8        1.0  0.98124  0.88796  0.23712  1.0000
  C   C17       1.0  0.16687  0.30415  0.31361  1.0000
  C   C18       1.0  0.18706  0.29558  0.25661  1.0000
  C   C19       1.0  0.19591  0.27000  0.26226  1.0000
  C   C20       1.0  0.18416  0.25288  0.32372  1.0000
  H   H9        1.0  0.21079  0.26411  0.22169  1.0000
  H   H10       1.0  0.19625  0.30811  0.21389  1.0000
  C   C21       1.0  0.84421  0.70720  0.31133  1.0000
  C   C22       1.0  0.82391  0.71578  0.25487  1.0000
  C   C23       1.0  0.81512  0.74137  0.26082  1.0000
  C   C24       1.0  0.82704  0.75845  0.32204  1.0000
  H   H11       1.0  0.80017  0.74729  0.22066  1.0000
  H   H12       1.0  0.81463  0.70326  0.21232  1.0000
  C   C25       1.0  0.70684  0.16670  0.31363  1.0000
  C   C26       1.0  0.71544  0.18685  0.25651  1.0000
  C   C27       1.0  0.74104  0.19562  0.26204  1.0000
  C   C28       1.0  0.75814  0.18382  0.32349  1.0000
  H   H13       1.0  0.74696  0.21048  0.22146  1.0000
  H   H14       1.0  0.70291  0.19607  0.21386  1.0000
  C   C29       1.0  0.30380  0.84408  0.31158  1.0000
  C   C30       1.0  0.29525  0.82373  0.25525  1.0000
  C   C31       1.0  0.26969  0.81487  0.26121  1.0000
  C   C32       1.0  0.25257  0.82675  0.32240  1.0000
  H   H15       1.0  0.26379  0.79990  0.22105  1.0000
  H   H16       1.0  0.30778  0.81448  0.21268  1.0000
  N   N9        1.0  0.84502  0.26187  0.30151  1.0000
  N   N10       1.0  0.85367  0.28559  0.30887  1.0000
  N   N11       1.0  0.16576  0.74866  0.30126  1.0000
  N   N12       1.0  0.15719  0.72491  0.30876  1.0000
  N   N13       1.0  0.26234  0.16604  0.30134  1.0000
  N   N14       1.0  0.28609  0.15745  0.30874  1.0000
  N   N15       1.0  0.74908  0.84530  0.30147  1.0000
  N   N16       1.0  0.72535  0.85392  0.30898  1.0000
  C   C33       1.0  0.37773  0.10630  0.33527  1.0000
  C   C34       1.0  0.39870  0.10031  0.27809  1.0000
  C   C35       1.0  0.40836  0.07492  0.27390  1.0000
  C   C36       1.0  0.39772  0.05498  0.32804  1.0000
  H   H17       1.0  0.42350  0.07128  0.23138  1.0000
  H   H18       1.0  0.40691  0.11419  0.23816  1.0000
  C   C37       1.0  0.63441  0.90537  0.33356  1.0000
  C   C38       1.0  0.61442  0.91165  0.27265  1.0000
  C   C39       1.0  0.60508  0.93714  0.26754  1.0000
  C   C40       1.0  0.61498  0.95679  0.32466  1.0000
  H   H19       1.0  0.59046  0.94102  0.22312  1.0000
  H   H20       1.0  0.60667  0.89791  0.23109  1.0000
  C   C41       1.0  0.90533  0.37650  0.33338  1.0000
  C   C42       1.0  0.91164  0.39649  0.27254  1.0000
  C   C43       1.0  0.93713  0.40584  0.26752  1.0000
  C   C44       1.0  0.95676  0.39595  0.32472  1.0000
  H   H21       1.0  0.94102  0.42048  0.22315  1.0000
  H   H22       1.0  0.89791  0.40426  0.23095  1.0000
  C   C45       1.0  0.10625  0.63322  0.33538  1.0000
  C   C46       1.0  0.10029  0.61223  0.27823  1.0000
  C   C47       1.0  0.07490  0.60255  0.27402  1.0000
  C   C48       1.0  0.05495  0.61321  0.32805  1.0000
  H   H23       1.0  0.07127  0.58741  0.23152  1.0000
  H   H24       1.0  0.11418  0.60402  0.23837  1.0000
  N   N17       1.0  0.63362  0.06260  0.30838  1.0000
  N   N18       1.0  0.64263  0.08647  0.30790  1.0000
  N   N19       1.0  0.37658  0.94879  0.30604  1.0000
  N   N20       1.0  0.36775  0.92485  0.30479  1.0000
  N   N21       1.0  0.06261  0.37731  0.30823  1.0000
  N   N22       1.0  0.08648  0.36830  0.30771  1.0000
  N   N23       1.0  0.94879  0.63435  0.30608  1.0000
  N   N24       1.0  0.92486  0.64319  0.30482  1.0000
  C   C49       1.0  0.53260  0.00408  0.32929  1.0000
  C   C50       1.0  0.51889  0.98503  0.28041  1.0000
  C   C51       1.0  0.49176  0.98496  0.28080  1.0000
  C   C52       1.0  0.47817  0.00405  0.32964  1.0000
  H   H25       1.0  0.48217  0.97125  0.24404  1.0000
  H   H26       1.0  0.52834  0.97137  0.24306  1.0000
  C   C53       1.0  0.00399  0.53277  0.32984  1.0000
  C   C54       1.0  0.98485  0.51919  0.28121  1.0000
  C   C55       1.0  0.98493  0.49206  0.28076  1.0000
  C   C56       1.0  0.00402  0.47834  0.32942  1.0000
  H   H27       1.0  0.97123  0.48261  0.24356  1.0000
  H   H28       1.0  0.97111  0.52877  0.24457  1.0000
  N   N25       1.0  0.21251  0.40525  0.31122  1.0000
  N   N26       1.0  0.23649  0.41375  0.30912  1.0000
  N   N27       1.0  0.79904  0.60616  0.30995  1.0000
  N   N28       1.0  0.77503  0.59776  0.30782  1.0000
  N   N29       1.0  0.60596  0.21259  0.31146  1.0000
  N   N30       1.0  0.59757  0.23660  0.30916  1.0000
  N   N31       1.0  0.40506  0.79911  0.30983  1.0000
  N   N32       1.0  0.41357  0.77513  0.30784  1.0000
  C   C57       1.0  0.75782  0.41021  0.33818  1.0000
  C   C58       1.0  0.77872  0.42198  0.29167  1.0000
  C   C59       1.0  0.80383  0.41122  0.29598  1.0000
  C   C60       1.0  0.80819  0.38858  0.34694  1.0000
  H   H29       1.0  0.81833  0.41909  0.25801  1.0000
  H   H30       1.0  0.77566  0.43760  0.25086  1.0000
  C   C61       1.0  0.25394  0.60107  0.33916  1.0000
  C   C62       1.0  0.23310  0.58914  0.29285  1.0000
  C   C63       1.0  0.20793  0.59974  0.29727  1.0000
  C   C64       1.0  0.20348  0.62238  0.34810  1.0000
  H   H31       1.0  0.19346  0.59175  0.25948  1.0000
  H   H32       1.0  0.23622  0.57351  0.25212  1.0000
  C   C65       1.0  0.41030  0.25389  0.33920  1.0000
  C   C66       1.0  0.42220  0.23300  0.29304  1.0000
  C   C67       1.0  0.41151  0.20787  0.29738  1.0000
  C   C68       1.0  0.38880  0.20349  0.34797  1.0000
  H   H33       1.0  0.41948  0.19337  0.25969  1.0000
  H   H34       1.0  0.43787  0.23606  0.25247  1.0000
  C   C69       1.0  0.60113  0.75775  0.33824  1.0000
  C   C70       1.0  0.58932  0.77859  0.29153  1.0000
  C   C71       1.0  0.59998  0.80375  0.29593  1.0000
  C   C72       1.0  0.62256  0.80819  0.34721  1.0000
  H   H35       1.0  0.59211  0.81821  0.25781  1.0000
  H   H36       1.0  0.57376  0.77547  0.25050  1.0000
  C   C73       1.0  0.31764  0.53073  0.31195  1.0000
  C   C74       1.0  0.30484  0.51661  0.24362  1.0000
  C   C75       1.0  0.30465  0.48947  0.24604  1.0000
  C   C76       1.0  0.31750  0.47625  0.31625  1.0000
  H   H37       1.0  0.29410  0.47956  0.19896  1.0000
  H   H38       1.0  0.29434  0.52590  0.19494  1.0000
  C   C77       1.0  0.69420  0.48074  0.31144  1.0000
  C   C78       1.0  0.70697  0.49490  0.24318  1.0000
  C   C79       1.0  0.70703  0.52204  0.24544  1.0000
  C   C80       1.0  0.69411  0.53524  0.31554  1.0000
  H   H39       1.0  0.71755  0.53197  0.19836  1.0000
  H   H40       1.0  0.71752  0.48564  0.19453  1.0000
  C   C81       1.0  0.48075  0.31755  0.31208  1.0000
  C   C82       1.0  0.49489  0.30479  0.24373  1.0000
  C   C83       1.0  0.52203  0.30472  0.24596  1.0000
  C   C84       1.0  0.53523  0.31762  0.31609  1.0000
  H   H41       1.0  0.53195  0.29418  0.19888  1.0000
  H   H42       1.0  0.48561  0.29424  0.19511  1.0000
  C   C85       1.0  0.53074  0.69405  0.31127  1.0000
  C   C86       1.0  0.51658  0.70686  0.24308  1.0000
  C   C87       1.0  0.48944  0.70705  0.24553  1.0000
  C   C88       1.0  0.47623  0.69421  0.31578  1.0000
  H   H43       1.0  0.47953  0.71760  0.19846  1.0000
  H   H44       1.0  0.52586  0.71737  0.19435  1.0000
  N   N33       1.0  0.37147  0.38764  0.31202  1.0000
  N   N34       1.0  0.38985  0.36996  0.30982  1.0000
  N   N35       1.0  0.64004  0.62390  0.31148  1.0000
  N   N36       1.0  0.62166  0.64159  0.30922  1.0000
  N   N37       1.0  0.62395  0.37155  0.31175  1.0000
  N   N38       1.0  0.64167  0.38990  0.30943  1.0000
  N   N39       1.0  0.38767  0.64012  0.31175  1.0000
  N   N40       1.0  0.37001  0.62171  0.30962  1.0000
  C   C89       1.0  0.09268  0.05807  0.34456  1.0000
  C   C90       1.0  0.06662  0.06591  0.34746  1.0000
  C   C91       1.0  0.05957  0.09223  0.34539  1.0000
  C   C92       1.0  0.07913  0.11105  0.33970  1.0000
  C   C93       1.0  0.10542  0.10362  0.33924  1.0000
  C   C94       1.0  0.11199  0.07709  0.33918  1.0000
  H   H45       1.0  0.07420  0.13022  0.34197  1.0000
  H   H46       1.0  0.13099  0.07151  0.33864  1.0000
  H   H47       1.0  0.05242  0.05207  0.34987  1.0000
  C   C95       1.0  0.91855  0.95314  0.34359  1.0000
  C   C96       1.0  0.94461  0.94533  0.34647  1.0000
  C   C97       1.0  0.95167  0.91901  0.34450  1.0000
  C   C98       1.0  0.93212  0.90017  0.33873  1.0000
  C   C99       1.0  0.90584  0.90760  0.33847  1.0000
  C   C100      1.0  0.89924  0.93412  0.33836  1.0000
  H   H48       1.0  0.93706  0.88100  0.34140  1.0000
  H   H49       1.0  0.88024  0.93969  0.33796  1.0000
  H   H50       1.0  0.95881  0.95917  0.34890  1.0000
  C   C101      1.0  0.95315  0.09268  0.34392  1.0000
  C   C102      1.0  0.94535  0.06660  0.34673  1.0000
  C   C103      1.0  0.91904  0.05953  0.34452  1.0000
  C   C104      1.0  0.90019  0.07906  0.33867  1.0000
  C   C105      1.0  0.90759  0.10535  0.33852  1.0000
  C   C106      1.0  0.93411  0.11197  0.33860  1.0000
  H   H51       1.0  0.88103  0.07410  0.34120  1.0000
  H   H52       1.0  0.93966  0.13098  0.33828  1.0000
  H   H53       1.0  0.95920  0.05242  0.34916  1.0000
  C   C107      1.0  0.05805  0.91855  0.34404  1.0000
  C   C108      1.0  0.06588  0.94461  0.34709  1.0000
  C   C109      1.0  0.09221  0.95165  0.34523  1.0000
  C   C110      1.0  0.11103  0.93208  0.33956  1.0000
  C   C111      1.0  0.10359  0.90580  0.33910  1.0000
  C   C112      1.0  0.07706  0.89923  0.33884  1.0000
  H   H54       1.0  0.13020  0.93700  0.34214  1.0000
  H   H55       1.0  0.07147  0.88023  0.33821  1.0000
  H   H56       1.0  0.05205  0.95880  0.34940  1.0000
  C   C113      1.0  0.18082  0.18079  0.34455  1.0000
  C   C114      1.0  0.20730  0.17434  0.34487  1.0000
  C   C115      1.0  0.22653  0.19353  0.34309  1.0000
  C   C116      1.0  0.21878  0.21974  0.33733  1.0000
  C   C117      1.0  0.19230  0.22677  0.33295  1.0000
  C   C118      1.0  0.17356  0.20700  0.33778  1.0000
  H   H57       1.0  0.23265  0.23385  0.33625  1.0000
  H   H58       1.0  0.15433  0.21173  0.33590  1.0000
  H   H59       1.0  0.21274  0.15531  0.34851  1.0000
  C   C119      1.0  0.83051  0.83046  0.34434  1.0000
  C   C120      1.0  0.80405  0.83695  0.34503  1.0000
  C   C121      1.0  0.78481  0.81778  0.34292  1.0000
  C   C122      1.0  0.79250  0.79158  0.33653  1.0000
  C   C123      1.0  0.81896  0.78454  0.33177  1.0000
  C   C124      1.0  0.83774  0.80426  0.33690  1.0000
  H   H60       1.0  0.77861  0.77749  0.33525  1.0000
  H   H61       1.0  0.85696  0.79951  0.33473  1.0000
  H   H62       1.0  0.79863  0.85598  0.34902  1.0000
  C   C125      1.0  0.83020  0.18047  0.34483  1.0000
  C   C126      1.0  0.83666  0.20694  0.34520  1.0000
  C   C127      1.0  0.81746  0.22616  0.34327  1.0000
  C   C128      1.0  0.79126  0.21843  0.33727  1.0000
  C   C129      1.0  0.78425  0.19194  0.33285  1.0000
  C   C130      1.0  0.80400  0.17320  0.33785  1.0000
  H   H63       1.0  0.77715  0.23229  0.33604  1.0000
  H   H64       1.0  0.79928  0.15396  0.33590  1.0000
  H   H65       1.0  0.85568  0.21238  0.34888  1.0000
  C   C131      1.0  0.18054  0.83021  0.34413  1.0000
  C   C132      1.0  0.17403  0.80374  0.34479  1.0000
  C   C133      1.0  0.19320  0.78450  0.34288  1.0000
  C   C134      1.0  0.21941  0.79218  0.33666  1.0000
  C   C135      1.0  0.22647  0.81865  0.33196  1.0000
  C   C136      1.0  0.20674  0.83742  0.33691  1.0000
  H   H66       1.0  0.23350  0.77829  0.33551  1.0000
  H   H67       1.0  0.21150  0.85665  0.33482  1.0000
  H   H68       1.0  0.15500  0.79834  0.34870  1.0000
  C   C137      1.0  0.45062  0.00472  0.33476  1.0000
  C   C138      1.0  0.43605  0.98178  0.34218  1.0000
  C   C139      1.0  0.40875  0.98160  0.34952  1.0000
  C   C140      1.0  0.39585  0.00594  0.34369  1.0000
  C   C141      1.0  0.40963  0.02973  0.33454  1.0000
  C   C142      1.0  0.43704  0.02832  0.33375  1.0000
  H   H69       1.0  0.37610  0.00633  0.34659  1.0000
  H   H70       1.0  0.44766  0.04500  0.33073  1.0000
  H   H71       1.0  0.44583  0.96459  0.34381  1.0000
  C   C143      1.0  0.56022  0.00481  0.33433  1.0000
  C   C144      1.0  0.57375  0.02835  0.34281  1.0000
  C   C145      1.0  0.60111  0.02972  0.34855  1.0000
  C   C146      1.0  0.61509  0.00600  0.34155  1.0000
  C   C147      1.0  0.60238  0.98166  0.33217  1.0000
  C   C148      1.0  0.57500  0.98191  0.33209  1.0000
  H   H72       1.0  0.63485  0.00643  0.34357  1.0000
  H   H73       1.0  0.56533  0.96466  0.33234  1.0000
  H   H74       1.0  0.56321  0.04509  0.34231  1.0000
  C   C149      1.0  0.00477  0.45072  0.33440  1.0000
  C   C150      1.0  0.02831  0.43719  0.34274  1.0000
  C   C151      1.0  0.02972  0.40983  0.34838  1.0000
  C   C152      1.0  0.00599  0.39584  0.34145  1.0000
  C   C153      1.0  0.98164  0.40854  0.33226  1.0000
  C   C154      1.0  0.98188  0.43592  0.33225  1.0000
  H   H75       1.0  0.00643  0.37608  0.34338  1.0000
  H   H76       1.0  0.96462  0.44558  0.33261  1.0000
  H   H77       1.0  0.04506  0.44775  0.34210  1.0000
  C   C155      1.0  0.00467  0.56032  0.33494  1.0000
  C   C156      1.0  0.98174  0.57491  0.34242  1.0000
  C   C157      1.0  0.98159  0.60221  0.34974  1.0000
  C   C158      1.0  0.00592  0.61510  0.34380  1.0000
  C   C159      1.0  0.02971  0.60130  0.33459  1.0000
  C   C160      1.0  0.02828  0.57389  0.33378  1.0000
  H   H78       1.0  0.00633  0.63484  0.34669  1.0000
  H   H79       1.0  0.04495  0.56327  0.33072  1.0000
  H   H80       1.0  0.96455  0.56514  0.34421  1.0000
  C   C161      1.0  0.28162  0.41417  0.35746  1.0000
  C   C162      1.0  0.30264  0.39675  0.36532  1.0000
  C   C163      1.0  0.32892  0.40453  0.35716  1.0000
  C   C164      1.0  0.33366  0.43119  0.34087  1.0000
  C   C165      1.0  0.31322  0.44930  0.33142  1.0000
  C   C166      1.0  0.28744  0.44028  0.33909  1.0000
  H   H81       1.0  0.35232  0.43756  0.33512  1.0000
  H   H82       1.0  0.27250  0.45324  0.33476  1.0000
  H   H83       1.0  0.29849  0.37756  0.37350  1.0000
  C   C167      1.0  0.72996  0.59733  0.35667  1.0000
  C   C168      1.0  0.70894  0.61477  0.36457  1.0000
  C   C169      1.0  0.68265  0.60701  0.35640  1.0000
  C   C170      1.0  0.67791  0.58033  0.34011  1.0000
  C   C171      1.0  0.69834  0.56221  0.33067  1.0000
  C   C172      1.0  0.72411  0.57122  0.33836  1.0000
  H   H84       1.0  0.65925  0.57397  0.33437  1.0000
  H   H85       1.0  0.73905  0.55827  0.33406  1.0000
  H   H86       1.0  0.71312  0.63394  0.37282  1.0000
  C   C173      1.0  0.59726  0.28173  0.35744  1.0000
  C   C174      1.0  0.61473  0.30272  0.36520  1.0000
  C   C175      1.0  0.60699  0.32901  0.35692  1.0000
  C   C176      1.0  0.58033  0.33378  0.34059  1.0000
  C   C177      1.0  0.56218  0.31337  0.33124  1.0000
  C   C178      1.0  0.57116  0.28758  0.33909  1.0000
  H   H87       1.0  0.57398  0.35245  0.33476  1.0000
  H   H88       1.0  0.55819  0.27266  0.33488  1.0000
  H   H89       1.0  0.63390  0.29852  0.37344  1.0000
  C   C179      1.0  0.41410  0.73005  0.35672  1.0000
  C   C180      1.0  0.39670  0.70901  0.36468  1.0000
  C   C181      1.0  0.40450  0.68273  0.35665  1.0000
  C   C182      1.0  0.43118  0.67802  0.34041  1.0000
  C   C183      1.0  0.44927  0.69846  0.33088  1.0000
  C   C184      1.0  0.44022  0.72424  0.33844  1.0000
  H   H90       1.0  0.43756  0.65936  0.33477  1.0000
  H   H91       1.0  0.45316  0.73919  0.33399  1.0000
  H   H92       1.0  0.37751  0.71315  0.37292  1.0000
  C   C185      1.0  0.73131  0.41859  0.33573  1.0000
  C   C186      1.0  0.71060  0.40089  0.34677  1.0000
  C   C187      1.0  0.68417  0.40843  0.34699  1.0000
  C   C188      1.0  0.67876  0.43515  0.33463  1.0000
  C   C189      1.0  0.69877  0.45363  0.32269  1.0000
  C   C190      1.0  0.72471  0.44485  0.32426  1.0000
  H   H93       1.0  0.65995  0.44128  0.33433  1.0000
  H   H94       1.0  0.73930  0.45817  0.32009  1.0000
  H   H95       1.0  0.71498  0.38167  0.35206  1.0000
  C   C191      1.0  0.28047  0.59278  0.33664  1.0000
  C   C192      1.0  0.30113  0.61054  0.34745  1.0000
  C   C193      1.0  0.32758  0.60306  0.34748  1.0000
  C   C194      1.0  0.33305  0.57636  0.33505  1.0000
  C   C195      1.0  0.31308  0.55783  0.32334  1.0000
  C   C196      1.0  0.28712  0.56653  0.32527  1.0000
  H   H96       1.0  0.35187  0.57027  0.33454  1.0000
  H   H97       1.0  0.27256  0.55317  0.32133  1.0000
  H   H98       1.0  0.29670  0.62975  0.35270  1.0000
  C   C197      1.0  0.41866  0.28040  0.33672  1.0000
  C   C198      1.0  0.40094  0.30109  0.34765  1.0000
  C   C199      1.0  0.40845  0.32753  0.34771  1.0000
  C   C200      1.0  0.43516  0.33297  0.33527  1.0000
  C   C201      1.0  0.45366  0.31297  0.32348  1.0000
  C   C202      1.0  0.44492  0.28702  0.32526  1.0000
  H   H99       1.0  0.44127  0.35179  0.33482  1.0000
  H   H100      1.0  0.45826  0.27245  0.32120  1.0000
  H   H101      1.0  0.38171  0.29670  0.35285  1.0000
  C   C203      1.0  0.59282  0.73122  0.33577  1.0000
  C   C204      1.0  0.61056  0.71055  0.34675  1.0000
  C   C205      1.0  0.60307  0.68409  0.34681  1.0000
  C   C206      1.0  0.57637  0.67864  0.33440  1.0000
  C   C207      1.0  0.55784  0.69863  0.32263  1.0000
  C   C208      1.0  0.56657  0.72458  0.32437  1.0000
  H   H102      1.0  0.57027  0.65982  0.33396  1.0000
  H   H103      1.0  0.55323  0.73915  0.32024  1.0000
  H   H104      1.0  0.62978  0.71496  0.35193  1.0000
  C   C209      1.0  0.16176  0.33096  0.32639  1.0000
  C   C210      1.0  0.18310  0.34739  0.34092  1.0000
  C   C211      1.0  0.18040  0.37395  0.35912  1.0000
  C   C212      1.0  0.15502  0.38429  0.36097  1.0000
  C   C213      1.0  0.13258  0.36847  0.34953  1.0000
  C   C214      1.0  0.13665  0.34170  0.33278  1.0000
  H   H105      1.0  0.15302  0.40368  0.37215  1.0000
  H   H106      1.0  0.12109  0.32967  0.32511  1.0000
  H   H107      1.0  0.20135  0.33964  0.33977  1.0000
  C   C215      1.0  0.84947  0.68044  0.32383  1.0000
  C   C216      1.0  0.82827  0.66383  0.33833  1.0000
  C   C217      1.0  0.83123  0.63736  0.35776  1.0000
  C   C218      1.0  0.85672  0.62731  0.36086  1.0000
  C   C219      1.0  0.87897  0.64334  0.34882  1.0000
  C   C220      1.0  0.87467  0.66999  0.33089  1.0000
  H   H108      1.0  0.85898  0.60801  0.37334  1.0000
  H   H109      1.0  0.89014  0.68215  0.32329  1.0000
  H   H110      1.0  0.80995  0.67139  0.33673  1.0000
  C   C221      1.0  0.68004  0.16166  0.32662  1.0000
  C   C222      1.0  0.66365  0.18302  0.34117  1.0000
  C   C223      1.0  0.63709  0.18036  0.35954  1.0000
  C   C224      1.0  0.62673  0.15499  0.36149  1.0000
  C   C225      1.0  0.64250  0.13254  0.34989  1.0000
  C   C226      1.0  0.66927  0.13657  0.33298  1.0000
  H   H111      1.0  0.60734  0.15302  0.37277  1.0000
  H   H112      1.0  0.68127  0.12099  0.32520  1.0000
  H   H113      1.0  0.67143  0.20127  0.33995  1.0000
  C   C227      1.0  0.33056  0.84938  0.32415  1.0000
  C   C228      1.0  0.34722  0.82821  0.33844  1.0000
  C   C229      1.0  0.37371  0.83120  0.35761  1.0000
  C   C230      1.0  0.38372  0.85671  0.36058  1.0000
  C   C231      1.0  0.36765  0.87894  0.34869  1.0000
  C   C232      1.0  0.34099  0.87460  0.33101  1.0000
  H   H114      1.0  0.40303  0.85898  0.37285  1.0000
  H   H115      1.0  0.32881  0.89004  0.32345  1.0000
  H   H116      1.0  0.33969  0.80987  0.33689  1.0000
  C   C233      1.0  0.84998  0.32939  0.36262  1.0000
  C   C234      1.0  0.82887  0.34647  0.35655  1.0000
  C   C235      1.0  0.83159  0.37347  0.34754  1.0000
  C   C236      1.0  0.85720  0.38308  0.33886  1.0000
  C   C237      1.0  0.87939  0.36663  0.34225  1.0000
  C   C238      1.0  0.87517  0.33973  0.35450  1.0000
  H   H117      1.0  0.85974  0.40261  0.33304  1.0000
  H   H118      1.0  0.89061  0.32736  0.35651  1.0000
  H   H119      1.0  0.81064  0.33872  0.35629  1.0000
  C   C239      1.0  0.16110  0.68115  0.36298  1.0000
  C   C240      1.0  0.18240  0.66430  0.35709  1.0000
  C   C241      1.0  0.17996  0.63727  0.34868  1.0000
  C   C242      1.0  0.15447  0.62733  0.34057  1.0000
  C   C243      1.0  0.13208  0.64351  0.34354  1.0000
  C   C244      1.0  0.13602  0.67049  0.35508  1.0000
  H   H120      1.0  0.15219  0.60776  0.33571  1.0000
  H   H121      1.0  0.12044  0.68269  0.35701  1.0000
  H   H122      1.0  0.20055  0.67224  0.35665  1.0000
  C   C245      1.0  0.32990  0.16127  0.36282  1.0000
  C   C246      1.0  0.34682  0.18253  0.35688  1.0000
  C   C247      1.0  0.37384  0.18002  0.34853  1.0000
  C   C248      1.0  0.38371  0.15450  0.34048  1.0000
  C   C249      1.0  0.36748  0.13215  0.34342  1.0000
  C   C250      1.0  0.34050  0.13616  0.35491  1.0000
  H   H123      1.0  0.40328  0.15218  0.33567  1.0000
  H   H124      1.0  0.32826  0.12062  0.35685  1.0000
  H   H125      1.0  0.33893  0.20070  0.35642  1.0000
  C   C251      1.0  0.68161  0.85013  0.36307  1.0000
  C   C252      1.0  0.66458  0.82898  0.35701  1.0000
  C   C253      1.0  0.63759  0.83163  0.34785  1.0000
  C   C254      1.0  0.62791  0.85722  0.33904  1.0000
  C   C255      1.0  0.64431  0.87944  0.34248  1.0000
  C   C256      1.0  0.67122  0.87530  0.35478  1.0000
  H   H126      1.0  0.60838  0.85971  0.33318  1.0000
  H   H127      1.0  0.68355  0.89077  0.35676  1.0000
  H   H128      1.0  0.67239  0.81077  0.35674  1.0000
  C   C257      1.0  0.12489  0.12253  0.34471  1.0000
  C   C258      1.0  0.14625  0.11982  0.40299  1.0000
  C   C259      1.0  0.16494  0.13931  0.40547  1.0000
  C   C260      1.0  0.16201  0.16115  0.34944  1.0000
  H   H129      1.0  0.18031  0.13748  0.44844  1.0000
  H   H130      1.0  0.14819  0.10415  0.44459  1.0000
  C   C261      1.0  0.88641  0.88870  0.34421  1.0000
  C   C262      1.0  0.86515  0.89135  0.40299  1.0000
  C   C263      1.0  0.84649  0.87185  0.40567  1.0000
  C   C264      1.0  0.84933  0.85007  0.34929  1.0000
  H   H131      1.0  0.83118  0.87364  0.44893  1.0000
  H   H132      1.0  0.86328  0.90699  0.44475  1.0000
  C   C265      1.0  0.88864  0.12475  0.34424  1.0000
  C   C266      1.0  0.89126  0.14603  0.40295  1.0000
  C   C267      1.0  0.87169  0.16462  0.40580  1.0000
  C   C268      1.0  0.84986  0.16169  0.34967  1.0000
  H   H133      1.0  0.87346  0.17994  0.44902  1.0000
  H   H134      1.0  0.90692  0.14796  0.44459  1.0000
  C   C269      1.0  0.12246  0.88632  0.34467  1.0000
  C   C270      1.0  0.11972  0.86498  0.40306  1.0000
  C   C271      1.0  0.13915  0.84623  0.40541  1.0000
  C   C272      1.0  0.16095  0.84907  0.34914  1.0000
  H   H135      1.0  0.13730  0.83088  0.44843  1.0000
  H   H136      1.0  0.10407  0.86310  0.44476  1.0000
  N   N41       1.0  0.08516  0.01745  0.41204  1.0000
  N   N42       1.0  0.08518  0.99237  0.41258  1.0000
  N   N43       1.0  0.92600  0.99372  0.41136  1.0000
  N   N44       1.0  0.92600  0.01880  0.41191  1.0000
  N   N45       1.0  0.99372  0.08521  0.41183  1.0000
  N   N46       1.0  0.01881  0.08525  0.41251  1.0000
  N   N47       1.0  0.01745  0.92600  0.41161  1.0000
  N   N48       1.0  0.99236  0.92597  0.41208  1.0000
  N   N49       1.0  0.16408  0.26227  0.37348  1.0000
  N   N50       1.0  0.15619  0.28634  0.36979  1.0000
  N   N51       1.0  0.84720  0.74904  0.37128  1.0000
  N   N52       1.0  0.85506  0.72496  0.36727  1.0000
  N   N53       1.0  0.74872  0.16379  0.37336  1.0000
  N   N54       1.0  0.72462  0.15597  0.36977  1.0000
  N   N55       1.0  0.26195  0.84694  0.37159  1.0000
  N   N56       1.0  0.28600  0.85486  0.36755  1.0000
  C   C273      1.0  0.84433  0.30257  0.37069  1.0000
  C   C274      1.0  0.82462  0.29357  0.42907  1.0000
  C   C275      1.0  0.81480  0.26847  0.41917  1.0000
  C   C276      1.0  0.82523  0.25228  0.35217  1.0000
  H   H137      1.0  0.80046  0.26214  0.46131  1.0000
  H   H138      1.0  0.81649  0.30553  0.47618  1.0000
  C   C277      1.0  0.16649  0.70802  0.37101  1.0000
  C   C278      1.0  0.18604  0.71719  0.42972  1.0000
  C   C279      1.0  0.19579  0.74232  0.41965  1.0000
  C   C280      1.0  0.18542  0.75839  0.35220  1.0000
  H   H139      1.0  0.21005  0.74874  0.46192  1.0000
  H   H140      1.0  0.19417  0.70531  0.47708  1.0000
  C   C281      1.0  0.30303  0.16676  0.37080  1.0000
  C   C282      1.0  0.29391  0.18636  0.42941  1.0000
  C   C283      1.0  0.26879  0.19614  0.41944  1.0000
  C   C284      1.0  0.25266  0.18574  0.35221  1.0000
  H   H141      1.0  0.26241  0.21042  0.46170  1.0000
  H   H142      1.0  0.30582  0.19448  0.47667  1.0000
  C   C285      1.0  0.70843  0.84456  0.37098  1.0000
  C   C286      1.0  0.71750  0.82491  0.42945  1.0000
  C   C287      1.0  0.74260  0.81512  0.41937  1.0000
  C   C288      1.0  0.75872  0.82555  0.35215  1.0000
  H   H143      1.0  0.74898  0.80080  0.46148  1.0000
  H   H144      1.0  0.70557  0.81677  0.47667  1.0000
  N   N57       1.0  0.37702  0.06210  0.37938  1.0000
  N   N58       1.0  0.36771  0.08585  0.38213  1.0000
  N   N59       1.0  0.63472  0.94939  0.37983  1.0000
  N   N60       1.0  0.64385  0.92557  0.38314  1.0000
  N   N61       1.0  0.94935  0.37618  0.37977  1.0000
  N   N62       1.0  0.92553  0.36705  0.38299  1.0000
  N   N63       1.0  0.06205  0.63391  0.37938  1.0000
  N   N64       1.0  0.08578  0.64324  0.38217  1.0000
  C   C289      1.0  0.63225  0.10657  0.35571  1.0000
  C   C290      1.0  0.61109  0.09994  0.41131  1.0000
  C   C291      1.0  0.60162  0.07444  0.41286  1.0000
  C   C292      1.0  0.61282  0.05495  0.35819  1.0000
  H   H145      1.0  0.58620  0.07034  0.45367  1.0000
  H   H146      1.0  0.60253  0.11340  0.45201  1.0000
  C   C293      1.0  0.37746  0.90502  0.35563  1.0000
  C   C294      1.0  0.39754  0.91198  0.41540  1.0000
  C   C295      1.0  0.40669  0.93759  0.41808  1.0000
  C   C296      1.0  0.39632  0.95678  0.36019  1.0000
  H   H147      1.0  0.42151  0.94192  0.46121  1.0000
  H   H148      1.0  0.40557  0.89866  0.45794  1.0000
  C   C297      1.0  0.10660  0.37871  0.35537  1.0000
  C   C298      1.0  0.09997  0.39991  0.41083  1.0000
  C   C299      1.0  0.07447  0.40937  0.41241  1.0000
  C   C300      1.0  0.05497  0.39814  0.35790  1.0000
  H   H149      1.0  0.07039  0.42480  0.45317  1.0000
  H   H150      1.0  0.11344  0.40849  0.45144  1.0000
  C   C301      1.0  0.90505  0.63352  0.35581  1.0000
  C   C302      1.0  0.91201  0.61349  0.41578  1.0000
  C   C303      1.0  0.93761  0.60434  0.41849  1.0000
  C   C304      1.0  0.95678  0.61466  0.36044  1.0000
  H   H151      1.0  0.94195  0.58954  0.46173  1.0000
  H   H152      1.0  0.89868  0.60550  0.45842  1.0000
  N   N65       1.0  0.49271  0.02215  0.37289  1.0000
  N   N66       1.0  0.51804  0.02214  0.37275  1.0000
  N   N67       1.0  0.02211  0.49290  0.37270  1.0000
  N   N68       1.0  0.02213  0.51824  0.37286  1.0000
  C   C305      1.0  0.25533  0.40585  0.36740  1.0000
  C   C306      1.0  0.24760  0.38838  0.43538  1.0000
  C   C307      1.0  0.22187  0.37971  0.43896  1.0000
  C   C308      1.0  0.20370  0.38822  0.37411  1.0000
  H   H153      1.0  0.21693  0.36595  0.48552  1.0000
  H   H154      1.0  0.26062  0.38150  0.48147  1.0000
  C   C309      1.0  0.75627  0.60560  0.36650  1.0000
  C   C310      1.0  0.76412  0.62291  0.43479  1.0000
  C   C311      1.0  0.78990  0.63145  0.43833  1.0000
  C   C312      1.0  0.80804  0.62296  0.37329  1.0000
  H   H155      1.0  0.79491  0.64514  0.48503  1.0000
  H   H156      1.0  0.75116  0.62977  0.48107  1.0000
  C   C313      1.0  0.60551  0.25542  0.36747  1.0000
  C   C314      1.0  0.62289  0.24763  0.43562  1.0000
  C   C315      1.0  0.63143  0.22185  0.43933  1.0000
  C   C316      1.0  0.62287  0.20367  0.37458  1.0000
  H   H157      1.0  0.64514  0.21687  0.48602  1.0000
  H   H158      1.0  0.62981  0.26063  0.48171  1.0000
  C   C317      1.0  0.40577  0.75635  0.36650  1.0000
  C   C318      1.0  0.38838  0.76414  0.43462  1.0000
  C   C319      1.0  0.37972  0.78988  0.43806  1.0000
  C   C320      1.0  0.38816  0.80803  0.37299  1.0000
  H   H159      1.0  0.36599  0.79485  0.48469  1.0000
  H   H160      1.0  0.38154  0.75116  0.48090  1.0000
  N   N69       1.0  0.78710  0.37913  0.39124  1.0000
  N   N70       1.0  0.76391  0.38898  0.38758  1.0000
  N   N71       1.0  0.22452  0.63203  0.39210  1.0000
  N   N72       1.0  0.24777  0.62231  0.38837  1.0000
  N   N73       1.0  0.37920  0.22458  0.39186  1.0000
  N   N74       1.0  0.38900  0.24779  0.38818  1.0000
  N   N75       1.0  0.63203  0.78714  0.39168  1.0000
  N   N76       1.0  0.62227  0.76392  0.38794  1.0000
  N   N77       1.0  0.32996  0.49115  0.37838  1.0000
  N   N78       1.0  0.33000  0.51661  0.37647  1.0000
  N   N79       1.0  0.68168  0.52030  0.37766  1.0000
  N   N80       1.0  0.68174  0.49484  0.37580  1.0000
  N   N81       1.0  0.52031  0.33004  0.37827  1.0000
  N   N82       1.0  0.49485  0.33000  0.37646  1.0000
  N   N83       1.0  0.49115  0.68175  0.37785  1.0000
  N   N84       1.0  0.51661  0.68171  0.37583  1.0000
  C   C321      1.0  0.38923  0.34754  0.35839  1.0000
  C   C322      1.0  0.36759  0.34462  0.41583  1.0000
  C   C323      1.0  0.34802  0.36349  0.41818  1.0000
  C   C324      1.0  0.34956  0.38575  0.36300  1.0000
  H   H161      1.0  0.33271  0.36072  0.46071  1.0000
  H   H162      1.0  0.36580  0.32874  0.45646  1.0000
  C   C325      1.0  0.62233  0.66407  0.35742  1.0000
  C   C326      1.0  0.64403  0.66704  0.41459  1.0000
  C   C327      1.0  0.66359  0.64815  0.41701  1.0000
  C   C328      1.0  0.66201  0.62581  0.36220  1.0000
  H   H163      1.0  0.67893  0.65096  0.45938  1.0000
  H   H164      1.0  0.64586  0.68295  0.45503  1.0000
  C   C329      1.0  0.66412  0.38923  0.35779  1.0000
  C   C330      1.0  0.66704  0.36757  0.41511  1.0000
  C   C331      1.0  0.64813  0.34804  0.41761  1.0000
  C   C332      1.0  0.62581  0.34963  0.36269  1.0000
  H   H165      1.0  0.65090  0.33272  0.46009  1.0000
  H   H166      1.0  0.68295  0.36574  0.45560  1.0000
  C   C333      1.0  0.34758  0.62233  0.35808  1.0000
  C   C334      1.0  0.34461  0.64400  0.41534  1.0000
  C   C335      1.0  0.36345  0.66360  0.41762  1.0000
  C   C336      1.0  0.38574  0.66206  0.36257  1.0000
  H   H167      1.0  0.36065  0.67893  0.46003  1.0000
  H   H168      1.0  0.32872  0.64579  0.45593  1.0000
