data_image0
_chemical_formula_structural       C4HOCHCHC2HC3H3C2HC4HOCHCHC2HC3H3C2HC3HOCOHCHCH4C2H2C2HC3H3C3HOCOHCHCH4C2H2C2HC3H3C10H2C2H2C8HCH3C4HCH3C10H2C2H2C8HCH3C4HCH3C4OHC3OH2COC2H2C2H2C2H4C2H2C4HCH3C4HCH3C4OHC3OH2COC2H2C2H2C2H4C2H2C4HCH3C4HCH3C4HOC4OHC4HOC4OHC4HOC4OHC2H2C2H2C2H2C2H2C2H2C2H2C4H4C4H4C4H4C4HCH3C4HCH3C4HCH3C4HCH3C4HCH3C4HCH3C4HOC4OHC4HOC4OHC4HOC4OHC2H2C2H2C2H2C2H2C2H2C2H2C4H4C4H4C4H4C4HCH3C4HCH3C4HCH3C4HCH3C4HCH3C4HCH3
_chemical_formula_sum              "C312 H216 O24"
_cell_length_a       46.7139
_cell_length_b       46.7138
_cell_length_c       14.8213
_cell_angle_alpha    90
_cell_angle_beta     90
_cell_angle_gamma    120

_space_group_name_H-M_alt    "P 1"
_space_group_IT_number       1

loop_
  _space_group_symop_operation_xyz
  'x, y, z'

loop_
  _atom_site_type_symbol
  _atom_site_label
  _atom_site_symmetry_multiplicity
  _atom_site_fract_x
  _atom_site_fract_y
  _atom_site_fract_z
  _atom_site_occupancy
  C   C1        1.0  0.02701  0.26505  0.34897  1.0000
  C   C2        1.0  0.04614  0.30048  0.34762  1.0000
  C   C3        1.0  0.08110  0.31858  0.34370  1.0000
  C   C4        1.0  0.09841  0.30097  0.34343  1.0000
  H   H1        1.0  0.03500  0.31441  0.34756  1.0000
  O   O1        1.0  0.13220  0.31795  0.34324  1.0000
  C   C5        1.0  0.11666  0.25184  0.26117  1.0000
  H   H2        1.0  0.10917  0.25774  0.20252  1.0000
  C   C6        1.0  0.11709  0.36835  0.26007  1.0000
  H   H3        1.0  0.11011  0.35523  0.20096  1.0000
  C   C7        1.0  0.08132  0.26606  0.34496  1.0000
  C   C8        1.0  0.04635  0.24898  0.34850  1.0000
  H   H4        1.0  0.03539  0.22392  0.34969  1.0000
  C   C9        1.0  0.11403  0.24571  0.42466  1.0000
  C   C10       1.0  0.10016  0.24980  0.34314  1.0000
  C   C11       1.0  0.09925  0.24541  0.51398  1.0000
  H   H5        1.0  0.11179  0.24098  0.56982  1.0000
  H   H6        1.0  0.07340  0.22582  0.51506  1.0000
  H   H7        1.0  0.10051  0.26907  0.52603  1.0000
  C   C12       1.0  0.09962  0.35362  0.34052  1.0000
  C   C13       1.0  0.11300  0.37109  0.42197  1.0000
  H   H8        1.0  0.10224  0.35951  0.48144  1.0000
  C   C14       1.0  0.02701  0.76505  0.34897  1.0000
  C   C15       1.0  0.04614  0.80048  0.34762  1.0000
  C   C16       1.0  0.08110  0.81858  0.34370  1.0000
  C   C17       1.0  0.09841  0.80097  0.34343  1.0000
  H   H9        1.0  0.03500  0.81441  0.34756  1.0000
  O   O2        1.0  0.13220  0.81795  0.34324  1.0000
  C   C18       1.0  0.11666  0.75184  0.26117  1.0000
  H   H10       1.0  0.10917  0.75774  0.20252  1.0000
  C   C19       1.0  0.11709  0.86835  0.26007  1.0000
  H   H11       1.0  0.11011  0.85523  0.20096  1.0000
  C   C20       1.0  0.08132  0.76606  0.34496  1.0000
  C   C21       1.0  0.04635  0.74898  0.34850  1.0000
  H   H12       1.0  0.03539  0.72392  0.34969  1.0000
  C   C22       1.0  0.11402  0.74571  0.42466  1.0000
  C   C23       1.0  0.10016  0.74980  0.34314  1.0000
  C   C24       1.0  0.09925  0.74541  0.51398  1.0000
  H   H13       1.0  0.11179  0.74098  0.56982  1.0000
  H   H14       1.0  0.07340  0.72582  0.51506  1.0000
  H   H15       1.0  0.10051  0.76907  0.52603  1.0000
  C   C25       1.0  0.09962  0.85362  0.34052  1.0000
  C   C26       1.0  0.11300  0.87109  0.42197  1.0000
  H   H16       1.0  0.10224  0.85951  0.48144  1.0000
  C   C27       1.0  0.21456  0.24863  0.34741  1.0000
  C   C28       1.0  0.19647  0.26550  0.34370  1.0000
  C   C29       1.0  0.21408  0.30042  0.34353  1.0000
  H   H17       1.0  0.20063  0.22356  0.34695  1.0000
  O   O3        1.0  0.19710  0.31723  0.34337  1.0000
  C   C30       1.0  0.21460  0.41667  0.34321  1.0000
  O   O4        1.0  0.19779  0.38288  0.34303  1.0000
  H   H18       1.0  0.22664  0.03200  0.34741  1.0000
  C   C31       1.0  0.14669  0.25170  0.25971  1.0000
  H   H19       1.0  0.15973  0.25765  0.20047  1.0000
  C   C32       1.0  0.14730  0.39835  0.26145  1.0000
  H   H20       1.0  0.16070  0.40579  0.20280  1.0000
  H   H21       1.0  0.13889  0.32171  0.40702  1.0000
  H   H22       1.0  0.19337  0.32019  0.40715  1.0000
  H   H23       1.0  0.22692  0.19758  0.35025  1.0000
  C   C33       1.0  0.19679  0.43377  0.34480  1.0000
  C   C34       1.0  0.21470  0.46874  0.34859  1.0000
  H   H24       1.0  0.19482  0.37619  0.40682  1.0000
  H   H25       1.0  0.20063  0.47972  0.35004  1.0000
  C   C35       1.0  0.16142  0.24897  0.34006  1.0000
  C   C36       1.0  0.14408  0.24498  0.42170  1.0000
  H   H26       1.0  0.15568  0.24586  0.48117  1.0000
  C   C37       1.0  0.14374  0.40118  0.42488  1.0000
  C   C38       1.0  0.16168  0.41497  0.34338  1.0000
  C   C39       1.0  0.15823  0.41605  0.51411  1.0000
  H   H27       1.0  0.14128  0.40352  0.56999  1.0000
  H   H28       1.0  0.16442  0.44188  0.51500  1.0000
  H   H29       1.0  0.18066  0.41485  0.52619  1.0000
  C   C40       1.0  0.21456  0.74863  0.34741  1.0000
  C   C41       1.0  0.19647  0.76550  0.34370  1.0000
  C   C42       1.0  0.21408  0.80042  0.34353  1.0000
  H   H30       1.0  0.20063  0.72356  0.34695  1.0000
  O   O5        1.0  0.19710  0.81723  0.34337  1.0000
  C   C43       1.0  0.21460  0.91667  0.34321  1.0000
  O   O6        1.0  0.19779  0.88288  0.34303  1.0000
  H   H31       1.0  0.22664  0.53200  0.34741  1.0000
  C   C44       1.0  0.14669  0.75170  0.25971  1.0000
  H   H32       1.0  0.15973  0.75765  0.20047  1.0000
  C   C45       1.0  0.14730  0.89835  0.26145  1.0000
  H   H33       1.0  0.16070  0.90579  0.20280  1.0000
  H   H34       1.0  0.13889  0.82171  0.40702  1.0000
  H   H35       1.0  0.19337  0.82019  0.40715  1.0000
  H   H36       1.0  0.22692  0.69759  0.35025  1.0000
  C   C46       1.0  0.19679  0.93377  0.34480  1.0000
  C   C47       1.0  0.21470  0.96874  0.34859  1.0000
  H   H37       1.0  0.19482  0.87619  0.40681  1.0000
  H   H38       1.0  0.20063  0.97972  0.35004  1.0000
  C   C48       1.0  0.16142  0.74897  0.34006  1.0000
  C   C49       1.0  0.14407  0.74498  0.42170  1.0000
  H   H39       1.0  0.15568  0.74586  0.48117  1.0000
  C   C50       1.0  0.14375  0.90118  0.42488  1.0000
  C   C51       1.0  0.16168  0.91497  0.34338  1.0000
  C   C52       1.0  0.15823  0.91605  0.51411  1.0000
  H   H40       1.0  0.14128  0.90352  0.56999  1.0000
  H   H41       1.0  0.16442  0.94188  0.51500  1.0000
  H   H42       1.0  0.18066  0.91485  0.52619  1.0000
  C   C53       1.0  0.24999  0.26493  0.34894  1.0000
  C   C54       1.0  0.26805  0.24708  0.34892  1.0000
  C   C55       1.0  0.25012  0.48807  0.34892  1.0000
  C   C56       1.0  0.26641  0.46893  0.34740  1.0000
  C   C57       1.0  0.24952  0.43397  0.34353  1.0000
  C   C58       1.0  0.26798  0.02398  0.34899  1.0000
  C   C59       1.0  0.26859  0.07809  0.34394  1.0000
  C   C60       1.0  0.25170  0.04313  0.34766  1.0000
  C   C61       1.0  0.26316  0.36775  0.26152  1.0000
  C   C62       1.0  0.26334  0.39794  0.25981  1.0000
  H   H43       1.0  0.25722  0.35429  0.20298  1.0000
  H   H44       1.0  0.25726  0.40489  0.20053  1.0000
  C   C63       1.0  0.25491  0.14427  0.26158  1.0000
  C   C64       1.0  0.25492  0.11417  0.26038  1.0000
  H   H45       1.0  0.26099  0.15772  0.20301  1.0000
  H   H46       1.0  0.26097  0.10715  0.20117  1.0000
  C   C65       1.0  0.24899  0.31824  0.34511  1.0000
  C   C66       1.0  0.26606  0.30034  0.34869  1.0000
  C   C67       1.0  0.25198  0.21167  0.34872  1.0000
  C   C68       1.0  0.26904  0.19376  0.34501  1.0000
  C   C69       1.0  0.26605  0.41545  0.34005  1.0000
  C   C70       1.0  0.27000  0.40211  0.42175  1.0000
  C   C71       1.0  0.26935  0.37138  0.42489  1.0000
  C   C72       1.0  0.26527  0.35334  0.34358  1.0000
  H   H47       1.0  0.26925  0.41294  0.48117  1.0000
  C   C73       1.0  0.26970  0.35695  0.51425  1.0000
  H   H48       1.0  0.27408  0.37393  0.57004  1.0000
  H   H49       1.0  0.28935  0.35077  0.51537  1.0000
  H   H50       1.0  0.24608  0.33452  0.52633  1.0000
  C   C74       1.0  0.25208  0.09662  0.34074  1.0000
  C   C75       1.0  0.24801  0.11002  0.42216  1.0000
  C   C76       1.0  0.24861  0.14073  0.42511  1.0000
  C   C77       1.0  0.25274  0.15865  0.34359  1.0000
  H   H51       1.0  0.24873  0.09922  0.48168  1.0000
  C   C78       1.0  0.24822  0.15521  0.51432  1.0000
  H   H52       1.0  0.24381  0.13826  0.57021  1.0000
  H   H53       1.0  0.22857  0.16139  0.51522  1.0000
  H   H54       1.0  0.27183  0.17765  0.52641  1.0000
  C   C79       1.0  0.24999  0.76493  0.34894  1.0000
  C   C80       1.0  0.26805  0.74708  0.34892  1.0000
  C   C81       1.0  0.25012  0.98807  0.34892  1.0000
  C   C82       1.0  0.26640  0.96893  0.34740  1.0000
  C   C83       1.0  0.24952  0.93397  0.34353  1.0000
  C   C84       1.0  0.26798  0.52398  0.34899  1.0000
  C   C85       1.0  0.26859  0.57809  0.34394  1.0000
  C   C86       1.0  0.25170  0.54313  0.34766  1.0000
  C   C87       1.0  0.26315  0.86775  0.26152  1.0000
  C   C88       1.0  0.26334  0.89794  0.25981  1.0000
  H   H55       1.0  0.25722  0.85429  0.20298  1.0000
  H   H56       1.0  0.25726  0.90489  0.20053  1.0000
  C   C89       1.0  0.25491  0.64427  0.26158  1.0000
  C   C90       1.0  0.25492  0.61417  0.26038  1.0000
  H   H57       1.0  0.26099  0.65772  0.20301  1.0000
  H   H58       1.0  0.26097  0.60715  0.20117  1.0000
  C   C91       1.0  0.24899  0.81824  0.34511  1.0000
  C   C92       1.0  0.26606  0.80034  0.34869  1.0000
  C   C93       1.0  0.25197  0.71167  0.34872  1.0000
  C   C94       1.0  0.26904  0.69376  0.34501  1.0000
  C   C95       1.0  0.26605  0.91545  0.34005  1.0000
  C   C96       1.0  0.27000  0.90211  0.42175  1.0000
  C   C97       1.0  0.26935  0.87138  0.42489  1.0000
  C   C98       1.0  0.26527  0.85333  0.34358  1.0000
  H   H59       1.0  0.26925  0.91294  0.48117  1.0000
  C   C99       1.0  0.26970  0.85695  0.51425  1.0000
  H   H60       1.0  0.27408  0.87393  0.57004  1.0000
  H   H61       1.0  0.28935  0.85077  0.51537  1.0000
  H   H62       1.0  0.24608  0.83452  0.52633  1.0000
  C   C100      1.0  0.25208  0.59662  0.34074  1.0000
  C   C101      1.0  0.24801  0.61002  0.42216  1.0000
  C   C102      1.0  0.24861  0.64073  0.42511  1.0000
  C   C103      1.0  0.25274  0.65865  0.34359  1.0000
  H   H63       1.0  0.24873  0.59923  0.48168  1.0000
  C   C104      1.0  0.24822  0.65521  0.51432  1.0000
  H   H64       1.0  0.24381  0.63827  0.57021  1.0000
  H   H65       1.0  0.22857  0.66139  0.51522  1.0000
  H   H66       1.0  0.27183  0.67765  0.52641  1.0000
  C   C105      1.0  0.49110  0.24698  0.34892  1.0000
  C   C106      1.0  0.41970  0.21107  0.34289  1.0000
  C   C107      1.0  0.43701  0.19346  0.34340  1.0000
  C   C108      1.0  0.47197  0.21155  0.34749  1.0000
  O   O7        1.0  0.38591  0.19410  0.34244  1.0000
  H   H67       1.0  0.48311  0.19762  0.34739  1.0000
  C   C109      1.0  0.30395  0.21159  0.34341  1.0000
  C   C110      1.0  0.32156  0.24650  0.34362  1.0000
  C   C111      1.0  0.30348  0.26338  0.34731  1.0000
  O   O8        1.0  0.32094  0.19477  0.34323  1.0000
  H   H68       1.0  0.31741  0.28845  0.34694  1.0000
  H   H69       1.0  0.29147  0.48006  0.34722  1.0000
  C   C112      1.0  0.30351  0.09538  0.34386  1.0000
  O   O9        1.0  0.32035  0.12918  0.34385  1.0000
  C   C113      1.0  0.40147  0.26026  0.26101  1.0000
  C   C114      1.0  0.37144  0.26039  0.25969  1.0000
  H   H70       1.0  0.40896  0.25435  0.20239  1.0000
  H   H71       1.0  0.35838  0.25439  0.20048  1.0000
  C   C115      1.0  0.37074  0.11351  0.26141  1.0000
  C   C116      1.0  0.40091  0.14353  0.25967  1.0000
  H   H72       1.0  0.35730  0.10595  0.20284  1.0000
  H   H73       1.0  0.40789  0.15654  0.20040  1.0000
  C   C117      1.0  0.47176  0.26305  0.34847  1.0000
  C   C118      1.0  0.43679  0.24598  0.34469  1.0000
  H   H74       1.0  0.37916  0.19034  0.40617  1.0000
  H   H75       1.0  0.48272  0.28810  0.34986  1.0000
  H   H76       1.0  0.32466  0.19181  0.40701  1.0000
  H   H77       1.0  0.29111  0.31442  0.35018  1.0000
  C   C119      1.0  0.30340  0.04330  0.34859  1.0000
  C   C120      1.0  0.32132  0.07828  0.34521  1.0000
  H   H78       1.0  0.32323  0.13582  0.40766  1.0000
  H   H79       1.0  0.31747  0.03232  0.34981  1.0000
  C   C121      1.0  0.35659  0.26302  0.34000  1.0000
  C   C122      1.0  0.37403  0.26700  0.42151  1.0000
  C   C123      1.0  0.40409  0.26629  0.42449  1.0000
  C   C124      1.0  0.41796  0.26225  0.34295  1.0000
  H   H80       1.0  0.36244  0.26609  0.48103  1.0000
  C   C125      1.0  0.41887  0.26658  0.51380  1.0000
  H   H81       1.0  0.40632  0.27098  0.56966  1.0000
  H   H82       1.0  0.44472  0.28619  0.51490  1.0000
  H   H83       1.0  0.41763  0.24293  0.52577  1.0000
  C   C126      1.0  0.41848  0.15842  0.33982  1.0000
  C   C127      1.0  0.40515  0.14112  0.42159  1.0000
  C   C128      1.0  0.37442  0.11104  0.42491  1.0000
  C   C129      1.0  0.35643  0.09707  0.34359  1.0000
  H   H84       1.0  0.41598  0.15278  0.48093  1.0000
  C   C130      1.0  0.36001  0.09633  0.51434  1.0000
  H   H85       1.0  0.37700  0.10897  0.57006  1.0000
  H   H86       1.0  0.35382  0.07050  0.51560  1.0000
  H   H87       1.0  0.33759  0.09754  0.52637  1.0000
  C   C131      1.0  0.49110  0.74698  0.34892  1.0000
  C   C132      1.0  0.41970  0.71108  0.34289  1.0000
  C   C133      1.0  0.43701  0.69346  0.34340  1.0000
  C   C134      1.0  0.47197  0.71155  0.34749  1.0000
  O   O10       1.0  0.38591  0.69410  0.34244  1.0000
  H   H88       1.0  0.48311  0.69762  0.34739  1.0000
  C   C135      1.0  0.30395  0.71159  0.34341  1.0000
  C   C136      1.0  0.32156  0.74650  0.34362  1.0000
  C   C137      1.0  0.30348  0.76338  0.34731  1.0000
  O   O11       1.0  0.32094  0.69478  0.34323  1.0000
  H   H89       1.0  0.31741  0.78845  0.34694  1.0000
  H   H90       1.0  0.29147  0.98006  0.34722  1.0000
  C   C138      1.0  0.30351  0.59538  0.34386  1.0000
  O   O12       1.0  0.32035  0.62918  0.34385  1.0000
  C   C139      1.0  0.40147  0.76026  0.26101  1.0000
  C   C140      1.0  0.37144  0.76039  0.25969  1.0000
  H   H91       1.0  0.40896  0.75435  0.20239  1.0000
  H   H92       1.0  0.35838  0.75439  0.20048  1.0000
  C   C141      1.0  0.37074  0.61351  0.26141  1.0000
  C   C142      1.0  0.40091  0.64353  0.25967  1.0000
  H   H93       1.0  0.35730  0.60595  0.20284  1.0000
  H   H94       1.0  0.40789  0.65655  0.20040  1.0000
  C   C143      1.0  0.47176  0.76306  0.34847  1.0000
  C   C144      1.0  0.43679  0.74598  0.34469  1.0000
  H   H95       1.0  0.37916  0.69034  0.40617  1.0000
  H   H96       1.0  0.48273  0.78811  0.34986  1.0000
  H   H97       1.0  0.32466  0.69181  0.40701  1.0000
  H   H98       1.0  0.29111  0.81443  0.35018  1.0000
  C   C145      1.0  0.30340  0.54331  0.34859  1.0000
  C   C146      1.0  0.32132  0.57828  0.34521  1.0000
  H   H99       1.0  0.32323  0.63582  0.40766  1.0000
  H   H100      1.0  0.31747  0.53232  0.34981  1.0000
  C   C147      1.0  0.35659  0.76302  0.34000  1.0000
  C   C148      1.0  0.37403  0.76700  0.42151  1.0000
  C   C149      1.0  0.40409  0.76629  0.42449  1.0000
  C   C150      1.0  0.41796  0.76225  0.34295  1.0000
  H   H101      1.0  0.36244  0.76610  0.48103  1.0000
  C   C151      1.0  0.41887  0.76658  0.51380  1.0000
  H   H102      1.0  0.40632  0.77097  0.56966  1.0000
  H   H103      1.0  0.44472  0.78619  0.51490  1.0000
  H   H104      1.0  0.41763  0.74293  0.52577  1.0000
  C   C152      1.0  0.41848  0.65842  0.33982  1.0000
  C   C153      1.0  0.40515  0.64112  0.42159  1.0000
  C   C154      1.0  0.37442  0.61104  0.42491  1.0000
  C   C155      1.0  0.35643  0.59706  0.34359  1.0000
  H   H105      1.0  0.41598  0.65278  0.48093  1.0000
  C   C156      1.0  0.36001  0.59633  0.51434  1.0000
  H   H106      1.0  0.37700  0.60897  0.57006  1.0000
  H   H107      1.0  0.35382  0.57051  0.51560  1.0000
  H   H108      1.0  0.33758  0.59754  0.52637  1.0000
  C   C157      1.0  0.52701  0.26505  0.34897  1.0000
  C   C158      1.0  0.54614  0.30048  0.34762  1.0000
  C   C159      1.0  0.58110  0.31858  0.34370  1.0000
  C   C160      1.0  0.59841  0.30097  0.34343  1.0000
  H   H109      1.0  0.53500  0.31441  0.34756  1.0000
  O   O13       1.0  0.63220  0.31795  0.34324  1.0000
  C   C161      1.0  0.99110  0.24698  0.34892  1.0000
  C   C162      1.0  0.91970  0.21107  0.34289  1.0000
  C   C163      1.0  0.93701  0.19346  0.34340  1.0000
  C   C164      1.0  0.97197  0.21155  0.34749  1.0000
  O   O14       1.0  0.88591  0.19410  0.34244  1.0000
  H   H110      1.0  0.98311  0.19762  0.34739  1.0000
  C   C165      1.0  0.74999  0.26493  0.34894  1.0000
  C   C166      1.0  0.71456  0.24863  0.34741  1.0000
  C   C167      1.0  0.69647  0.26550  0.34370  1.0000
  C   C168      1.0  0.71408  0.30042  0.34353  1.0000
  H   H111      1.0  0.70063  0.22356  0.34695  1.0000
  O   O15       1.0  0.69710  0.31723  0.34337  1.0000
  C   C169      1.0  0.76805  0.24708  0.34892  1.0000
  C   C170      1.0  0.80396  0.21159  0.34341  1.0000
  C   C171      1.0  0.82156  0.24650  0.34362  1.0000
  C   C172      1.0  0.80348  0.26338  0.34731  1.0000
  O   O16       1.0  0.82093  0.19477  0.34323  1.0000
  H   H112      1.0  0.81741  0.28845  0.34694  1.0000
  C   C173      1.0  0.75012  0.48807  0.34892  1.0000
  C   C174      1.0  0.76640  0.46893  0.34740  1.0000
  C   C175      1.0  0.74952  0.43397  0.34353  1.0000
  C   C176      1.0  0.71460  0.41667  0.34321  1.0000
  H   H113      1.0  0.79147  0.48006  0.34722  1.0000
  O   O17       1.0  0.69779  0.38288  0.34303  1.0000
  C   C177      1.0  0.76798  0.02398  0.34899  1.0000
  C   C178      1.0  0.80351  0.09538  0.34386  1.0000
  C   C179      1.0  0.76859  0.07809  0.34394  1.0000
  C   C180      1.0  0.75170  0.04313  0.34766  1.0000
  O   O18       1.0  0.82035  0.12918  0.34385  1.0000
  H   H114      1.0  0.72663  0.03200  0.34741  1.0000
  C   C181      1.0  0.61666  0.25184  0.26117  1.0000
  C   C182      1.0  0.64669  0.25170  0.25971  1.0000
  H   H115      1.0  0.60917  0.25774  0.20252  1.0000
  H   H116      1.0  0.65973  0.25765  0.20047  1.0000
  C   C183      1.0  0.76315  0.36775  0.26152  1.0000
  C   C184      1.0  0.76334  0.39794  0.25981  1.0000
  H   H117      1.0  0.75722  0.35429  0.20298  1.0000
  H   H118      1.0  0.75726  0.40489  0.20053  1.0000
  C   C185      1.0  0.64730  0.39835  0.26145  1.0000
  C   C186      1.0  0.61709  0.36835  0.26007  1.0000
  H   H119      1.0  0.66070  0.40579  0.20280  1.0000
  H   H120      1.0  0.61011  0.35523  0.20096  1.0000
  C   C187      1.0  0.90147  0.26026  0.26101  1.0000
  C   C188      1.0  0.87144  0.26039  0.25969  1.0000
  H   H121      1.0  0.90896  0.25435  0.20239  1.0000
  H   H122      1.0  0.85838  0.25439  0.20048  1.0000
  C   C189      1.0  0.75491  0.14427  0.26158  1.0000
  C   C190      1.0  0.75492  0.11417  0.26038  1.0000
  H   H123      1.0  0.76099  0.15772  0.20301  1.0000
  H   H124      1.0  0.76097  0.10715  0.20117  1.0000
  C   C191      1.0  0.87074  0.11351  0.26141  1.0000
  C   C192      1.0  0.90091  0.14353  0.25967  1.0000
  H   H125      1.0  0.85730  0.10595  0.20284  1.0000
  H   H126      1.0  0.90789  0.15654  0.20040  1.0000
  C   C193      1.0  0.58132  0.26606  0.34496  1.0000
  C   C194      1.0  0.54635  0.24898  0.34850  1.0000
  C   C195      1.0  0.97176  0.26305  0.34847  1.0000
  C   C196      1.0  0.93679  0.24598  0.34469  1.0000
  H   H127      1.0  0.63889  0.32171  0.40702  1.0000
  H   H128      1.0  0.87916  0.19034  0.40617  1.0000
  H   H129      1.0  0.53539  0.22392  0.34969  1.0000
  H   H130      1.0  0.98273  0.28810  0.34986  1.0000
  C   C197      1.0  0.74899  0.31824  0.34511  1.0000
  C   C198      1.0  0.76606  0.30034  0.34869  1.0000
  C   C199      1.0  0.75197  0.21167  0.34872  1.0000
  C   C200      1.0  0.76904  0.19376  0.34501  1.0000
  H   H131      1.0  0.69337  0.32019  0.40715  1.0000
  H   H132      1.0  0.82466  0.19181  0.40701  1.0000
  H   H133      1.0  0.79111  0.31442  0.35018  1.0000
  H   H134      1.0  0.72692  0.19758  0.35025  1.0000
  C   C201      1.0  0.69679  0.43377  0.34480  1.0000
  C   C202      1.0  0.71470  0.46874  0.34859  1.0000
  C   C203      1.0  0.80340  0.04330  0.34859  1.0000
  C   C204      1.0  0.82132  0.07828  0.34521  1.0000
  H   H135      1.0  0.69482  0.37619  0.40682  1.0000
  H   H136      1.0  0.82323  0.13582  0.40766  1.0000
  H   H137      1.0  0.70063  0.47972  0.35004  1.0000
  H   H138      1.0  0.81747  0.03232  0.34981  1.0000
  C   C205      1.0  0.66142  0.24897  0.34006  1.0000
  C   C206      1.0  0.64407  0.24498  0.42170  1.0000
  C   C207      1.0  0.61402  0.24571  0.42466  1.0000
  C   C208      1.0  0.60016  0.24980  0.34314  1.0000
  H   H139      1.0  0.65568  0.24586  0.48117  1.0000
  C   C209      1.0  0.59925  0.24541  0.51398  1.0000
  H   H140      1.0  0.61179  0.24098  0.56982  1.0000
  H   H141      1.0  0.57340  0.22582  0.51506  1.0000
  H   H142      1.0  0.60051  0.26907  0.52603  1.0000
  C   C210      1.0  0.76605  0.41545  0.34005  1.0000
  C   C211      1.0  0.77000  0.40211  0.42175  1.0000
  C   C212      1.0  0.76935  0.37138  0.42489  1.0000
  C   C213      1.0  0.76527  0.35334  0.34358  1.0000
  H   H143      1.0  0.76925  0.41294  0.48117  1.0000
  C   C214      1.0  0.76970  0.35695  0.51425  1.0000
  H   H144      1.0  0.77408  0.37393  0.57004  1.0000
  H   H145      1.0  0.78935  0.35077  0.51537  1.0000
  H   H146      1.0  0.74608  0.33452  0.52633  1.0000
  C   C215      1.0  0.59962  0.35362  0.34052  1.0000
  C   C216      1.0  0.61300  0.37109  0.42197  1.0000
  C   C217      1.0  0.64374  0.40118  0.42488  1.0000
  C   C218      1.0  0.66168  0.41497  0.34338  1.0000
  H   H147      1.0  0.60224  0.35951  0.48144  1.0000
  C   C219      1.0  0.65823  0.41605  0.51411  1.0000
  H   H148      1.0  0.64128  0.40352  0.56999  1.0000
  H   H149      1.0  0.66442  0.44188  0.51500  1.0000
  H   H150      1.0  0.68066  0.41485  0.52619  1.0000
  C   C220      1.0  0.85659  0.26302  0.34000  1.0000
  C   C221      1.0  0.87403  0.26700  0.42151  1.0000
  C   C222      1.0  0.90409  0.26629  0.42449  1.0000
  C   C223      1.0  0.91796  0.26225  0.34295  1.0000
  H   H151      1.0  0.86244  0.26609  0.48103  1.0000
  C   C224      1.0  0.91887  0.26658  0.51380  1.0000
  H   H152      1.0  0.90632  0.27098  0.56966  1.0000
  H   H153      1.0  0.94472  0.28619  0.51490  1.0000
  H   H154      1.0  0.91763  0.24293  0.52577  1.0000
  C   C225      1.0  0.75208  0.09662  0.34074  1.0000
  C   C226      1.0  0.74801  0.11002  0.42216  1.0000
  C   C227      1.0  0.74861  0.14073  0.42511  1.0000
  C   C228      1.0  0.75274  0.15865  0.34359  1.0000
  H   H155      1.0  0.74873  0.09922  0.48168  1.0000
  C   C229      1.0  0.74822  0.15521  0.51432  1.0000
  H   H156      1.0  0.74381  0.13826  0.57021  1.0000
  H   H157      1.0  0.72857  0.16139  0.51522  1.0000
  H   H158      1.0  0.77183  0.17765  0.52641  1.0000
  C   C230      1.0  0.91848  0.15842  0.33982  1.0000
  C   C231      1.0  0.90516  0.14112  0.42159  1.0000
  C   C232      1.0  0.87442  0.11104  0.42491  1.0000
  C   C233      1.0  0.85643  0.09707  0.34359  1.0000
  H   H159      1.0  0.91598  0.15278  0.48093  1.0000
  C   C234      1.0  0.86001  0.09633  0.51434  1.0000
  H   H160      1.0  0.87700  0.10897  0.57006  1.0000
  H   H161      1.0  0.85382  0.07050  0.51560  1.0000
  H   H162      1.0  0.83758  0.09754  0.52637  1.0000
  C   C235      1.0  0.52701  0.76505  0.34897  1.0000
  C   C236      1.0  0.54614  0.80048  0.34762  1.0000
  C   C237      1.0  0.58110  0.81858  0.34370  1.0000
  C   C238      1.0  0.59841  0.80097  0.34343  1.0000
  H   H163      1.0  0.53500  0.81441  0.34756  1.0000
  O   O19       1.0  0.63220  0.81795  0.34324  1.0000
  C   C239      1.0  0.99110  0.74698  0.34892  1.0000
  C   C240      1.0  0.91970  0.71108  0.34289  1.0000
  C   C241      1.0  0.93701  0.69346  0.34340  1.0000
  C   C242      1.0  0.97197  0.71155  0.34749  1.0000
  O   O20       1.0  0.88591  0.69410  0.34244  1.0000
  H   H164      1.0  0.98311  0.69762  0.34739  1.0000
  C   C243      1.0  0.74999  0.76493  0.34894  1.0000
  C   C244      1.0  0.71456  0.74863  0.34741  1.0000
  C   C245      1.0  0.69647  0.76550  0.34370  1.0000
  C   C246      1.0  0.71408  0.80042  0.34353  1.0000
  H   H165      1.0  0.70063  0.72356  0.34695  1.0000
  O   O21       1.0  0.69710  0.81723  0.34337  1.0000
  C   C247      1.0  0.76805  0.74708  0.34892  1.0000
  C   C248      1.0  0.80396  0.71159  0.34341  1.0000
  C   C249      1.0  0.82156  0.74650  0.34362  1.0000
  C   C250      1.0  0.80348  0.76338  0.34731  1.0000
  O   O22       1.0  0.82094  0.69478  0.34323  1.0000
  H   H166      1.0  0.81741  0.78845  0.34694  1.0000
  C   C251      1.0  0.75012  0.98807  0.34892  1.0000
  C   C252      1.0  0.76641  0.96893  0.34740  1.0000
  C   C253      1.0  0.74952  0.93397  0.34353  1.0000
  C   C254      1.0  0.71461  0.91667  0.34321  1.0000
  H   H167      1.0  0.79147  0.98006  0.34722  1.0000
  O   O23       1.0  0.69778  0.88288  0.34303  1.0000
  C   C255      1.0  0.76798  0.52398  0.34899  1.0000
  C   C256      1.0  0.80351  0.59538  0.34386  1.0000
  C   C257      1.0  0.76859  0.57809  0.34394  1.0000
  C   C258      1.0  0.75170  0.54313  0.34766  1.0000
  O   O24       1.0  0.82035  0.62918  0.34385  1.0000
  H   H168      1.0  0.72663  0.53200  0.34741  1.0000
  C   C259      1.0  0.61666  0.75184  0.26117  1.0000
  C   C260      1.0  0.64669  0.75170  0.25971  1.0000
  H   H169      1.0  0.60917  0.75774  0.20252  1.0000
  H   H170      1.0  0.65973  0.75765  0.20047  1.0000
  C   C261      1.0  0.76316  0.86775  0.26152  1.0000
  C   C262      1.0  0.76334  0.89794  0.25981  1.0000
  H   H171      1.0  0.75722  0.85429  0.20298  1.0000
  H   H172      1.0  0.75727  0.90489  0.20053  1.0000
  C   C263      1.0  0.64730  0.89835  0.26145  1.0000
  C   C264      1.0  0.61709  0.86835  0.26007  1.0000
  H   H173      1.0  0.66070  0.90579  0.20280  1.0000
  H   H174      1.0  0.61011  0.85523  0.20096  1.0000
  C   C265      1.0  0.90147  0.76026  0.26101  1.0000
  C   C266      1.0  0.87144  0.76039  0.25969  1.0000
  H   H175      1.0  0.90896  0.75435  0.20239  1.0000
  H   H176      1.0  0.85838  0.75439  0.20048  1.0000
  C   C267      1.0  0.75491  0.64427  0.26158  1.0000
  C   C268      1.0  0.75492  0.61417  0.26038  1.0000
  H   H177      1.0  0.76099  0.65772  0.20301  1.0000
  H   H178      1.0  0.76097  0.60715  0.20117  1.0000
  C   C269      1.0  0.87074  0.61351  0.26141  1.0000
  C   C270      1.0  0.90091  0.64353  0.25967  1.0000
  H   H179      1.0  0.85730  0.60595  0.20284  1.0000
  H   H180      1.0  0.90789  0.65655  0.20040  1.0000
  C   C271      1.0  0.58132  0.76606  0.34496  1.0000
  C   C272      1.0  0.54635  0.74898  0.34850  1.0000
  C   C273      1.0  0.97176  0.76306  0.34847  1.0000
  C   C274      1.0  0.93679  0.74598  0.34469  1.0000
  H   H181      1.0  0.63889  0.82171  0.40702  1.0000
  H   H182      1.0  0.87916  0.69034  0.40617  1.0000
  H   H183      1.0  0.53539  0.72392  0.34969  1.0000
  H   H184      1.0  0.98272  0.78811  0.34986  1.0000
  C   C275      1.0  0.74899  0.81824  0.34511  1.0000
  C   C276      1.0  0.76606  0.80034  0.34869  1.0000
  C   C277      1.0  0.75197  0.71167  0.34872  1.0000
  C   C278      1.0  0.76904  0.69376  0.34501  1.0000
  H   H185      1.0  0.69337  0.82019  0.40715  1.0000
  H   H186      1.0  0.82466  0.69181  0.40701  1.0000
  H   H187      1.0  0.79111  0.81443  0.35018  1.0000
  H   H188      1.0  0.72692  0.69759  0.35025  1.0000
  C   C279      1.0  0.69679  0.93377  0.34480  1.0000
  C   C280      1.0  0.71470  0.96874  0.34859  1.0000
  C   C281      1.0  0.80340  0.54331  0.34859  1.0000
  C   C282      1.0  0.82132  0.57828  0.34521  1.0000
  H   H189      1.0  0.69482  0.87619  0.40681  1.0000
  H   H190      1.0  0.82323  0.63582  0.40766  1.0000
  H   H191      1.0  0.70063  0.97972  0.35004  1.0000
  H   H192      1.0  0.81747  0.53232  0.34981  1.0000
  C   C283      1.0  0.66142  0.74897  0.34006  1.0000
  C   C284      1.0  0.64408  0.74498  0.42170  1.0000
  C   C285      1.0  0.61403  0.74571  0.42466  1.0000
  C   C286      1.0  0.60016  0.74980  0.34314  1.0000
  H   H193      1.0  0.65568  0.74586  0.48117  1.0000
  C   C287      1.0  0.59925  0.74541  0.51398  1.0000
  H   H194      1.0  0.61179  0.74098  0.56982  1.0000
  H   H195      1.0  0.57340  0.72582  0.51506  1.0000
  H   H196      1.0  0.60051  0.76907  0.52603  1.0000
  C   C288      1.0  0.76605  0.91545  0.34005  1.0000
  C   C289      1.0  0.77000  0.90211  0.42175  1.0000
  C   C290      1.0  0.76935  0.87138  0.42489  1.0000
  C   C291      1.0  0.76528  0.85333  0.34358  1.0000
  H   H197      1.0  0.76925  0.91294  0.48117  1.0000
  C   C292      1.0  0.76970  0.85695  0.51425  1.0000
  H   H198      1.0  0.77408  0.87393  0.57004  1.0000
  H   H199      1.0  0.78935  0.85077  0.51537  1.0000
  H   H200      1.0  0.74608  0.83452  0.52633  1.0000
  C   C293      1.0  0.59962  0.85362  0.34052  1.0000
  C   C294      1.0  0.61300  0.87109  0.42197  1.0000
  C   C295      1.0  0.64374  0.90118  0.42488  1.0000
  C   C296      1.0  0.66168  0.91497  0.34338  1.0000
  H   H201      1.0  0.60224  0.85951  0.48144  1.0000
  C   C297      1.0  0.65823  0.91605  0.51411  1.0000
  H   H202      1.0  0.64128  0.90352  0.56999  1.0000
  H   H203      1.0  0.66442  0.94188  0.51500  1.0000
  H   H204      1.0  0.68066  0.91485  0.52619  1.0000
  C   C298      1.0  0.85659  0.76302  0.34000  1.0000
  C   C299      1.0  0.87403  0.76700  0.42151  1.0000
  C   C300      1.0  0.90409  0.76629  0.42449  1.0000
  C   C301      1.0  0.91797  0.76225  0.34295  1.0000
  H   H205      1.0  0.86244  0.76610  0.48103  1.0000
  C   C302      1.0  0.91887  0.76658  0.51380  1.0000
  H   H206      1.0  0.90632  0.77097  0.56966  1.0000
  H   H207      1.0  0.94472  0.78619  0.51490  1.0000
  H   H208      1.0  0.91763  0.74293  0.52577  1.0000
  C   C303      1.0  0.75208  0.59662  0.34074  1.0000
  C   C304      1.0  0.74801  0.61002  0.42216  1.0000
  C   C305      1.0  0.74861  0.64073  0.42511  1.0000
  C   C306      1.0  0.75274  0.65865  0.34359  1.0000
  H   H209      1.0  0.74873  0.59923  0.48168  1.0000
  C   C307      1.0  0.74821  0.65521  0.51432  1.0000
  H   H210      1.0  0.74381  0.63827  0.57021  1.0000
  H   H211      1.0  0.72857  0.66139  0.51522  1.0000
  H   H212      1.0  0.77183  0.67765  0.52641  1.0000
  C   C308      1.0  0.91848  0.65842  0.33982  1.0000
  C   C309      1.0  0.90516  0.64112  0.42159  1.0000
  C   C310      1.0  0.87442  0.61104  0.42491  1.0000
  C   C311      1.0  0.85643  0.59706  0.34359  1.0000
  H   H213      1.0  0.91598  0.65278  0.48093  1.0000
  C   C312      1.0  0.86001  0.59633  0.51434  1.0000
  H   H214      1.0  0.87700  0.60897  0.57006  1.0000
  H   H215      1.0  0.85382  0.57051  0.51560  1.0000
  H   H216      1.0  0.83759  0.59754  0.52637  1.0000
