data_image0
_chemical_formula_structural       C4HCH3C4HCH3C4HCH3C4HCH3C4HCH3C4HCH3N24C4HCH3C4HCH3C4HCH3C4HCH3C4HCH3C4HCH3N24C4HCH3C4HCH3C4HCH3C4HCH3C4HCH3C4HCH3N12C4HCH3C4HCH3C4HCH3C4HCH3C4HCH3C4HCH3CNCNCNCNCNCNCNCNCNCNCNCNCNCNCNCNCNCNCNCNCNCNCNCNCNCNCNCNCNCNCNCNCNCNCNCNCNCNCNCNCNCNCNCNCNCNCNCNCNCNCNCNCNCNCNCNCNCNCNCNCNCNCNCNCNCNCNCNCNCNCNCNCNCNCNCNCNCNCNCNCNCNCNCNCNCNCNCNCNCNCNCNCNCNCNCNCNCNCNCNCNCNCNCNCNCNCNCN13C4HCH3C4HCH3C4HCH3C4HCH3C4HCH3C4HCH3C4HCH3C4HCH3C4HCH3C4HCH3C4HCH3C4HCH3N12C4HCH3C4HCH3C4HCH3C4HCH3C4HCH3C4HCH3C4HCH3C4HCH3C4HCH3C4HCH3C4HCH3C4HCH3N12C4HCH3C4HCH3C4HCH3C4HCH3C4HCH3C4HCH3N12
_chemical_formula_sum              "C378 H216 N216"
_cell_length_a       66.583
_cell_length_b       66.583
_cell_length_c       14.896
_cell_angle_alpha    90
_cell_angle_beta     90
_cell_angle_gamma    120

_space_group_name_H-M_alt    "P 1"
_space_group_IT_number       1

loop_
  _space_group_symop_operation_xyz
  'x, y, z'

loop_
  _atom_site_type_symbol
  _atom_site_label
  _atom_site_symmetry_multiplicity
  _atom_site_fract_x
  _atom_site_fract_y
  _atom_site_fract_z
  _atom_site_occupancy
  C   C1        1.0  0.12001  0.31729  0.36955  1.0000
  C   C2        1.0  0.10942  0.32516  0.30717  1.0000
  C   C3        1.0  0.11213  0.34776  0.31270  1.0000
  C   C4        1.0  0.12763  0.36329  0.37883  1.0000
  H   H1        1.0  0.10139  0.31501  0.25230  1.0000
  C   C5        1.0  0.10191  0.35549  0.24135  1.0000
  H   H2        1.0  0.09093  0.34153  0.19515  1.0000
  H   H3        1.0  0.11567  0.36941  0.20206  1.0000
  H   H4        1.0  0.09119  0.36177  0.27188  1.0000
  C   C6        1.0  0.69174  0.80972  0.27692  1.0000
  C   C7        1.0  0.67709  0.80256  0.20077  1.0000
  C   C8        1.0  0.65540  0.78192  0.20133  1.0000
  C   C9        1.0  0.64864  0.76788  0.27992  1.0000
  H   H5        1.0  0.68129  0.81368  0.14742  1.0000
  C   C10       1.0  0.64043  0.77544  0.11986  1.0000
  H   H6        1.0  0.64973  0.78591  0.06153  1.0000
  H   H7        1.0  0.62555  0.77775  0.13153  1.0000
  H   H8        1.0  0.63424  0.75733  0.10283  1.0000
  C   C11       1.0  0.20473  0.88935  0.37074  1.0000
  C   C12       1.0  0.22290  0.89950  0.30716  1.0000
  C   C13       1.0  0.24267  0.89659  0.31229  1.0000
  C   C14       1.0  0.24283  0.88135  0.37934  1.0000
  H   H9        1.0  0.22059  0.90722  0.25171  1.0000
  C   C15       1.0  0.26034  0.90629  0.23971  1.0000
  H   H10       1.0  0.25727  0.91707  0.19278  1.0000
  H   H11       1.0  0.26022  0.89225  0.20146  1.0000
  H   H12       1.0  0.27749  0.91709  0.26899  1.0000
  C   C16       1.0  0.89018  0.68927  0.36693  1.0000
  C   C17       1.0  0.90042  0.68149  0.30261  1.0000
  C   C18       1.0  0.89768  0.65886  0.30700  1.0000
  C   C19       1.0  0.88249  0.64331  0.37380  1.0000
  H   H13       1.0  0.90821  0.69169  0.24760  1.0000
  C   C20       1.0  0.90742  0.65109  0.23392  1.0000
  H   H14       1.0  0.91807  0.66502  0.18706  1.0000
  H   H15       1.0  0.89340  0.63714  0.19568  1.0000
  H   H16       1.0  0.91836  0.64485  0.26268  1.0000
  C   C21       1.0  0.31928  0.19836  0.32704  1.0000
  C   C22       1.0  0.32833  0.21600  0.26088  1.0000
  C   C23       1.0  0.35043  0.23638  0.27105  1.0000
  C   C24       1.0  0.36424  0.23756  0.34609  1.0000
  H   H17       1.0  0.31946  0.21312  0.20174  1.0000
  C   C25       1.0  0.36015  0.25341  0.19637  1.0000
  H   H18       1.0  0.34776  0.24935  0.14174  1.0000
  H   H19       1.0  0.37547  0.25368  0.16872  1.0000
  H   H20       1.0  0.36503  0.27067  0.22126  1.0000
  C   C26       1.0  0.80604  0.11844  0.37061  1.0000
  C   C27       1.0  0.78757  0.10766  0.30857  1.0000
  C   C28       1.0  0.76774  0.11047  0.31412  1.0000
  C   C29       1.0  0.76786  0.12621  0.37952  1.0000
  H   H21       1.0  0.78957  0.09940  0.25418  1.0000
  C   C30       1.0  0.74963  0.10003  0.24340  1.0000
  H   H22       1.0  0.75250  0.08890  0.19760  1.0000
  H   H23       1.0  0.74939  0.11367  0.20356  1.0000
  H   H24       1.0  0.73269  0.08940  0.27456  1.0000
  N   N1        1.0  0.36622  0.15071  0.25214  1.0000
  N   N2        1.0  0.34717  0.15123  0.24670  1.0000
  N   N3        1.0  0.79749  0.63641  0.28373  1.0000
  N   N4        1.0  0.81656  0.65598  0.27902  1.0000
  N   N5        1.0  0.84576  0.21088  0.28353  1.0000
  N   N6        1.0  0.84617  0.19175  0.27934  1.0000
  N   N7        1.0  0.64711  0.86127  0.25430  1.0000
  N   N8        1.0  0.66615  0.86073  0.25039  1.0000
  N   N9        1.0  0.21270  0.37041  0.28809  1.0000
  N   N10       1.0  0.19363  0.35085  0.28290  1.0000
  N   N11       1.0  0.16528  0.79632  0.29117  1.0000
  N   N12       1.0  0.16484  0.81541  0.28599  1.0000
  N   N13       1.0  0.20970  0.44450  0.34711  1.0000
  N   N14       1.0  0.23076  0.44821  0.33508  1.0000
  N   N15       1.0  0.59108  0.78632  0.25112  1.0000
  N   N16       1.0  0.58917  0.80461  0.24754  1.0000
  N   N17       1.0  0.24202  0.79883  0.35118  1.0000
  N   N18       1.0  0.22476  0.77768  0.34000  1.0000
  N   N19       1.0  0.80088  0.56245  0.33968  1.0000
  N   N20       1.0  0.77989  0.55890  0.32744  1.0000
  N   N21       1.0  0.42463  0.22584  0.29022  1.0000
  N   N22       1.0  0.42612  0.20749  0.27608  1.0000
  N   N23       1.0  0.76873  0.20787  0.34187  1.0000
  N   N24       1.0  0.78614  0.22880  0.32820  1.0000
  C   C31       1.0  0.12933  0.43634  0.31465  1.0000
  C   C32       1.0  0.10890  0.42684  0.26272  1.0000
  C   C33       1.0  0.09644  0.43881  0.25289  1.0000
  C   C34       1.0  0.10479  0.46037  0.29869  1.0000
  H   H25       1.0  0.10286  0.41093  0.23338  1.0000
  C   C35       1.0  0.07568  0.42883  0.19350  1.0000
  H   H26       1.0  0.07414  0.41447  0.15283  1.0000
  H   H27       1.0  0.07679  0.44212  0.14752  1.0000
  H   H28       1.0  0.05992  0.42226  0.23320  1.0000
  C   C36       1.0  0.57816  0.69498  0.35265  1.0000
  C   C37       1.0  0.58550  0.68186  0.30218  1.0000
  C   C38       1.0  0.57209  0.65741  0.29889  1.0000
  C   C39       1.0  0.55121  0.64628  0.35006  1.0000
  H   H29       1.0  0.60034  0.69019  0.26465  1.0000
  C   C40       1.0  0.57949  0.64461  0.23754  1.0000
  H   H30       1.0  0.59337  0.65615  0.19206  1.0000
  H   H31       1.0  0.56486  0.63250  0.19621  1.0000
  H   H32       1.0  0.58584  0.63501  0.27593  1.0000
  C   C41       1.0  0.31396  0.87920  0.31571  1.0000
  C   C42       1.0  0.32497  0.89965  0.26392  1.0000
  C   C43       1.0  0.34941  0.91208  0.25439  1.0000
  C   C44       1.0  0.36255  0.90364  0.30021  1.0000
  H   H33       1.0  0.31516  0.90577  0.23465  1.0000
  C   C45       1.0  0.36026  0.93293  0.19546  1.0000
  H   H34       1.0  0.34749  0.93448  0.15451  1.0000
  H   H35       1.0  0.37254  0.93192  0.14976  1.0000
  H   H36       1.0  0.36934  0.94863  0.23561  1.0000
  C   C46       1.0  0.88140  0.57052  0.31085  1.0000
  C   C47       1.0  0.90211  0.58021  0.26058  1.0000
  C   C48       1.0  0.91474  0.56838  0.25209  1.0000
  C   C49       1.0  0.90626  0.54675  0.29750  1.0000
  H   H37       1.0  0.90821  0.59615  0.23146  1.0000
  C   C50       1.0  0.93582  0.57860  0.19442  1.0000
  H   H38       1.0  0.93744  0.59295  0.15345  1.0000
  H   H39       1.0  0.93510  0.56543  0.14875  1.0000
  H   H40       1.0  0.95137  0.58525  0.23547  1.0000
  C   C51       1.0  0.43645  0.31270  0.32768  1.0000
  C   C52       1.0  0.42734  0.32425  0.27735  1.0000
  C   C53       1.0  0.43953  0.34873  0.27089  1.0000
  C   C54       1.0  0.46089  0.36129  0.31845  1.0000
  H   H41       1.0  0.41176  0.31477  0.24523  1.0000
  C   C55       1.0  0.43012  0.36017  0.21208  1.0000
  H   H42       1.0  0.41585  0.34778  0.16995  1.0000
  H   H43       1.0  0.44373  0.37251  0.16752  1.0000
  H   H44       1.0  0.42359  0.36931  0.25238  1.0000
  C   C56       1.0  0.69620  0.12745  0.31648  1.0000
  C   C57       1.0  0.68524  0.10685  0.26556  1.0000
  C   C58       1.0  0.66080  0.09428  0.25627  1.0000
  C   C59       1.0  0.64759  0.10270  0.30163  1.0000
  H   H45       1.0  0.69510  0.10077  0.23647  1.0000
  C   C60       1.0  0.65002  0.07335  0.19782  1.0000
  H   H46       1.0  0.66282  0.07180  0.15706  1.0000
  H   H47       1.0  0.63769  0.07421  0.15193  1.0000
  H   H48       1.0  0.64100  0.05770  0.23829  1.0000
  N   N25       1.0  0.46833  0.12189  0.37687  1.0000
  N   N26       1.0  0.45846  0.13462  0.37144  1.0000
  N   N27       1.0  0.66059  0.53814  0.37573  1.0000
  N   N28       1.0  0.68310  0.54714  0.36983  1.0000
  N   N29       1.0  0.88524  0.34819  0.36930  1.0000
  N   N30       1.0  0.87163  0.32566  0.36512  1.0000
  N   N31       1.0  0.54165  0.88443  0.37565  1.0000
  N   N32       1.0  0.55167  0.87182  0.37009  1.0000
  N   N33       1.0  0.34980  0.46875  0.37856  1.0000
  N   N34       1.0  0.32726  0.45968  0.37332  1.0000
  N   N35       1.0  0.12572  0.65889  0.37209  1.0000
  N   N36       1.0  0.13934  0.68143  0.36901  1.0000
  N   N37       1.0  0.10503  0.23448  0.34203  1.0000
  N   N38       1.0  0.09390  0.21177  0.34356  1.0000
  N   N39       1.0  0.77489  0.87351  0.34909  1.0000
  N   N40       1.0  0.79761  0.88464  0.35067  1.0000
  N   N41       1.0  0.13647  0.90370  0.34215  1.0000
  N   N42       1.0  0.12474  0.91468  0.34360  1.0000
  N   N43       1.0  0.90521  0.77213  0.34053  1.0000
  N   N44       1.0  0.91633  0.79483  0.34242  1.0000
  N   N45       1.0  0.23532  0.13267  0.33619  1.0000
  N   N46       1.0  0.21263  0.12161  0.34048  1.0000
  N   N47       1.0  0.87387  0.10324  0.34374  1.0000
  N   N48       1.0  0.88551  0.09216  0.34560  1.0000
  C   C61       1.0  0.09638  0.57122  0.36215  1.0000
  C   C62       1.0  0.10248  0.56551  0.27908  1.0000
  C   C63       1.0  0.10232  0.54420  0.26871  1.0000
  C   C64       1.0  0.09609  0.52914  0.34415  1.0000
  H   H49       1.0  0.10473  0.57569  0.22422  1.0000
  C   C65       1.0  0.10624  0.53703  0.17896  1.0000
  H   H50       1.0  0.11066  0.55042  0.12813  1.0000
  H   H51       1.0  0.09061  0.52140  0.15684  1.0000
  H   H52       1.0  0.12049  0.53341  0.18280  1.0000
  C   C66       1.0  0.43746  0.52759  0.37864  1.0000
  C   C67       1.0  0.44588  0.53956  0.29660  1.0000
  C   C68       1.0  0.46734  0.56074  0.29331  1.0000
  C   C69       1.0  0.47994  0.56953  0.37467  1.0000
  H   H53       1.0  0.43742  0.53179  0.23825  1.0000
  C   C70       1.0  0.47722  0.57203  0.20565  1.0000
  H   H54       1.0  0.46545  0.56321  0.14975  1.0000
  H   H55       1.0  0.49337  0.57204  0.19277  1.0000
  H   H56       1.0  0.48081  0.58991  0.20701  1.0000
  C   C71       1.0  0.48193  0.91243  0.36697  1.0000
  C   C72       1.0  0.47080  0.90706  0.28251  1.0000
  C   C73       1.0  0.44956  0.90694  0.27087  1.0000
  C   C74       1.0  0.43986  0.91210  0.34646  1.0000
  H   H57       1.0  0.47926  0.90548  0.22791  1.0000
  C   C75       1.0  0.43914  0.90375  0.18008  1.0000
  H   H58       1.0  0.44865  0.90000  0.12933  1.0000
  H   H59       1.0  0.43905  0.91945  0.15975  1.0000
  H   H60       1.0  0.42134  0.88930  0.18124  1.0000
  C   C76       1.0  0.91465  0.43590  0.36308  1.0000
  C   C77       1.0  0.90830  0.44151  0.28027  1.0000
  C   C78       1.0  0.90839  0.46277  0.26985  1.0000
  C   C79       1.0  0.91479  0.47793  0.34501  1.0000
  H   H61       1.0  0.90586  0.43121  0.22559  1.0000
  C   C80       1.0  0.90422  0.46981  0.18027  1.0000
  H   H62       1.0  0.89971  0.45637  0.12961  1.0000
  H   H63       1.0  0.91977  0.48544  0.15757  1.0000
  H   H64       1.0  0.88995  0.47339  0.18465  1.0000
  C   C81       1.0  0.57306  0.47948  0.37388  1.0000
  C   C82       1.0  0.56642  0.46804  0.29018  1.0000
  C   C83       1.0  0.54496  0.44702  0.28117  1.0000
  C   C84       1.0  0.53067  0.43795  0.35855  1.0000
  H   H65       1.0  0.57610  0.47612  0.23441  1.0000
  C   C85       1.0  0.53682  0.43626  0.19137  1.0000
  H   H66       1.0  0.54973  0.44532  0.13900  1.0000
  H   H67       1.0  0.52107  0.43649  0.17291  1.0000
  H   H68       1.0  0.53306  0.41833  0.19307  1.0000
  C   C86       1.0  0.52812  0.09399  0.36682  1.0000
  C   C87       1.0  0.53952  0.09951  0.28285  1.0000
  C   C88       1.0  0.56073  0.09952  0.27174  1.0000
  C   C89       1.0  0.57008  0.09398  0.34741  1.0000
  H   H69       1.0  0.53125  0.10128  0.22804  1.0000
  C   C90       1.0  0.57138  0.10294  0.18132  1.0000
  H   H70       1.0  0.56208  0.10692  0.13046  1.0000
  H   H71       1.0  0.57143  0.08724  0.16047  1.0000
  H   H72       1.0  0.58922  0.11731  0.18341  1.0000
  N   N49       1.0  0.01757  0.46268  0.34076  1.0000
  N   N50       1.0  0.99499  0.45170  0.34668  1.0000
  N   N51       1.0  0.54538  0.55541  0.37682  1.0000
  N   N52       1.0  0.55644  0.54382  0.37597  1.0000
  N   N53       1.0  0.45211  0.99084  0.34150  1.0000
  N   N54       1.0  0.46369  0.01340  0.34852  1.0000
  N   N55       1.0  0.99337  0.54440  0.34052  1.0000
  N   N56       1.0  0.01596  0.55538  0.34626  1.0000
  N   N57       1.0  0.46473  0.45142  0.35671  1.0000
  N   N58       1.0  0.45374  0.46305  0.36063  1.0000
  N   N59       1.0  0.55810  0.01536  0.34303  1.0000
  N   N60       1.0  0.54654  0.99279  0.34997  1.0000
  C   C91       1.0  0.12743  0.10084  0.33273  1.0000
  C   C92       1.0  0.10473  0.09000  0.29729  1.0000
  C   C93       1.0  0.09155  0.10132  0.29476  1.0000
  C   C94       1.0  0.10174  0.12437  0.32949  1.0000
  H   H73       1.0  0.09765  0.07358  0.27220  1.0000
  C   C95       1.0  0.06793  0.08845  0.25474  1.0000
  H   H74       1.0  0.06421  0.07215  0.22313  1.0000
  H   H75       1.0  0.06601  0.09899  0.20307  1.0000
  H   H76       1.0  0.05502  0.08423  0.30727  1.0000
  C   C96       1.0  0.90752  0.02867  0.33507  1.0000
  C   C97       1.0  0.91834  0.01684  0.29916  1.0000
  C   C98       1.0  0.90734  0.99235  0.29896  1.0000
  C   C99       1.0  0.88462  0.97943  0.33655  1.0000
  H   H77       1.0  0.93450  0.02621  0.27181  1.0000
  C   C100      1.0  0.92019  0.98164  0.25830  1.0000
  H   H78       1.0  0.93626  0.99421  0.22521  1.0000
  H   H79       1.0  0.90945  0.96892  0.20771  1.0000
  H   H80       1.0  0.92484  0.97327  0.31072  1.0000
  C   C101      1.0  0.97998  0.87994  0.32966  1.0000
  C   C102      1.0  0.99176  0.90257  0.29360  1.0000
  C   C103      1.0  0.01624  0.91590  0.29178  1.0000
  C   C104      1.0  0.02916  0.90592  0.32775  1.0000
  H   H81       1.0  0.98237  0.90948  0.26749  1.0000
  C   C105      1.0  0.02693  0.93947  0.25129  1.0000
  H   H82       1.0  0.01433  0.94296  0.21837  1.0000
  H   H83       1.0  0.03965  0.94150  0.20063  1.0000
  H   H84       1.0  0.03527  0.95244  0.30385  1.0000
  C   C106      1.0  0.88286  0.90576  0.33629  1.0000
  C   C107      1.0  0.90547  0.91660  0.29994  1.0000
  C   C108      1.0  0.91863  0.90527  0.29657  1.0000
  C   C109      1.0  0.90852  0.88223  0.33129  1.0000
  H   H85       1.0  0.91249  0.93302  0.27494  1.0000
  C   C110      1.0  0.94216  0.91811  0.25571  1.0000
  H   H86       1.0  0.94581  0.93442  0.22428  1.0000
  H   H87       1.0  0.94395  0.90756  0.20374  1.0000
  H   H88       1.0  0.95519  0.92234  0.30771  1.0000
  C   C111      1.0  0.10246  0.97785  0.33194  1.0000
  C   C112      1.0  0.09147  0.98962  0.29689  1.0000
  C   C113      1.0  0.10247  0.01410  0.29625  1.0000
  C   C114      1.0  0.12534  0.02704  0.33235  1.0000
  H   H89       1.0  0.07521  0.98022  0.27047  1.0000
  C   C115      1.0  0.08950  0.02479  0.25653  1.0000
  H   H90       1.0  0.07327  0.01218  0.22448  1.0000
  H   H91       1.0  0.10004  0.03740  0.20531  1.0000
  H   H92       1.0  0.08511  0.03329  0.30931  1.0000
  C   C116      1.0  0.03019  0.12657  0.33038  1.0000
  C   C117      1.0  0.01834  0.10386  0.29493  1.0000
  C   C118      1.0  0.99384  0.09054  0.29358  1.0000
  C   C119      1.0  0.98097  0.10058  0.32938  1.0000
  H   H93       1.0  0.02769  0.09690  0.26890  1.0000
  C   C120      1.0  0.98309  0.06691  0.25357  1.0000
  H   H94       1.0  0.99565  0.06332  0.22089  1.0000
  H   H95       1.0  0.97039  0.06486  0.20279  1.0000
  H   H96       1.0  0.97469  0.05400  0.30630  1.0000
  C   C121      1.0  0.17261  0.42374  0.40893  1.0000
  N   N61       1.0  0.16282  0.43511  0.36880  1.0000
  C   C122      1.0  0.14045  0.42372  0.33950  1.0000
  N   N62       1.0  0.12846  0.40005  0.34392  1.0000
  C   C123      1.0  0.13756  0.38773  0.38190  1.0000
  N   N63       1.0  0.15958  0.40029  0.41427  1.0000
  C   C124      1.0  0.58891  0.75380  0.31625  1.0000
  N   N64       1.0  0.57846  0.73131  0.34403  1.0000
  C   C125      1.0  0.59049  0.71961  0.34805  1.0000
  N   N65       1.0  0.61377  0.73123  0.32859  1.0000
  C   C126      1.0  0.62490  0.75370  0.30124  1.0000
  N   N66       1.0  0.61177  0.76385  0.29496  1.0000
  C   C127      1.0  0.25800  0.83621  0.41035  1.0000
  N   N67       1.0  0.27916  0.84585  0.37026  1.0000
  C   C128      1.0  0.29021  0.86817  0.34033  1.0000
  N   N68       1.0  0.27861  0.88025  0.34436  1.0000
  C   C129      1.0  0.25723  0.87130  0.38253  1.0000
  N   N69       1.0  0.24770  0.84935  0.41557  1.0000
  C   C130      1.0  0.83770  0.58278  0.40302  1.0000
  N   N70       1.0  0.84765  0.57150  0.36346  1.0000
  C   C131      1.0  0.87006  0.58301  0.33456  1.0000
  N   N71       1.0  0.88190  0.60668  0.33889  1.0000
  C   C132      1.0  0.87260  0.61887  0.37640  1.0000
  N   N72       1.0  0.85058  0.60624  0.40857  1.0000
  C   C133      1.0  0.42459  0.25400  0.37955  1.0000
  N   N73       1.0  0.43595  0.27706  0.36115  1.0000
  C   C134      1.0  0.42415  0.28843  0.34226  1.0000
  N   N74       1.0  0.40046  0.27588  0.33639  1.0000
  C   C135      1.0  0.38832  0.25287  0.35668  1.0000
  N   N75       1.0  0.40105  0.24266  0.37528  1.0000
  C   C136      1.0  0.75235  0.17121  0.40729  1.0000
  N   N76       1.0  0.73106  0.16124  0.36821  1.0000
  C   C137      1.0  0.72002  0.13873  0.34048  1.0000
  N   N77       1.0  0.73177  0.12681  0.34531  1.0000
  C   C138      1.0  0.75333  0.13612  0.38228  1.0000
  N   N78       1.0  0.76287  0.15828  0.41318  1.0000
  C   C139      1.0  0.42957  0.17621  0.32816  1.0000
  N   N79       1.0  0.43844  0.16365  0.36554  1.0000
  C   C140      1.0  0.42533  0.13998  0.37240  1.0000
  N   N80       1.0  0.40227  0.12906  0.34879  1.0000
  C   C141      1.0  0.39249  0.14086  0.31181  1.0000
  N   N81       1.0  0.40720  0.16383  0.30244  1.0000
  C   C142      1.0  0.75435  0.57274  0.35673  1.0000
  N   N82       1.0  0.73190  0.56519  0.37890  1.0000
  C   C143      1.0  0.72243  0.57910  0.36803  1.0000
  N   N83       1.0  0.73660  0.60177  0.34315  1.0000
  C   C144      1.0  0.75943  0.61039  0.32333  1.0000
  N   N84       1.0  0.76725  0.59513  0.33131  1.0000
  C   C145      1.0  0.82566  0.25451  0.35461  1.0000
  N   N85       1.0  0.84076  0.27693  0.37660  1.0000
  C   C146      1.0  0.86411  0.28630  0.36518  1.0000
  N   N86       1.0  0.87245  0.27199  0.34029  1.0000
  C   C147      1.0  0.85810  0.24914  0.32102  1.0000
  N   N87       1.0  0.83507  0.24149  0.32959  1.0000
  C   C148      1.0  0.58252  0.83249  0.31428  1.0000
  N   N88       1.0  0.57244  0.84345  0.35586  1.0000
  C   C149      1.0  0.58497  0.86676  0.37504  1.0000
  N   N89       1.0  0.60850  0.87870  0.35916  1.0000
  C   C150      1.0  0.61948  0.86859  0.31821  1.0000
  N   N90       1.0  0.60534  0.84611  0.29741  1.0000
  C   C151      1.0  0.25594  0.43387  0.36285  1.0000
  N   N91       1.0  0.27848  0.44145  0.38361  1.0000
  C   C152      1.0  0.28797  0.42760  0.37121  1.0000
  N   N92       1.0  0.27377  0.40496  0.34583  1.0000
  C   C153      1.0  0.25087  0.39635  0.32694  1.0000
  N   N93       1.0  0.24304  0.41154  0.33670  1.0000
  C   C154      1.0  0.18515  0.75285  0.36641  1.0000
  N   N94       1.0  0.17010  0.73020  0.38519  1.0000
  C   C155      1.0  0.14682  0.72079  0.37129  1.0000
  N   N95       1.0  0.13850  0.73510  0.34611  1.0000
  C   C156      1.0  0.15286  0.75807  0.32896  1.0000
  N   N96       1.0  0.17583  0.76585  0.34024  1.0000
  C   C157      1.0  0.13025  0.30448  0.33878  1.0000
  N   N97       1.0  0.12306  0.28167  0.35277  1.0000
  C   C158      1.0  0.13763  0.27280  0.34119  1.0000
  N   N98       1.0  0.16052  0.28813  0.32162  1.0000
  C   C159      1.0  0.16865  0.31120  0.30806  1.0000
  N   N99       1.0  0.15279  0.31802  0.31776  1.0000
  C   C160      1.0  0.70580  0.83380  0.29288  1.0000
  N   N100      1.0  0.72728  0.84603  0.33084  1.0000
  C   C161      1.0  0.73715  0.86927  0.35079  1.0000
  N   N101      1.0  0.72380  0.87944  0.33917  1.0000
  C   C162      1.0  0.70210  0.86792  0.30367  1.0000
  N   N102      1.0  0.69436  0.84556  0.28093  1.0000
  C   C163      1.0  0.18154  0.87873  0.34106  1.0000
  N   N103      1.0  0.16590  0.88596  0.35370  1.0000
  C   C164      1.0  0.14249  0.87129  0.34172  1.0000
  N   N104      1.0  0.13504  0.84840  0.32246  1.0000
  C   C165      1.0  0.15007  0.84035  0.30967  1.0000
  N   N105      1.0  0.17272  0.85624  0.31989  1.0000
  C   C166      1.0  0.87988  0.70210  0.33696  1.0000
  N   N106      1.0  0.88719  0.72493  0.35114  1.0000
  C   C167      1.0  0.87263  0.73383  0.34008  1.0000
  N   N107      1.0  0.84972  0.71856  0.32050  1.0000
  C   C168      1.0  0.84156  0.69550  0.30644  1.0000
  N   N108      1.0  0.85738  0.68861  0.31568  1.0000
  C   C169      1.0  0.30522  0.17490  0.30289  1.0000
  N   N109      1.0  0.28297  0.16076  0.33049  1.0000
  C   C170      1.0  0.27306  0.13707  0.33307  1.0000
  N   N110      1.0  0.28710  0.12791  0.31574  1.0000
  C   C171      1.0  0.30963  0.14127  0.29025  1.0000
  N   N111      1.0  0.31766  0.16438  0.28572  1.0000
  C   C172      1.0  0.82905  0.12849  0.33900  1.0000
  N   N112      1.0  0.84465  0.12131  0.35384  1.0000
  C   C173      1.0  0.86808  0.13580  0.34170  1.0000
  N   N113      1.0  0.87565  0.15863  0.32083  1.0000
  C   C174      1.0  0.86073  0.16674  0.30634  1.0000
  N   N114      1.0  0.83805  0.15095  0.31667  1.0000
  C   C175      1.0  0.08821  0.50511  0.33811  1.0000
  N   N115      1.0  0.10155  0.49543  0.31793  1.0000
  C   C176      1.0  0.09187  0.47187  0.31166  1.0000
  N   N116      1.0  0.06885  0.45851  0.32928  1.0000
  C   C177      1.0  0.05509  0.46743  0.35005  1.0000
  N   N117      1.0  0.06519  0.49083  0.35308  1.0000
  C   C178      1.0  0.50409  0.58520  0.37807  1.0000
  N   N118      1.0  0.51464  0.60859  0.36334  1.0000
  C   C179      1.0  0.53830  0.62192  0.36415  1.0000
  N   N119      1.0  0.55071  0.61125  0.38116  1.0000
  C   C180      1.0  0.54099  0.58824  0.39628  1.0000
  N   N120      1.0  0.51754  0.57547  0.39284  1.0000
  C   C181      1.0  0.42382  0.92006  0.34005  1.0000
  N   N121      1.0  0.40079  0.90675  0.31986  1.0000
  C   C182      1.0  0.38697  0.91649  0.31302  1.0000
  N   N122      1.0  0.39671  0.93952  0.33042  1.0000
  C   C183      1.0  0.41941  0.95325  0.35112  1.0000
  N   N123      1.0  0.43265  0.94310  0.35455  1.0000
  C   C184      1.0  0.92272  0.50198  0.33890  1.0000
  N   N124      1.0  0.90945  0.51169  0.31801  1.0000
  C   C185      1.0  0.91916  0.53525  0.31140  1.0000
  N   N125      1.0  0.94217  0.54859  0.32936  1.0000
  C   C186      1.0  0.95587  0.53964  0.35074  1.0000
  N   N126      1.0  0.94573  0.51624  0.35403  1.0000
  C   C187      1.0  0.50654  0.42229  0.35525  1.0000
  N   N127      1.0  0.49644  0.39916  0.33642  1.0000
  C   C188      1.0  0.47284  0.38564  0.33202  1.0000
  N   N128      1.0  0.45990  0.39575  0.34963  1.0000
  C   C189      1.0  0.46926  0.41854  0.36913  1.0000
  N   N129      1.0  0.49271  0.43154  0.37038  1.0000
  C   C190      1.0  0.58622  0.08611  0.34114  1.0000
  N   N130      1.0  0.60926  0.09946  0.32107  1.0000
  C   C191      1.0  0.62315  0.08980  0.31460  1.0000
  N   N131      1.0  0.61346  0.06676  0.33212  1.0000
  C   C192      1.0  0.59076  0.05298  0.35273  1.0000
  N   N132      1.0  0.57746  0.06309  0.35588  1.0000
  C   C193      1.0  0.50399  0.08492  0.37389  1.0000
  N   N133      1.0  0.49325  0.09766  0.38574  1.0000
  C   C194      1.0  0.46971  0.08711  0.39778  1.0000
  N   N134      1.0  0.45763  0.06357  0.39534  1.0000
  C   C195      1.0  0.46757  0.05029  0.38380  1.0000
  N   N135      1.0  0.49089  0.06142  0.37327  1.0000
  C   C196      1.0  0.58818  0.50361  0.38010  1.0000
  N   N136      1.0  0.61185  0.51453  0.38327  1.0000
  C   C197      1.0  0.62500  0.53809  0.39420  1.0000
  N   N137      1.0  0.61335  0.54993  0.40069  1.0000
  C   C198      1.0  0.58995  0.53983  0.39768  1.0000
  N   N138      1.0  0.57769  0.51655  0.38723  1.0000
  C   C199      1.0  0.92351  0.42063  0.36832  1.0000
  N   N139      1.0  0.91064  0.39700  0.37475  1.0000
  C   C200      1.0  0.92100  0.38375  0.38383  1.0000
  N   N140      1.0  0.94455  0.39519  0.38445  1.0000
  C   C201      1.0  0.95797  0.41853  0.37794  1.0000
  N   N141      1.0  0.94699  0.43091  0.36986  1.0000
  C   C202      1.0  0.50602  0.92141  0.37491  1.0000
  N   N142      1.0  0.51652  0.90850  0.38799  1.0000
  C   C203      1.0  0.53998  0.91889  0.40115  1.0000
  N   N143      1.0  0.55233  0.94244  0.39832  1.0000
  C   C204      1.0  0.54257  0.95587  0.38541  1.0000
  N   N144      1.0  0.51928  0.94488  0.37402  1.0000
  C   C205      1.0  0.42233  0.50340  0.38083  1.0000
  N   N145      1.0  0.39868  0.49251  0.38649  1.0000
  C   C206      1.0  0.38550  0.46884  0.39397  1.0000
  N   N146      1.0  0.39711  0.45691  0.39489  1.0000
  C   C207      1.0  0.42048  0.46698  0.38975  1.0000
  N   N147      1.0  0.43278  0.49037  0.38265  1.0000
  C   C208      1.0  0.08747  0.58646  0.36774  1.0000
  N   N148      1.0  0.10032  0.61006  0.37512  1.0000
  C   C209      1.0  0.08994  0.62328  0.38482  1.0000
  N   N149      1.0  0.06639  0.61181  0.38530  1.0000
  C   C210      1.0  0.05299  0.58849  0.37802  1.0000
  N   N150      1.0  0.06399  0.57615  0.36922  1.0000
  C   C211      1.0  0.09043  0.13790  0.33519  1.0000
  N   N151      1.0  0.10227  0.16143  0.34423  1.0000
  C   C212      1.0  0.09151  0.17434  0.34900  1.0000
  N   N152      1.0  0.06779  0.16286  0.34472  1.0000
  C   C213      1.0  0.05497  0.13935  0.33617  1.0000
  N   N153      1.0  0.06696  0.12777  0.33188  1.0000
  C   C214      1.0  0.87137  0.95458  0.34448  1.0000
  N   N154      1.0  0.84800  0.94279  0.35818  1.0000
  C   C215      1.0  0.83530  0.91913  0.36463  1.0000
  N   N155      1.0  0.84679  0.90698  0.35697  1.0000
  C   C216      1.0  0.87017  0.91778  0.34417  1.0000
  N   N156      1.0  0.88158  0.94134  0.33847  1.0000
  C   C217      1.0  0.05399  0.91742  0.33433  1.0000
  N   N157      1.0  0.06584  0.90576  0.34340  1.0000
  C   C218      1.0  0.08951  0.91672  0.34891  1.0000
  N   N158      1.0  0.10156  0.94045  0.34536  1.0000
  C   C219      1.0  0.09067  0.95308  0.33686  1.0000
  N   N159      1.0  0.06711  0.94091  0.33182  1.0000
  C   C220      1.0  0.91981  0.86867  0.33626  1.0000
  N   N160      1.0  0.90795  0.84515  0.34521  1.0000
  C   C221      1.0  0.91872  0.83223  0.34934  1.0000
  N   N161      1.0  0.94242  0.84369  0.34451  1.0000
  C   C222      1.0  0.95522  0.86719  0.33601  1.0000
  N   N162      1.0  0.94326  0.87880  0.33236  1.0000
  C   C223      1.0  0.13865  0.05186  0.33927  1.0000
  N   N163      1.0  0.16211  0.06353  0.34973  1.0000
  C   C224      1.0  0.17499  0.08718  0.35494  1.0000
  N   N164      1.0  0.16359  0.09946  0.34926  1.0000
  C   C225      1.0  0.14011  0.08876  0.33952  1.0000
  N   N165      1.0  0.12851  0.06519  0.33490  1.0000
  C   C226      1.0  0.95613  0.08909  0.33624  1.0000
  N   N166      1.0  0.94432  0.10081  0.34519  1.0000
  C   C227      1.0  0.92066  0.08992  0.35100  1.0000
  N   N167      1.0  0.90856  0.06618  0.34791  1.0000
  C   C228      1.0  0.91938  0.05348  0.33953  1.0000
  N   N168      1.0  0.94294  0.06560  0.33413  1.0000
  N   N169      1.0  0.13673  0.35429  0.43723  1.0000
  N   N170      1.0  0.13321  0.33326  0.43273  1.0000
  N   N171      1.0  0.66416  0.77534  0.34914  1.0000
  N   N172      1.0  0.68425  0.79486  0.34803  1.0000
  N   N173      1.0  0.22497  0.87268  0.43882  1.0000
  N   N174      1.0  0.20756  0.87636  0.43469  1.0000
  N   N175      1.0  0.87369  0.65227  0.43374  1.0000
  N   N176      1.0  0.87725  0.67332  0.43039  1.0000
  N   N177      1.0  0.35457  0.21962  0.40513  1.0000
  N   N178      1.0  0.33392  0.20164  0.39624  1.0000
  N   N179      1.0  0.78609  0.13551  0.43733  1.0000
  N   N180      1.0  0.80359  0.13195  0.43315  1.0000
  C   C229      1.0  0.32687  0.13487  0.28273  1.0000
  C   C230      1.0  0.32684  0.11524  0.31974  1.0000
  C   C231      1.0  0.34805  0.11479  0.32746  1.0000
  C   C232      1.0  0.36892  0.13415  0.29474  1.0000
  H   H97       1.0  0.31212  0.10276  0.35050  1.0000
  C   C233      1.0  0.34859  0.09578  0.37724  1.0000
  H   H98       1.0  0.33130  0.08224  0.39762  1.0000
  H   H99       1.0  0.35915  0.10264  0.43765  1.0000
  H   H100      1.0  0.35604  0.08781  0.33479  1.0000
  C   C234      1.0  0.81854  0.67689  0.29638  1.0000
  C   C235      1.0  0.79743  0.67648  0.31360  1.0000
  C   C236      1.0  0.77613  0.65484  0.31974  1.0000
  C   C237      1.0  0.77663  0.63382  0.30691  1.0000
  H   H101      1.0  0.79794  0.69166  0.32966  1.0000
  C   C238      1.0  0.75453  0.65448  0.34712  1.0000
  H   H102      1.0  0.75699  0.67188  0.35441  1.0000
  H   H103      1.0  0.74853  0.64560  0.41147  1.0000
  H   H104      1.0  0.74111  0.64535  0.29662  1.0000
  C   C239      1.0  0.86513  0.18975  0.29583  1.0000
  C   C240      1.0  0.88590  0.21087  0.31196  1.0000
  C   C241      1.0  0.88567  0.23224  0.31737  1.0000
  C   C242      1.0  0.86416  0.23180  0.30520  1.0000
  H   H105      1.0  0.90064  0.21039  0.32716  1.0000
  C   C243      1.0  0.90707  0.25390  0.34303  1.0000
  H   H106      1.0  0.92200  0.25140  0.34982  1.0000
  H   H107      1.0  0.90448  0.26018  0.40724  1.0000
  H   H108      1.0  0.91121  0.26713  0.29182  1.0000
  C   C244      1.0  0.68538  0.87505  0.29791  1.0000
  C   C245      1.0  0.68458  0.89307  0.34553  1.0000
  C   C246      1.0  0.66336  0.89359  0.35101  1.0000
  C   C247      1.0  0.64337  0.87587  0.30628  1.0000
  H   H109      1.0  0.69845  0.90399  0.38447  1.0000
  C   C248      1.0  0.66164  0.91055  0.41029  1.0000
  H   H110      1.0  0.67836  0.92303  0.43933  1.0000
  H   H111      1.0  0.64963  0.90151  0.46527  1.0000
  H   H112      1.0  0.65530  0.92020  0.37181  1.0000
  C   C249      1.0  0.19167  0.32987  0.29851  1.0000
  C   C250      1.0  0.21282  0.33026  0.31464  1.0000
  C   C251      1.0  0.23412  0.35188  0.32111  1.0000
  C   C252      1.0  0.23361  0.37295  0.31008  1.0000
  H   H113      1.0  0.21235  0.31503  0.32932  1.0000
  C   C253      1.0  0.25580  0.35218  0.34677  1.0000
  H   H114      1.0  0.25335  0.33475  0.35278  1.0000
  H   H115      1.0  0.26196  0.36086  0.41136  1.0000
  H   H116      1.0  0.26909  0.36146  0.29595  1.0000
  C   C254      1.0  0.14577  0.81734  0.30046  1.0000
  C   C255      1.0  0.12493  0.79617  0.31513  1.0000
  C   C256      1.0  0.12518  0.77484  0.32144  1.0000
  C   C257      1.0  0.14681  0.77537  0.31186  1.0000
  H   H117      1.0  0.11008  0.79660  0.32849  1.0000
  C   C258      1.0  0.10369  0.75310  0.34553  1.0000
  H   H118      1.0  0.08869  0.75555  0.35067  1.0000
  H   H119      1.0  0.10591  0.74675  0.41019  1.0000
  H   H120      1.0  0.09990  0.73996  0.29432  1.0000
  C   C259      1.0  0.24275  0.44333  0.39671  1.0000
  C   C260      1.0  0.23081  0.43330  0.47787  1.0000
  C   C261      1.0  0.20736  0.42734  0.48926  1.0000
  C   C262      1.0  0.19673  0.43377  0.42094  1.0000
  H   H121      1.0  0.23793  0.42692  0.52267  1.0000
  C   C263      1.0  0.19469  0.41501  0.57206  1.0000
  H   H122      1.0  0.20616  0.41415  0.62238  1.0000
  H   H123      1.0  0.18139  0.39728  0.55618  1.0000
  H   H124      1.0  0.18648  0.42405  0.60220  1.0000
  C   C264      1.0  0.57531  0.80871  0.30222  1.0000
  C   C265      1.0  0.56003  0.78996  0.35764  1.0000
  C   C266      1.0  0.56181  0.76940  0.36161  1.0000
  C   C267      1.0  0.57939  0.76860  0.30943  1.0000
  H   H125      1.0  0.54999  0.79245  0.40324  1.0000
  C   C268      1.0  0.54817  0.75110  0.42863  1.0000
  H   H126      1.0  0.53588  0.75443  0.46482  1.0000
  H   H127      1.0  0.55979  0.75004  0.47769  1.0000
  H   H128      1.0  0.53835  0.73440  0.39480  1.0000
  C   C269      1.0  0.20771  0.76591  0.40127  1.0000
  C   C270      1.0  0.20944  0.77818  0.48136  1.0000
  C   C271      1.0  0.22681  0.80172  0.49174  1.0000
  C   C272      1.0  0.24397  0.81212  0.42359  1.0000
  H   H129      1.0  0.19584  0.77121  0.52574  1.0000
  C   C273      1.0  0.22689  0.81467  0.57326  1.0000
  H   H130      1.0  0.21464  0.80332  0.62404  1.0000
  H   H131      1.0  0.22216  0.82767  0.55577  1.0000
  H   H132      1.0  0.24413  0.82328  0.60352  1.0000
  C   C274      1.0  0.76766  0.56334  0.38963  1.0000
  C   C275      1.0  0.77939  0.57279  0.47168  1.0000
  C   C276      1.0  0.80278  0.57857  0.48374  1.0000
  C   C277      1.0  0.81355  0.57251  0.41481  1.0000
  H   H133      1.0  0.77210  0.57881  0.51721  1.0000
  C   C278      1.0  0.81523  0.59030  0.56767  1.0000
  H   H134      1.0  0.80369  0.59110  0.61781  1.0000
  H   H135      1.0  0.82880  0.60803  0.55340  1.0000
  H   H136      1.0  0.82308  0.58085  0.59722  1.0000
  C   C279      1.0  0.43774  0.20030  0.33008  1.0000
  C   C280      1.0  0.45066  0.21540  0.40102  1.0000
  C   C281      1.0  0.44887  0.23554  0.41848  1.0000
  C   C282      1.0  0.43467  0.24026  0.36084  1.0000
  H   H137      1.0  0.45834  0.21004  0.44729  1.0000
  C   C283      1.0  0.45927  0.24966  0.50034  1.0000
  H   H138      1.0  0.46955  0.24392  0.53808  1.0000
  H   H139      1.0  0.44562  0.24851  0.54436  1.0000
  H   H140      1.0  0.47061  0.26776  0.48152  1.0000
  C   C284      1.0  0.80312  0.24116  0.38913  1.0000
  C   C285      1.0  0.80121  0.22972  0.47158  1.0000
  C   C286      1.0  0.78364  0.20637  0.48502  1.0000
  C   C287      1.0  0.76650  0.19540  0.41719  1.0000
  H   H141      1.0  0.81476  0.23707  0.51606  1.0000
  C   C288      1.0  0.78329  0.19419  0.56923  1.0000
  H   H142      1.0  0.79579  0.20591  0.61858  1.0000
  H   H143      1.0  0.78748  0.18063  0.55504  1.0000
  H   H144      1.0  0.76610  0.18636  0.59976  1.0000
  N   N181      1.0  0.12495  0.46859  0.34529  1.0000
  N   N182      1.0  0.13642  0.45743  0.35249  1.0000
  N   N183      1.0  0.54495  0.66012  0.39503  1.0000
  N   N184      1.0  0.55733  0.68288  0.39501  1.0000
  N   N185      1.0  0.35053  0.88343  0.34641  1.0000
  N   N186      1.0  0.32789  0.87200  0.35344  1.0000
  N   N187      1.0  0.88585  0.53836  0.34248  1.0000
  N   N188      1.0  0.87423  0.54939  0.34850  1.0000
  N   N189      1.0  0.46874  0.34881  0.36356  1.0000
  N   N190      1.0  0.45741  0.32612  0.36746  1.0000
  N   N191      1.0  0.65955  0.12303  0.34720  1.0000
  N   N192      1.0  0.68220  0.13460  0.35389  1.0000
  C   C289      1.0  0.43600  0.12679  0.39468  1.0000
  C   C290      1.0  0.42345  0.10402  0.42828  1.0000
  C   C291      1.0  0.43394  0.09011  0.43593  1.0000
  C   C292      1.0  0.45738  0.09951  0.40605  1.0000
  H   H145      1.0  0.40642  0.09742  0.44579  1.0000
  C   C293      1.0  0.41965  0.06642  0.47406  1.0000
  H   H146      1.0  0.40363  0.06374  0.50508  1.0000
  H   H147      1.0  0.42940  0.06335  0.52586  1.0000
  H   H148      1.0  0.41481  0.05360  0.42074  1.0000
  C   C294      1.0  0.69837  0.57004  0.38263  1.0000
  C   C295      1.0  0.68894  0.58417  0.40500  1.0000
  C   C296      1.0  0.66467  0.57468  0.41345  1.0000
  C   C297      1.0  0.64986  0.55045  0.39568  1.0000
  H   H149      1.0  0.69992  0.60150  0.41592  1.0000
  C   C298      1.0  0.65627  0.59071  0.44113  1.0000
  H   H150      1.0  0.67031  0.60810  0.45774  1.0000
  H   H151      1.0  0.64541  0.58393  0.50081  1.0000
  H   H152      1.0  0.64637  0.59255  0.38666  1.0000
  C   C299      1.0  0.87921  0.31037  0.37885  1.0000
  C   C300      1.0  0.90281  0.31982  0.40050  1.0000
  C   C301      1.0  0.91770  0.34412  0.40708  1.0000
  C   C302      1.0  0.90834  0.35892  0.38817  1.0000
  H   H153      1.0  0.90914  0.30884  0.41193  1.0000
  C   C303      1.0  0.94219  0.35257  0.43398  1.0000
  H   H154      1.0  0.94539  0.33860  0.45346  1.0000
  H   H155      1.0  0.94667  0.36418  0.49158  1.0000
  H   H156      1.0  0.95373  0.36172  0.37799  1.0000
  C   C304      1.0  0.57359  0.87916  0.39948  1.0000
  C   C305      1.0  0.58535  0.90125  0.43976  1.0000
  C   C306      1.0  0.57474  0.91504  0.44712  1.0000
  C   C307      1.0  0.55197  0.90622  0.41077  1.0000
  H   H157      1.0  0.60202  0.90758  0.46172  1.0000
  C   C308      1.0  0.58813  0.93805  0.49160  1.0000
  H   H158      1.0  0.60329  0.94004  0.52779  1.0000
  H   H159      1.0  0.57723  0.94042  0.54025  1.0000
  H   H160      1.0  0.59429  0.95171  0.44114  1.0000
  C   C309      1.0  0.31208  0.43670  0.38496  1.0000
  C   C310      1.0  0.32164  0.42258  0.40557  1.0000
  C   C311      1.0  0.34594  0.43215  0.41329  1.0000
  C   C312      1.0  0.36064  0.45646  0.39667  1.0000
  H   H161      1.0  0.31074  0.40520  0.41564  1.0000
  C   C313      1.0  0.35447  0.41611  0.43913  1.0000
  H   H162      1.0  0.34052  0.39874  0.45647  1.0000
  H   H163      1.0  0.36571  0.42290  0.49785  1.0000
  H   H164      1.0  0.36402  0.41424  0.38337  1.0000
  C   C314      1.0  0.13170  0.69666  0.38311  1.0000
  C   C315      1.0  0.10804  0.68714  0.40391  1.0000
  C   C316      1.0  0.09315  0.66282  0.40934  1.0000
  C   C317      1.0  0.10258  0.64809  0.39013  1.0000
  H   H165      1.0  0.10169  0.69808  0.41574  1.0000
  C   C318      1.0  0.06860  0.65429  0.43553  1.0000
  H   H166      1.0  0.06533  0.66820  0.45520  1.0000
  H   H167      1.0  0.06401  0.64258  0.49281  1.0000
  H   H168      1.0  0.05718  0.64525  0.37912  1.0000
  C   C319      1.0  0.10463  0.19909  0.35291  1.0000
  C   C320      1.0  0.12901  0.21188  0.36261  1.0000
  C   C321      1.0  0.14132  0.23652  0.36120  1.0000
  C   C322      1.0  0.12849  0.24825  0.34948  1.0000
  H   H169      1.0  0.13793  0.20316  0.37019  1.0000
  C   C323      1.0  0.16690  0.24897  0.37393  1.0000
  H   H170      1.0  0.17350  0.23728  0.38917  1.0000
  H   H171      1.0  0.17170  0.26117  0.42965  1.0000
  H   H172      1.0  0.17550  0.25838  0.31285  1.0000
  C   C324      1.0  0.81066  0.90743  0.37262  1.0000
  C   C325      1.0  0.79832  0.91874  0.39729  1.0000
  C   C326      1.0  0.77371  0.90686  0.39682  1.0000
  C   C327      1.0  0.76151  0.88307  0.36979  1.0000
  H   H173      1.0  0.80738  0.93591  0.41458  1.0000
  C   C328      1.0  0.76191  0.91985  0.42454  1.0000
  H   H174      1.0  0.77385  0.93679  0.45340  1.0000
  H   H175      1.0  0.74880  0.91002  0.47534  1.0000
  H   H176      1.0  0.75369  0.92277  0.36657  1.0000
  C   C329      1.0  0.10133  0.90379  0.35283  1.0000
  C   C330      1.0  0.08989  0.87941  0.36241  1.0000
  C   C331      1.0  0.10238  0.86727  0.36114  1.0000
  C   C332      1.0  0.12695  0.88026  0.34951  1.0000
  H   H177      1.0  0.07226  0.87038  0.36997  1.0000
  C   C333      1.0  0.08940  0.84169  0.37393  1.0000
  H   H178      1.0  0.07108  0.83496  0.38905  1.0000
  H   H179      1.0  0.09684  0.83697  0.42977  1.0000
  H   H180      1.0  0.09030  0.83311  0.31292  1.0000
  C   C334      1.0  0.90562  0.80749  0.35308  1.0000
  C   C335      1.0  0.88126  0.79469  0.36376  1.0000
  C   C336      1.0  0.86896  0.77006  0.36200  1.0000
  C   C337      1.0  0.88177  0.75835  0.34880  1.0000
  H   H181      1.0  0.87237  0.80340  0.37236  1.0000
  C   C338      1.0  0.84343  0.75758  0.37599  1.0000
  H   H182      1.0  0.83687  0.76924  0.39242  1.0000
  H   H183      1.0  0.83881  0.74531  0.43139  1.0000
  H   H184      1.0  0.83463  0.74824  0.31506  1.0000
  C   C339      1.0  0.19968  0.09861  0.35909  1.0000
  C   C340      1.0  0.21210  0.08694  0.37652  1.0000
  C   C341      1.0  0.23668  0.09871  0.37256  1.0000
  C   C342      1.0  0.24871  0.12277  0.34988  1.0000
  H   H185      1.0  0.20312  0.06960  0.39124  1.0000
  C   C343      1.0  0.24873  0.08553  0.39339  1.0000
  H   H186      1.0  0.23693  0.06806  0.41817  1.0000
  H   H187      1.0  0.26182  0.09457  0.44517  1.0000
  H   H188      1.0  0.25704  0.08382  0.33306  1.0000
  C   C344      1.0  0.90893  0.10295  0.35466  1.0000
  C   C345      1.0  0.92046  0.12735  0.36372  1.0000
  C   C346      1.0  0.90808  0.13960  0.36198  1.0000
  C   C347      1.0  0.88351  0.12670  0.35054  1.0000
  H   H189      1.0  0.93811  0.13633  0.37110  1.0000
  C   C348      1.0  0.92117  0.16521  0.37408  1.0000
  H   H190      1.0  0.93947  0.17186  0.38943  1.0000
  H   H191      1.0  0.91376  0.17008  0.42953  1.0000
  H   H192      1.0  0.92036  0.17370  0.31271  1.0000
  N   N193      1.0  0.09028  0.53601  0.42104  1.0000
  N   N194      1.0  0.09030  0.55552  0.42945  1.0000
  N   N195      1.0  0.47082  0.55658  0.45001  1.0000
  N   N196      1.0  0.45112  0.53706  0.45187  1.0000
  N   N197      1.0  0.45202  0.91742  0.42463  1.0000
  N   N198      1.0  0.47162  0.91767  0.43427  1.0000
  N   N199      1.0  0.92085  0.47120  0.42165  1.0000
  N   N200      1.0  0.92089  0.45172  0.43004  1.0000
  N   N201      1.0  0.53831  0.45033  0.43590  1.0000
  N   N202      1.0  0.55798  0.46970  0.44307  1.0000
  N   N203      1.0  0.55777  0.08859  0.42516  1.0000
  N   N204      1.0  0.53823  0.08849  0.43417  1.0000
  C   C349      1.0  0.98244  0.42956  0.37676  1.0000
  C   C350      1.0  0.99489  0.41859  0.40421  1.0000
  C   C351      1.0  0.01939  0.43032  0.39898  1.0000
  C   C352      1.0  0.03090  0.45330  0.36394  1.0000
  H   H193      1.0  0.98611  0.40212  0.42945  1.0000
  C   C353      1.0  0.03196  0.41878  0.43433  1.0000
  H   H194      1.0  0.02044  0.40234  0.46768  1.0000
  H   H195      1.0  0.04494  0.43001  0.48333  1.0000
  H   H196      1.0  0.04051  0.41513  0.37971  1.0000
  C   C354      1.0  0.57874  0.55305  0.40366  1.0000
  C   C355      1.0  0.58979  0.57598  0.43664  1.0000
  C   C356      1.0  0.57801  0.58871  0.43895  1.0000
  C   C357      1.0  0.55484  0.57771  0.40574  1.0000
  H   H197      1.0  0.60642  0.58336  0.46017  1.0000
  C   C358      1.0  0.58987  0.61230  0.47946  1.0000
  H   H198      1.0  0.60627  0.61654  0.51159  1.0000
  H   H199      1.0  0.57879  0.61351  0.53067  1.0000
  H   H200      1.0  0.59368  0.62533  0.42796  1.0000
  C   C359      1.0  0.45416  0.02582  0.38079  1.0000
  C   C360      1.0  0.43083  0.01321  0.40923  1.0000
  C   C361      1.0  0.41806  0.98874  0.40262  1.0000
  C   C362      1.0  0.42947  0.97740  0.36552  1.0000
  H   H201      1.0  0.42320  0.02184  0.43637  1.0000
  C   C363      1.0  0.39403  0.97601  0.43882  1.0000
  H   H202      1.0  0.38915  0.98740  0.47350  1.0000
  H   H203      1.0  0.39244  0.96291  0.48684  1.0000
  H   H204      1.0  0.38170  0.96760  0.38440  1.0000
  C   C364      1.0  0.02852  0.57746  0.37698  1.0000
  C   C365      1.0  0.01607  0.58836  0.40538  1.0000
  C   C366      1.0  0.99157  0.57662  0.40034  1.0000
  C   C367      1.0  0.98005  0.55372  0.36458  1.0000
  H   H205      1.0  0.02485  0.60477  0.43114  1.0000
  C   C368      1.0  0.97898  0.58805  0.43672  1.0000
  H   H206      1.0  0.99050  0.60442  0.47049  1.0000
  H   H207      1.0  0.96605  0.57669  0.48561  1.0000
  H   H208      1.0  0.97037  0.59179  0.38261  1.0000
  C   C369      1.0  0.43158  0.45361  0.39031  1.0000
  C   C370      1.0  0.42061  0.43037  0.41989  1.0000
  C   C371      1.0  0.43234  0.41758  0.41699  1.0000
  C   C372      1.0  0.45533  0.42885  0.38200  1.0000
  H   H209      1.0  0.40415  0.42282  0.44513  1.0000
  C   C373      1.0  0.42074  0.39367  0.45459  1.0000
  H   H210      1.0  0.40440  0.38906  0.48812  1.0000
  H   H211      1.0  0.43202  0.39216  0.50400  1.0000
  H   H212      1.0  0.41689  0.38111  0.40119  1.0000
  C   C374      1.0  0.55606  0.98035  0.38212  1.0000
  C   C375      1.0  0.57940  0.99297  0.41046  1.0000
  C   C376      1.0  0.59214  0.01746  0.40402  1.0000
  C   C377      1.0  0.58073  0.02881  0.36707  1.0000
  H   H213      1.0  0.58706  0.98434  0.43732  1.0000
  C   C378      1.0  0.61616  0.03020  0.44038  1.0000
  H   H214      1.0  0.62105  0.01881  0.47498  1.0000
  H   H215      1.0  0.61770  0.04327  0.48852  1.0000
  H   H216      1.0  0.62851  0.03867  0.38608  1.0000
  N   N205      1.0  0.12400  0.13385  0.35994  1.0000
  N   N206      1.0  0.13600  0.12303  0.36167  1.0000
  N   N207      1.0  0.87510  0.99217  0.36723  1.0000
  N   N208      1.0  0.88562  0.01498  0.36680  1.0000
  N   N209      1.0  0.01647  0.88368  0.35857  1.0000
  N   N210      1.0  0.99366  0.87154  0.35970  1.0000
  N   N211      1.0  0.88634  0.87275  0.36268  1.0000
  N   N212      1.0  0.87437  0.88358  0.36522  1.0000
  N   N213      1.0  0.13500  0.01436  0.36228  1.0000
  N   N214      1.0  0.12448  0.99156  0.36237  1.0000
  N   N215      1.0  0.99372  0.12287  0.35963  1.0000
  N   N216      1.0  0.01654  0.13500  0.36034  1.0000
