data_image0
_chemical_formula_structural       C8HC4OHOHCNHC4HCOHC4H2C4H2C3H2CNCHNHCNHC4HC4OHOHCHOHOCNHC2HC4HOHOHC4HC6HOHOHC2HCNHCNCHNHCNCHNHC4HC6HOHOHC4HC6HOHOHC4HC6HOHOHC4HC6HOHOHC4HC6HOHOHC4HC6HOHOHCNCHNHCNCHNHCNCHNHCNCHNHCNCHNHCNCHNHC4HC6HOHOHC4HC6HOHOHC4HC6HOHOHC5HOHC4HC6HOHOHC4HC6HOHOHC2HC2HC6H3C6H3C6H3C6H3C6H3C6H3C6H3C6H3C3HC6H3C6H3C6H3C6H3C6H3CNCHNHCNHC2HC4HC6HOHOHC4HC6HOHOHCNCHNHCNCHNHCNCHNHCNCHNHCNCHNHCNCHNHC4HC6HOHOHC4HC6HOHOHC4HC6HOHOHC4HC5HC4HC6HOHOHC4HC6HOHOHCNCHNHCNCHNHCNCHNHCNHCNCHNHCNCHNH
_chemical_formula_sum              "C384 H192 O48 N48"
_cell_length_a       62.8246
_cell_length_b       62.8246
_cell_length_c       14.9422
_cell_angle_alpha    90
_cell_angle_beta     90
_cell_angle_gamma    120

_space_group_name_H-M_alt    "P 1"
_space_group_IT_number       1

loop_
  _space_group_symop_operation_xyz
  'x, y, z'

loop_
  _atom_site_type_symbol
  _atom_site_label
  _atom_site_symmetry_multiplicity
  _atom_site_fract_x
  _atom_site_fract_y
  _atom_site_fract_z
  _atom_site_occupancy
  C   C1        1.0  0.00406  0.04842  0.31541  1.0000
  C   C2        1.0  0.00421  0.09392  0.31467  1.0000
  C   C3        1.0  0.00436  0.11659  0.31592  1.0000
  C   C4        1.0  0.00484  0.16226  0.32185  1.0000
  C   C5        1.0  0.04951  0.00201  0.31638  1.0000
  C   C6        1.0  0.09487  0.00182  0.31571  1.0000
  C   C7        1.0  0.07507  0.98470  0.26159  1.0000
  C   C8        1.0  0.05270  0.98513  0.26302  1.0000
  H   H1        1.0  0.03854  0.97317  0.22295  1.0000
  C   C9        1.0  0.11748  0.00185  0.31683  1.0000
  C   C10       1.0  0.12048  0.98468  0.26418  1.0000
  C   C11       1.0  0.10076  0.96782  0.20971  1.0000
  C   C12       1.0  0.07828  0.96786  0.20832  1.0000
  O   O1        1.0  0.10275  0.95076  0.15974  1.0000
  H   H2        1.0  0.10911  0.95841  0.10107  1.0000
  O   O2        1.0  0.05956  0.95081  0.15711  1.0000
  H   H3        1.0  0.06129  0.95846  0.09812  1.0000
  C   C13       1.0  0.06803  0.26356  0.28878  1.0000
  N   N1        1.0  0.08652  0.28734  0.29326  1.0000
  H   H4        1.0  0.06667  0.25352  0.23306  1.0000
  C   C14       1.0  0.06705  0.57419  0.33841  1.0000
  C   C15       1.0  0.01557  0.55094  0.33677  1.0000
  C   C16       1.0  0.02892  0.56721  0.26578  1.0000
  C   C17       1.0  0.05486  0.57891  0.26828  1.0000
  H   H5        1.0  0.06497  0.59017  0.21672  1.0000
  C   C18       1.0  0.01595  0.57059  0.19480  1.0000
  O   O3        1.0  0.02817  0.58625  0.12611  1.0000
  H   H6        1.0  0.03041  0.57637  0.07997  1.0000
  C   C19       1.0  0.00401  0.02541  0.31713  1.0000
  C   C20       1.0  0.02620  0.02463  0.31811  1.0000
  C   C21       1.0  0.02662  0.00224  0.31784  1.0000
  C   C22       1.0  0.00361  0.98005  0.31749  1.0000
  H   H7        1.0  0.00345  0.96369  0.31733  1.0000
  H   H8        1.0  0.04253  0.04085  0.31513  1.0000
  C   C23       1.0  0.02776  0.23065  0.34587  1.0000
  C   C24       1.0  0.00511  0.23031  0.34656  1.0000
  C   C25       1.0  0.00500  0.18531  0.32744  1.0000
  C   C26       1.0  0.02738  0.20806  0.33552  1.0000
  H   H9        1.0  0.04378  0.20828  0.33480  1.0000
  H   H10       1.0  0.00518  0.24662  0.35194  1.0000
  C   C27       1.0  0.09290  0.58423  0.33778  1.0000
  C   C28       1.0  0.10295  0.56873  0.34837  1.0000
  C   C29       1.0  0.10904  0.60965  0.32671  1.0000
  H   H11       1.0  0.10180  0.62105  0.32195  1.0000
  H   H12       1.0  0.09126  0.55014  0.35308  1.0000
  C   C30       1.0  0.02032  0.06877  0.36865  1.0000
  N   N2        1.0  0.01977  0.09015  0.36689  1.0000
  C   C31       1.0  0.02080  0.15746  0.37412  1.0000
  H   H13       1.0  0.03244  0.06761  0.41116  1.0000
  N   N3        1.0  0.01998  0.13544  0.36978  1.0000
  H   H14       1.0  0.03287  0.17025  0.41811  1.0000
  C   C32       1.0  0.07013  0.01857  0.36800  1.0000
  N   N4        1.0  0.09142  0.01787  0.36626  1.0000
  H   H15       1.0  0.06923  0.03105  0.40934  1.0000
  C   C33       1.0  0.04990  0.25370  0.35635  1.0000
  C   C34       1.0  0.08928  0.30287  0.36165  1.0000
  C   C35       1.0  0.07213  0.29381  0.43340  1.0000
  C   C36       1.0  0.05268  0.26917  0.42956  1.0000
  H   H16       1.0  0.03964  0.26259  0.47901  1.0000
  C   C37       1.0  0.10817  0.32784  0.36058  1.0000
  C   C38       1.0  0.10992  0.34389  0.43094  1.0000
  C   C39       1.0  0.09309  0.33462  0.50310  1.0000
  C   C40       1.0  0.07433  0.30972  0.50437  1.0000
  O   O4        1.0  0.09477  0.34932  0.57297  1.0000
  H   H17       1.0  0.08434  0.35635  0.55739  1.0000
  O   O5        1.0  0.05858  0.30141  0.57530  1.0000
  H   H18       1.0  0.04499  0.30428  0.56009  1.0000
  C   C41       1.0  0.12295  0.50450  0.49272  1.0000
  H   H19       1.0  0.11603  0.54319  0.47323  1.0000
  O   O6        1.0  0.10743  0.50408  0.55727  1.0000
  H   H20       1.0  0.11786  0.51332  0.60829  1.0000
  O   O7        1.0  0.11725  0.46657  0.55064  1.0000
  C   C42       1.0  0.05256  0.55802  0.40727  1.0000
  N   N5        1.0  0.02781  0.54712  0.40404  1.0000
  H   H21       1.0  0.06039  0.55406  0.45993  1.0000
  C   C43       1.0  0.98747  0.07441  0.25862  1.0000
  C   C44       1.0  0.98769  0.05193  0.26027  1.0000
  H   H22       1.0  0.97594  0.03791  0.21921  1.0000
  C   C45       1.0  0.98838  0.14286  0.26516  1.0000
  C   C46       1.0  0.98783  0.12002  0.26102  1.0000
  C   C47       1.0  0.97141  0.10061  0.20447  1.0000
  C   C48       1.0  0.97122  0.07802  0.20332  1.0000
  H   H23       1.0  0.97679  0.14560  0.22492  1.0000
  O   O8        1.0  0.95491  0.10298  0.15239  1.0000
  H   H24       1.0  0.96310  0.10949  0.09461  1.0000
  O   O9        1.0  0.95455  0.05958  0.15016  1.0000
  H   H25       1.0  0.96271  0.06147  0.09215  1.0000
  C   C49       1.0  0.95764  0.95671  0.31508  1.0000
  C   C50       1.0  0.91208  0.91137  0.31363  1.0000
  C   C51       1.0  0.91480  0.93124  0.25980  1.0000
  C   C52       1.0  0.93761  0.95360  0.26163  1.0000
  H   H26       1.0  0.93986  0.96783  0.22184  1.0000
  C   C53       1.0  0.88950  0.88877  0.31447  1.0000
  C   C54       1.0  0.84421  0.84327  0.31972  1.0000
  C   C55       1.0  0.84696  0.86305  0.26576  1.0000
  C   C56       1.0  0.86935  0.88581  0.26180  1.0000
  C   C57       1.0  0.87225  0.90559  0.20756  1.0000
  C   C58       1.0  0.89477  0.92807  0.20646  1.0000
  H   H27       1.0  0.83242  0.86066  0.22750  1.0000
  O   O10       1.0  0.85322  0.90365  0.15757  1.0000
  H   H28       1.0  0.85454  0.89735  0.09881  1.0000
  O   O11       1.0  0.89648  0.94684  0.15547  1.0000
  H   H29       1.0  0.90243  0.94517  0.09647  1.0000
  C   C59       1.0  0.16298  0.00206  0.32255  1.0000
  C   C60       1.0  0.14324  0.98505  0.26838  1.0000
  H   H30       1.0  0.14566  0.97292  0.23009  1.0000
  C   C61       1.0  0.14257  0.36107  0.28609  1.0000
  N   N6        1.0  0.12454  0.33714  0.29182  1.0000
  H   H31       1.0  0.15378  0.36664  0.23120  1.0000
  C   C62       1.0  0.74319  0.80541  0.28576  1.0000
  N   N7        1.0  0.71945  0.80027  0.29007  1.0000
  C   C63       1.0  0.64584  0.78321  0.28274  1.0000
  H   H32       1.0  0.75338  0.81436  0.23065  1.0000
  N   N8        1.0  0.66971  0.78890  0.28848  1.0000
  H   H33       1.0  0.64042  0.78916  0.22831  1.0000
  C   C64       1.0  0.20187  0.93962  0.28475  1.0000
  N   N9        1.0  0.20699  0.92102  0.28876  1.0000
  C   C65       1.0  0.22419  0.86463  0.28074  1.0000
  H   H34       1.0  0.19388  0.94157  0.22809  1.0000
  N   N10       1.0  0.21842  0.88275  0.28666  1.0000
  H   H35       1.0  0.21917  0.85393  0.22454  1.0000
  C   C66       1.0  0.25465  0.04672  0.34075  1.0000
  C   C67       1.0  0.30394  0.08560  0.33619  1.0000
  C   C68       1.0  0.28892  0.08078  0.25911  1.0000
  C   C69       1.0  0.26418  0.06130  0.26299  1.0000
  H   H36       1.0  0.25331  0.05681  0.20721  1.0000
  C   C70       1.0  0.32891  0.10437  0.33482  1.0000
  C   C71       1.0  0.37906  0.14111  0.33474  1.0000
  C   C72       1.0  0.36433  0.13736  0.25830  1.0000
  C   C73       1.0  0.33920  0.11879  0.25654  1.0000
  C   C74       1.0  0.32427  0.11383  0.17959  1.0000
  C   C75       1.0  0.29936  0.09492  0.18077  1.0000
  H   H37       1.0  0.37226  0.14784  0.20253  1.0000
  O   O12       1.0  0.33351  0.12720  0.10324  1.0000
  H   H38       1.0  0.34013  0.11862  0.06781  1.0000
  O   O13       1.0  0.28559  0.09081  0.10550  1.0000
  H   H39       1.0  0.28756  0.07872  0.06998  1.0000
  C   C76       1.0  0.79733  0.75155  0.33798  1.0000
  C   C77       1.0  0.78714  0.70231  0.33398  1.0000
  C   C78       1.0  0.79870  0.71774  0.25886  1.0000
  C   C79       1.0  0.80384  0.74244  0.26248  1.0000
  H   H40       1.0  0.81114  0.75358  0.20774  1.0000
  C   C80       1.0  0.78090  0.67734  0.33259  1.0000
  C   C81       1.0  0.76727  0.62712  0.33217  1.0000
  C   C82       1.0  0.77975  0.64228  0.25807  1.0000
  C   C83       1.0  0.78642  0.66743  0.25637  1.0000
  C   C84       1.0  0.79783  0.68278  0.18139  1.0000
  C   C85       1.0  0.80382  0.70769  0.18248  1.0000
  H   H41       1.0  0.78328  0.63462  0.20366  1.0000
  O   O14       1.0  0.80335  0.67393  0.10705  1.0000
  H   H42       1.0  0.78885  0.66753  0.06788  1.0000
  O   O15       1.0  0.81485  0.72185  0.10915  1.0000
  H   H43       1.0  0.80149  0.72007  0.06988  1.0000
  C   C86       1.0  0.96027  0.20949  0.33885  1.0000
  C   C87       1.0  0.92095  0.21930  0.33385  1.0000
  C   C88       1.0  0.92446  0.20699  0.26038  1.0000
  C   C89       1.0  0.94418  0.20208  0.26450  1.0000
  H   H44       1.0  0.94769  0.19415  0.21090  1.0000
  C   C90       1.0  0.90207  0.22534  0.33187  1.0000
  C   C91       1.0  0.86522  0.23862  0.33016  1.0000
  C   C92       1.0  0.86752  0.22536  0.25787  1.0000
  C   C93       1.0  0.88613  0.21886  0.25678  1.0000
  C   C94       1.0  0.88969  0.20667  0.18345  1.0000
  C   C95       1.0  0.90875  0.20088  0.18509  1.0000
  H   H45       1.0  0.85599  0.22116  0.20415  1.0000
  O   O16       1.0  0.87480  0.20019  0.11025  1.0000
  H   H46       1.0  0.88254  0.21422  0.06887  1.0000
  O   O17       1.0  0.91150  0.18908  0.11337  1.0000
  H   H47       1.0  0.92275  0.20201  0.07200  1.0000
  C   C96       1.0  0.23118  0.44661  0.33674  1.0000
  C   C97       1.0  0.28280  0.46984  0.32637  1.0000
  C   C98       1.0  0.26837  0.45125  0.26310  1.0000
  C   C99       1.0  0.24244  0.43968  0.26978  1.0000
  H   H48       1.0  0.23162  0.42690  0.22309  1.0000
  C   C100      1.0  0.30869  0.48225  0.32202  1.0000
  C   C101      1.0  0.36050  0.50667  0.31969  1.0000
  C   C102      1.0  0.34658  0.48845  0.25503  1.0000
  C   C103      1.0  0.32059  0.47602  0.25476  1.0000
  C   C104      1.0  0.30626  0.45759  0.19132  1.0000
  C   C105      1.0  0.28031  0.44535  0.19527  1.0000
  H   H49       1.0  0.35558  0.48403  0.20800  1.0000
  O   O18       1.0  0.31709  0.45082  0.12704  1.0000
  H   H50       1.0  0.31971  0.46155  0.07534  1.0000
  O   O19       1.0  0.26711  0.42736  0.13440  1.0000
  H   H51       1.0  0.26447  0.43555  0.08304  1.0000
  C   C106      1.0  0.56031  0.78639  0.33349  1.0000
  C   C107      1.0  0.53683  0.81456  0.32374  1.0000
  C   C108      1.0  0.55527  0.81868  0.25979  1.0000
  C   C109      1.0  0.56696  0.80443  0.26614  1.0000
  H   H52       1.0  0.57960  0.80634  0.21891  1.0000
  C   C110      1.0  0.52429  0.82791  0.31967  1.0000
  C   C111      1.0  0.49960  0.85504  0.31787  1.0000
  C   C112      1.0  0.51767  0.85933  0.25260  1.0000
  C   C113      1.0  0.53023  0.84589  0.25204  1.0000
  C   C114      1.0  0.54851  0.84996  0.18796  1.0000
  C   C115      1.0  0.56088  0.83637  0.19161  1.0000
  H   H53       1.0  0.52191  0.87266  0.20536  1.0000
  O   O20       1.0  0.55500  0.86742  0.12330  1.0000
  H   H54       1.0  0.54414  0.85917  0.07205  1.0000
  O   O21       1.0  0.57871  0.84114  0.13007  1.0000
  H   H55       1.0  0.57040  0.83019  0.07906  1.0000
  C   C116      1.0  0.21978  0.77510  0.33450  1.0000
  C   C117      1.0  0.19129  0.72346  0.32531  1.0000
  C   C118      1.0  0.18713  0.73781  0.26170  1.0000
  C   C119      1.0  0.20153  0.76375  0.26780  1.0000
  H   H56       1.0  0.19957  0.77450  0.22079  1.0000
  C   C120      1.0  0.17778  0.69756  0.32152  1.0000
  C   C121      1.0  0.15037  0.64575  0.32021  1.0000
  C   C122      1.0  0.14604  0.65958  0.25526  1.0000
  C   C123      1.0  0.15960  0.68557  0.25448  1.0000
  C   C124      1.0  0.15549  0.69982  0.19072  1.0000
  C   C125      1.0  0.16923  0.72577  0.19411  1.0000
  H   H57       1.0  0.13259  0.65051  0.20834  1.0000
  O   O22       1.0  0.13784  0.68890  0.12664  1.0000
  H   H58       1.0  0.14591  0.68619  0.07502  1.0000
  O   O23       1.0  0.16442  0.73889  0.13293  1.0000
  H   H59       1.0  0.17520  0.74142  0.08151  1.0000
  C   C126      1.0  0.46532  0.24319  0.26698  1.0000
  N   N11       1.0  0.47602  0.26794  0.27330  1.0000
  C   C127      1.0  0.51229  0.34412  0.27940  1.0000
  H   H60       1.0  0.47119  0.23603  0.21778  1.0000
  N   N12       1.0  0.50013  0.31919  0.28033  1.0000
  H   H61       1.0  0.52484  0.35309  0.22979  1.0000
  C   C128      1.0  0.78283  0.54070  0.26401  1.0000
  N   N13       1.0  0.79673  0.52985  0.27064  1.0000
  C   C129      1.0  0.83627  0.49320  0.27752  1.0000
  H   H62       1.0  0.76987  0.53495  0.21453  1.0000
  N   N14       1.0  0.82362  0.50548  0.27821  1.0000
  H   H63       1.0  0.83278  0.48076  0.22758  1.0000
  C   C130      1.0  0.76297  0.22243  0.26073  1.0000
  N   N15       1.0  0.73823  0.20850  0.26758  1.0000
  C   C131      1.0  0.66204  0.16899  0.27542  1.0000
  H   H64       1.0  0.77012  0.23537  0.21121  1.0000
  N   N16       1.0  0.68697  0.18162  0.27576  1.0000
  H   H65       1.0  0.65303  0.17247  0.22564  1.0000
  C   C132      1.0  0.17364  0.48450  0.28349  1.0000
  N   N17       1.0  0.16819  0.50273  0.29095  1.0000
  C   C133      1.0  0.15355  0.56018  0.29611  1.0000
  H   H66       1.0  0.18494  0.48547  0.23250  1.0000
  N   N18       1.0  0.15828  0.54135  0.29808  1.0000
  H   H67       1.0  0.16054  0.57249  0.24457  1.0000
  C   C134      1.0  0.52210  0.69088  0.27959  1.0000
  N   N19       1.0  0.50382  0.66724  0.28744  1.0000
  C   C135      1.0  0.44623  0.59522  0.29369  1.0000
  H   H68       1.0  0.52115  0.70119  0.22845  1.0000
  N   N20       1.0  0.46510  0.61876  0.29532  1.0000
  H   H69       1.0  0.43388  0.58987  0.24228  1.0000
  C   C136      1.0  0.31527  0.83238  0.28066  1.0000
  N   N21       1.0  0.33891  0.83772  0.28826  1.0000
  C   C137      1.0  0.41092  0.85208  0.29374  1.0000
  H   H70       1.0  0.30493  0.82114  0.22956  1.0000
  N   N22       1.0  0.38738  0.84742  0.29563  1.0000
  H   H71       1.0  0.41622  0.84506  0.24221  1.0000
  C   C138      1.0  0.46587  0.16110  0.33561  1.0000
  C   C139      1.0  0.50511  0.15154  0.32169  1.0000
  C   C140      1.0  0.48526  0.14024  0.26004  1.0000
  C   C141      1.0  0.46569  0.14516  0.26850  1.0000
  H   H72       1.0  0.45160  0.13788  0.22308  1.0000
  C   C142      1.0  0.52504  0.14716  0.31614  1.0000
  C   C143      1.0  0.56390  0.13686  0.31325  1.0000
  C   C144      1.0  0.54492  0.12647  0.24853  1.0000
  C   C145      1.0  0.52523  0.13129  0.24891  1.0000
  C   C146      1.0  0.50566  0.12033  0.18661  1.0000
  C   C147      1.0  0.48580  0.12482  0.19205  1.0000
  H   H73       1.0  0.54507  0.11453  0.20221  1.0000
  O   O24       1.0  0.50504  0.10457  0.12267  1.0000
  H   H74       1.0  0.51367  0.11476  0.07038  1.0000
  O   O25       1.0  0.46691  0.11337  0.13280  1.0000
  H   H75       1.0  0.47120  0.12446  0.08110  1.0000
  C   C148      1.0  0.70028  0.54033  0.33429  1.0000
  C   C149      1.0  0.65145  0.50113  0.32164  1.0000
  C   C150      1.0  0.65991  0.52089  0.25963  1.0000
  C   C151      1.0  0.68443  0.54046  0.26748  1.0000
  H   H76       1.0  0.69119  0.55446  0.22174  1.0000
  C   C152      1.0  0.62713  0.48120  0.31665  1.0000
  C   C153      1.0  0.57797  0.44232  0.31475  1.0000
  C   C154      1.0  0.58647  0.46122  0.24972  1.0000
  C   C155      1.0  0.61098  0.48092  0.24959  1.0000
  C   C156      1.0  0.61951  0.50040  0.18695  1.0000
  C   C157      1.0  0.64386  0.52026  0.19186  1.0000
  H   H77       1.0  0.57432  0.46100  0.20353  1.0000
  O   O26       1.0  0.60428  0.50093  0.12317  1.0000
  H   H78       1.0  0.60577  0.49223  0.07096  1.0000
  O   O27       1.0  0.65122  0.53907  0.13226  1.0000
  H   H79       1.0  0.65795  0.53469  0.08055  1.0000
  C   C158      1.0  0.84482  0.30523  0.33122  1.0000
  C   C159      1.0  0.85423  0.35399  0.31884  1.0000
  C   C160      1.0  0.86558  0.34562  0.25668  1.0000
  C   C161      1.0  0.86073  0.32114  0.26435  1.0000
  H   H80       1.0  0.86806  0.31446  0.21864  1.0000
  C   C162      1.0  0.85855  0.37828  0.31408  1.0000
  C   C163      1.0  0.86873  0.42741  0.31279  1.0000
  C   C164      1.0  0.87914  0.41899  0.24752  1.0000
  C   C165      1.0  0.87439  0.39451  0.24713  1.0000
  C   C166      1.0  0.88538  0.38606  0.18430  1.0000
  C   C167      1.0  0.88096  0.36173  0.18896  1.0000
  H   H81       1.0  0.89106  0.43119  0.20144  1.0000
  O   O28       1.0  0.90110  0.40135  0.12056  1.0000
  H   H82       1.0  0.89089  0.39987  0.06844  1.0000
  O   O29       1.0  0.89245  0.35446  0.12922  1.0000
  H   H83       1.0  0.88134  0.34772  0.07753  1.0000
  C   C168      1.0  0.98972  0.53819  0.33650  1.0000
  C   C169      1.0  0.93830  0.51075  0.33698  1.0000
  C   C170      1.0  0.95072  0.52773  0.26740  1.0000
  C   C171      1.0  0.97669  0.54156  0.26541  1.0000
  C   C172      1.0  0.98996  0.55785  0.19468  1.0000
  H   H84       1.0  0.94076  0.52919  0.21595  1.0000
  O   O30       1.0  0.97805  0.56166  0.12580  1.0000
  H   H85       1.0  0.97562  0.54949  0.07961  1.0000
  C   C173      1.0  0.43185  0.49460  0.33804  1.0000
  C   C174      1.0  0.45481  0.46610  0.33720  1.0000
  C   C175      1.0  0.43846  0.46309  0.26639  1.0000
  C   C176      1.0  0.42691  0.47747  0.26849  1.0000
  H   H86       1.0  0.41559  0.47626  0.21704  1.0000
  C   C177      1.0  0.46742  0.45286  0.33729  1.0000
  C   C178      1.0  0.49467  0.42868  0.33825  1.0000
  C   C179      1.0  0.47756  0.42399  0.26900  1.0000
  C   C180      1.0  0.46384  0.43625  0.26673  1.0000
  C   C181      1.0  0.44746  0.43314  0.19622  1.0000
  C   C182      1.0  0.43485  0.44652  0.19599  1.0000
  H   H87       1.0  0.47600  0.41246  0.21781  1.0000
  O   O31       1.0  0.44344  0.41720  0.12788  1.0000
  H   H88       1.0  0.45554  0.42677  0.08124  1.0000
  O   O32       1.0  0.41910  0.44298  0.12751  1.0000
  H   H89       1.0  0.42895  0.45495  0.08093  1.0000
  C   C183      1.0  0.51150  0.93838  0.33639  1.0000
  C   C184      1.0  0.53997  0.98984  0.33521  1.0000
  C   C185      1.0  0.54281  0.97648  0.26407  1.0000
  C   C186      1.0  0.52846  0.95055  0.26636  1.0000
  H   H90       1.0  0.52955  0.94043  0.21469  1.0000
  C   C187      1.0  0.55321  0.01569  0.33520  1.0000
  C   C188      1.0  0.57742  0.06711  0.33609  1.0000
  C   C189      1.0  0.58192  0.05467  0.26641  1.0000
  C   C190      1.0  0.56965  0.02870  0.26418  1.0000
  C   C191      1.0  0.57258  0.01541  0.19329  1.0000
  C   C192      1.0  0.55920  0.98943  0.19318  1.0000
  H   H91       1.0  0.59334  0.06463  0.21493  1.0000
  O   O33       1.0  0.58834  0.02731  0.12449  1.0000
  H   H92       1.0  0.57866  0.02984  0.07833  1.0000
  O   O34       1.0  0.56256  0.97720  0.12435  1.0000
  H   H93       1.0  0.55047  0.97505  0.07824  1.0000
  C   C193      1.0  0.98079  0.97959  0.31671  1.0000
  C   C194      1.0  0.98165  0.00259  0.31660  1.0000
  H   H94       1.0  0.96545  0.00274  0.31919  1.0000
  C   C195      1.0  0.98241  0.20830  0.33756  1.0000
  C   C196      1.0  0.98272  0.18605  0.32719  1.0000
  H   H95       1.0  0.96625  0.17000  0.32356  1.0000
  C   C197      1.0  0.77590  0.79764  0.34252  1.0000
  C   C198      1.0  0.77638  0.77540  0.34432  1.0000
  C   C199      1.0  0.79846  0.77482  0.33637  1.0000
  C   C200      1.0  0.82071  0.79740  0.32626  1.0000
  C   C201      1.0  0.82128  0.82032  0.32518  1.0000
  C   C202      1.0  0.79846  0.81987  0.33191  1.0000
  H   H96       1.0  0.83676  0.79705  0.32023  1.0000
  H   H97       1.0  0.79829  0.83607  0.33358  1.0000
  H   H98       1.0  0.76011  0.75911  0.34968  1.0000
  C   C203      1.0  0.20852  0.97928  0.34544  1.0000
  C   C204      1.0  0.23079  0.00195  0.34811  1.0000
  C   C205      1.0  0.23138  0.02462  0.33998  1.0000
  C   C206      1.0  0.20885  0.02435  0.32967  1.0000
  C   C207      1.0  0.18590  0.00203  0.32832  1.0000
  C   C208      1.0  0.18631  0.97964  0.33471  1.0000
  H   H99       1.0  0.20924  0.04077  0.32343  1.0000
  H   H100      1.0  0.17011  0.96326  0.33575  1.0000
  H   H101      1.0  0.24705  0.00194  0.35385  1.0000
  C   C209      1.0  0.17157  0.44681  0.34290  1.0000
  C   C210      1.0  0.19683  0.45447  0.33829  1.0000
  C   C211      1.0  0.20537  0.43751  0.33751  1.0000
  C   C212      1.0  0.18787  0.41209  0.33840  1.0000
  C   C213      1.0  0.16239  0.40369  0.34534  1.0000
  C   C214      1.0  0.15460  0.42132  0.34849  1.0000
  H   H102      1.0  0.19383  0.39961  0.33903  1.0000
  H   H103      1.0  0.13620  0.41549  0.35218  1.0000
  H   H104      1.0  0.20937  0.47292  0.33667  1.0000
  C   C215      1.0  0.55990  0.72649  0.33850  1.0000
  C   C216      1.0  0.55232  0.74415  0.33419  1.0000
  C   C217      1.0  0.56935  0.76963  0.33364  1.0000
  C   C218      1.0  0.59476  0.77747  0.33446  1.0000
  C   C219      1.0  0.60308  0.76031  0.34101  1.0000
  C   C220      1.0  0.58537  0.73491  0.34392  1.0000
  H   H105      1.0  0.60729  0.79590  0.33525  1.0000
  H   H106      1.0  0.59112  0.72228  0.34744  1.0000
  H   H107      1.0  0.53388  0.73830  0.33274  1.0000
  C   C221      1.0  0.27972  0.83460  0.33998  1.0000
  C   C222      1.0  0.26205  0.80936  0.33545  1.0000
  C   C223      1.0  0.23656  0.80090  0.33470  1.0000
  C   C224      1.0  0.22873  0.81847  0.33535  1.0000
  C   C225      1.0  0.24590  0.84394  0.34203  1.0000
  C   C226      1.0  0.27129  0.85165  0.34542  1.0000
  H   H108      1.0  0.21031  0.81260  0.33585  1.0000
  H   H109      1.0  0.28390  0.87004  0.34922  1.0000
  H   H110      1.0  0.26790  0.79677  0.33398  1.0000
  C   C227      1.0  0.44775  0.16840  0.33715  1.0000
  C   C228      1.0  0.45528  0.19365  0.33373  1.0000
  C   C229      1.0  0.43815  0.20197  0.33043  1.0000
  C   C230      1.0  0.41277  0.18430  0.33164  1.0000
  C   C231      1.0  0.40459  0.15883  0.33500  1.0000
  C   C232      1.0  0.42227  0.15115  0.33728  1.0000
  H   H111      1.0  0.40013  0.19005  0.32955  1.0000
  H   H112      1.0  0.41654  0.13275  0.33899  1.0000
  H   H113      1.0  0.47370  0.20629  0.33300  1.0000
  C   C233      1.0  0.72572  0.55841  0.33515  1.0000
  C   C234      1.0  0.74339  0.55081  0.33134  1.0000
  C   C235      1.0  0.76884  0.56789  0.32756  1.0000
  C   C236      1.0  0.77661  0.59328  0.32855  1.0000
  C   C237      1.0  0.75939  0.60155  0.33221  1.0000
  C   C238      1.0  0.73401  0.58389  0.33507  1.0000
  H   H114      1.0  0.79501  0.60587  0.32634  1.0000
  H   H115      1.0  0.72137  0.58966  0.33701  1.0000
  H   H116      1.0  0.73756  0.53238  0.33081  1.0000
  C   C239      1.0  0.83762  0.27983  0.33201  1.0000
  C   C240      1.0  0.81240  0.26205  0.32800  1.0000
  C   C241      1.0  0.80419  0.23663  0.32430  1.0000
  C   C242      1.0  0.82192  0.22902  0.32565  1.0000
  C   C243      1.0  0.84739  0.24635  0.32950  1.0000
  C   C244      1.0  0.85494  0.27169  0.33220  1.0000
  H   H117      1.0  0.81621  0.21063  0.32369  1.0000
  H   H118      1.0  0.87331  0.28443  0.33430  1.0000
  H   H119      1.0  0.79971  0.26777  0.32735  1.0000
  C   C245      1.0  0.12860  0.57807  0.34956  1.0000
  C   C246      1.0  0.14437  0.60369  0.33841  1.0000
  C   C247      1.0  0.13485  0.61977  0.32703  1.0000
  H   H120      1.0  0.16300  0.61071  0.33909  1.0000
  C   C248      1.0  0.42191  0.51050  0.33705  1.0000
  C   C249      1.0  0.43749  0.53606  0.34706  1.0000
  C   C250      1.0  0.42825  0.55245  0.34796  1.0000
  C   C251      1.0  0.40263  0.54267  0.33709  1.0000
  C   C252      1.0  0.38647  0.51706  0.32622  1.0000
  C   C253      1.0  0.39649  0.50129  0.32627  1.0000
  H   H121      1.0  0.39566  0.55433  0.33755  1.0000
  H   H122      1.0  0.38503  0.48265  0.32188  1.0000
  H   H123      1.0  0.45608  0.54291  0.35161  1.0000
  C   C254      1.0  0.49564  0.91253  0.33568  1.0000
  C   C255      1.0  0.47009  0.90252  0.34632  1.0000
  C   C256      1.0  0.45374  0.87688  0.34745  1.0000
  C   C257      1.0  0.46355  0.86107  0.33622  1.0000
  C   C258      1.0  0.48915  0.87057  0.32474  1.0000
  C   C259      1.0  0.50488  0.89637  0.32454  1.0000
  H   H124      1.0  0.45193  0.84244  0.33686  1.0000
  H   H125      1.0  0.52351  0.90358  0.31969  1.0000
  H   H126      1.0  0.46322  0.91424  0.35111  1.0000
  C   C260      1.0  0.58743  0.09286  0.33354  1.0000
  C   C261      1.0  0.57166  0.10267  0.32705  1.0000
  C   C262      1.0  0.58094  0.12828  0.32172  1.0000
  C   C263      1.0  0.60671  0.14421  0.32671  1.0000
  C   C264      1.0  0.62300  0.13480  0.33438  1.0000
  C   C265      1.0  0.61300  0.10901  0.33582  1.0000
  H   H127      1.0  0.61366  0.16282  0.32450  1.0000
  H   H128      1.0  0.62442  0.10178  0.33945  1.0000
  H   H129      1.0  0.55304  0.09085  0.32530  1.0000
  C   C266      1.0  0.51043  0.41870  0.33567  1.0000
  C   C267      1.0  0.53600  0.43450  0.32883  1.0000
  C   C268      1.0  0.55237  0.42526  0.32363  1.0000
  C   C269      1.0  0.54257  0.39950  0.32912  1.0000
  C   C270      1.0  0.51689  0.38318  0.33711  1.0000
  C   C271      1.0  0.50106  0.39315  0.33839  1.0000
  H   H130      1.0  0.55426  0.39259  0.32703  1.0000
  H   H131      1.0  0.48241  0.38170  0.34226  1.0000
  H   H132      1.0  0.54277  0.45311  0.32675  1.0000
  C   C272      1.0  0.91257  0.49494  0.33432  1.0000
  C   C273      1.0  0.90283  0.46938  0.32731  1.0000
  C   C274      1.0  0.87723  0.45300  0.32195  1.0000
  C   C275      1.0  0.86125  0.46276  0.32746  1.0000
  C   C276      1.0  0.87058  0.48843  0.33569  1.0000
  C   C277      1.0  0.89637  0.50428  0.33713  1.0000
  H   H133      1.0  0.84264  0.45106  0.32521  1.0000
  H   H134      1.0  0.90355  0.52293  0.34111  1.0000
  H   H135      1.0  0.91470  0.46264  0.32521  1.0000
  C   C278      1.0  0.95353  0.93603  0.36640  1.0000
  N   N23       1.0  0.93154  0.91475  0.36428  1.0000
  C   C279      1.0  0.86517  0.84753  0.36952  1.0000
  H   H136      1.0  0.96686  0.93686  0.40780  1.0000
  N   N24       1.0  0.88642  0.86953  0.36572  1.0000
  H   H137      1.0  0.86455  0.83438  0.41139  1.0000
  C   C280      1.0  0.15867  0.01873  0.37233  1.0000
  N   N25       1.0  0.13668  0.01799  0.36831  1.0000
  H   H138      1.0  0.17180  0.03124  0.41434  1.0000
  C   C281      1.0  0.14483  0.37812  0.35236  1.0000
  C   C282      1.0  0.12831  0.36897  0.42531  1.0000
  H   H139      1.0  0.12968  0.38088  0.47474  1.0000
  C   C283      1.0  0.75281  0.79670  0.35264  1.0000
  C   C284      1.0  0.70373  0.78725  0.35767  1.0000
  C   C285      1.0  0.71254  0.77868  0.42873  1.0000
  C   C286      1.0  0.73713  0.78370  0.42502  1.0000
  H   H140      1.0  0.74355  0.77701  0.47419  1.0000
  C   C287      1.0  0.67882  0.78139  0.35655  1.0000
  C   C288      1.0  0.62863  0.76819  0.34822  1.0000
  C   C289      1.0  0.63759  0.76039  0.42051  1.0000
  C   C290      1.0  0.66260  0.76684  0.42616  1.0000
  C   C291      1.0  0.67164  0.75880  0.49760  1.0000
  C   C292      1.0  0.69646  0.76471  0.49893  1.0000
  H   H141      1.0  0.62558  0.74968  0.46942  1.0000
  O   O35       1.0  0.65677  0.74550  0.56673  1.0000
  H   H142      1.0  0.64962  0.72811  0.54993  1.0000
  O   O36       1.0  0.70454  0.75680  0.56916  1.0000
  H   H143      1.0  0.70159  0.74039  0.55269  1.0000
  C   C293      1.0  0.20937  0.95709  0.35448  1.0000
  C   C294      1.0  0.21883  0.91749  0.35862  1.0000
  C   C295      1.0  0.22611  0.93395  0.43241  1.0000
  C   C296      1.0  0.22118  0.95358  0.42899  1.0000
  H   H144      1.0  0.22706  0.96614  0.48002  1.0000
  C   C297      1.0  0.22472  0.89846  0.35731  1.0000
  C   C298      1.0  0.23799  0.86156  0.34898  1.0000
  C   C299      1.0  0.24454  0.87737  0.42383  1.0000
  C   C300      1.0  0.23798  0.89585  0.42957  1.0000
  C   C301      1.0  0.24467  0.91196  0.50377  1.0000
  C   C302      1.0  0.23875  0.93088  0.50521  1.0000
  H   H145      1.0  0.25439  0.87541  0.47456  1.0000
  O   O37       1.0  0.25658  0.90938  0.57552  1.0000
  H   H146      1.0  0.27425  0.91985  0.56346  1.0000
  O   O38       1.0  0.24526  0.94586  0.57819  1.0000
  H   H147      1.0  0.26198  0.95948  0.56651  1.0000
  C   C303      1.0  0.27058  0.05263  0.41495  1.0000
  N   N26       1.0  0.29412  0.07142  0.41023  1.0000
  C   C304      1.0  0.36778  0.12589  0.40968  1.0000
  H   H148      1.0  0.26489  0.04241  0.47231  1.0000
  N   N27       1.0  0.34359  0.10854  0.40735  1.0000
  H   H149      1.0  0.37756  0.12776  0.46669  1.0000
  C   C305      1.0  0.78614  0.73524  0.41053  1.0000
  N   N28       1.0  0.78150  0.71174  0.40611  1.0000
  C   C306      1.0  0.76204  0.63808  0.40504  1.0000
  H   H150      1.0  0.78067  0.74062  0.46639  1.0000
  N   N29       1.0  0.76902  0.66230  0.40300  1.0000
  H   H151      1.0  0.75309  0.62804  0.46046  1.0000
  C   C307      1.0  0.95544  0.22136  0.40983  1.0000
  N   N30       1.0  0.93646  0.22580  0.40496  1.0000
  C   C308      1.0  0.88190  0.24475  0.40196  1.0000
  H   H152      1.0  0.96656  0.22742  0.46496  1.0000
  N   N31       1.0  0.89925  0.23791  0.40060  1.0000
  H   H153      1.0  0.88109  0.25426  0.45614  1.0000
  C   C309      1.0  0.24673  0.46487  0.39844  1.0000
  N   N32       1.0  0.27145  0.47569  0.39116  1.0000
  C   C310      1.0  0.34740  0.51233  0.38310  1.0000
  H   H154      1.0  0.23968  0.47063  0.44843  1.0000
  N   N33       1.0  0.32249  0.50003  0.38257  1.0000
  H   H155      1.0  0.35632  0.52482  0.43296  1.0000
  C   C311      1.0  0.54221  0.78371  0.39586  1.0000
  N   N34       1.0  0.53126  0.79750  0.38885  1.0000
  C   C312      1.0  0.49421  0.83643  0.38162  1.0000
  H   H156      1.0  0.53660  0.77096  0.44601  1.0000
  N   N35       1.0  0.50663  0.82394  0.38080  1.0000
  H   H157      1.0  0.48184  0.83289  0.43188  1.0000
  C   C313      1.0  0.22250  0.75963  0.39655  1.0000
  N   N36       1.0  0.20855  0.73490  0.38985  1.0000
  C   C314      1.0  0.16919  0.65894  0.38334  1.0000
  H   H158      1.0  0.23534  0.76674  0.44641  1.0000
  N   N37       1.0  0.18179  0.68385  0.38235  1.0000
  H   H159      1.0  0.17277  0.65009  0.43341  1.0000
  C   C315      1.0  0.44700  0.22774  0.32867  1.0000
  C   C316      1.0  0.47008  0.27943  0.33728  1.0000
  C   C317      1.0  0.45153  0.26508  0.40081  1.0000
  C   C318      1.0  0.44007  0.23915  0.39504  1.0000
  H   H160      1.0  0.42734  0.22844  0.44208  1.0000
  C   C319      1.0  0.48236  0.30535  0.34094  1.0000
  C   C320      1.0  0.50650  0.35718  0.34253  1.0000
  C   C321      1.0  0.48837  0.34324  0.40737  1.0000
  C   C322      1.0  0.47606  0.31726  0.40791  1.0000
  C   C323      1.0  0.45770  0.30300  0.47166  1.0000
  C   C324      1.0  0.44557  0.27706  0.46829  1.0000
  H   H161      1.0  0.48394  0.35221  0.45450  1.0000
  O   O39       1.0  0.45091  0.31387  0.53570  1.0000
  H   H162      1.0  0.46171  0.31666  0.58731  1.0000
  O   O40       1.0  0.42764  0.26392  0.52948  1.0000
  H   H163      1.0  0.43593  0.26149  0.58105  1.0000
  C   C325      1.0  0.78569  0.55897  0.32592  1.0000
  C   C326      1.0  0.81400  0.53560  0.33514  1.0000
  C   C327      1.0  0.81817  0.55408  0.39892  1.0000
  C   C328      1.0  0.80386  0.56571  0.39279  1.0000
  H   H164      1.0  0.80581  0.57836  0.44006  1.0000
  C   C329      1.0  0.82749  0.52317  0.33911  1.0000
  C   C330      1.0  0.85497  0.49882  0.34113  1.0000
  C   C331      1.0  0.85908  0.51685  0.40631  1.0000
  C   C332      1.0  0.84553  0.52926  0.40665  1.0000
  C   C333      1.0  0.84957  0.54754  0.47067  1.0000
  C   C334      1.0  0.83591  0.55982  0.46698  1.0000
  H   H165      1.0  0.87238  0.52115  0.45378  1.0000
  O   O41       1.0  0.86706  0.55414  0.53527  1.0000
  H   H166      1.0  0.85888  0.54325  0.58655  1.0000
  O   O42       1.0  0.84065  0.57767  0.52845  1.0000
  H   H167      1.0  0.82978  0.56935  0.57963  1.0000
  C   C335      1.0  0.77844  0.21967  0.32268  1.0000
  C   C336      1.0  0.72675  0.19127  0.33225  1.0000
  C   C337      1.0  0.74113  0.18718  0.39599  1.0000
  C   C338      1.0  0.76706  0.20152  0.38970  1.0000
  H   H168      1.0  0.77780  0.19964  0.43699  1.0000
  C   C339      1.0  0.70084  0.17778  0.33650  1.0000
  C   C340      1.0  0.64900  0.15036  0.33932  1.0000
  C   C341      1.0  0.66298  0.14626  0.40428  1.0000
  C   C342      1.0  0.68895  0.15980  0.40425  1.0000
  C   C343      1.0  0.70325  0.15581  0.46817  1.0000
  C   C344      1.0  0.72918  0.16947  0.46422  1.0000
  H   H169      1.0  0.65402  0.13300  0.45190  1.0000
  O   O43       1.0  0.69241  0.13837  0.53298  1.0000
  H   H170      1.0  0.68976  0.14660  0.58422  1.0000
  O   O44       1.0  0.74235  0.16480  0.52567  1.0000
  H   H171      1.0  0.74492  0.17570  0.57675  1.0000
  C   C345      1.0  0.16410  0.46483  0.34531  1.0000
  C   C346      1.0  0.15360  0.50347  0.35650  1.0000
  C   C347      1.0  0.14313  0.48417  0.42056  1.0000
  C   C348      1.0  0.14852  0.46488  0.41349  1.0000
  H   H172      1.0  0.14181  0.45119  0.46044  1.0000
  C   C349      1.0  0.14873  0.52308  0.36029  1.0000
  C   C350      1.0  0.13745  0.56126  0.35945  1.0000
  C   C351      1.0  0.12777  0.54286  0.42646  1.0000
  C   C352      1.0  0.13312  0.52352  0.42805  1.0000
  C   C353      1.0  0.12798  0.48497  0.48912  1.0000
  H   H173      1.0  0.12870  0.47156  0.60149  1.0000
  C   C354      1.0  0.54182  0.70103  0.34123  1.0000
  C   C355      1.0  0.50305  0.65196  0.35324  1.0000
  C   C356      1.0  0.52238  0.66080  0.41719  1.0000
  C   C357      1.0  0.54172  0.68545  0.40974  1.0000
  H   H174      1.0  0.55546  0.69245  0.45653  1.0000
  C   C358      1.0  0.48339  0.62751  0.35742  1.0000
  C   C359      1.0  0.44513  0.57809  0.35736  1.0000
  C   C360      1.0  0.46354  0.58685  0.42430  1.0000
  C   C361      1.0  0.48294  0.61151  0.42547  1.0000
  C   C362      1.0  0.50198  0.62040  0.49004  1.0000
  C   C363      1.0  0.52156  0.64493  0.48606  1.0000
  H   H175      1.0  0.46320  0.57482  0.47128  1.0000
  O   O45       1.0  0.50236  0.60535  0.55490  1.0000
  H   H176      1.0  0.49317  0.60665  0.60585  1.0000
  O   O46       1.0  0.53998  0.65262  0.54750  1.0000
  H   H177      1.0  0.53505  0.65919  0.59818  1.0000
  C   C364      1.0  0.30518  0.84196  0.34249  1.0000
  C   C365      1.0  0.35424  0.85221  0.35398  1.0000
  C   C366      1.0  0.34545  0.86271  0.41810  1.0000
  C   C367      1.0  0.32081  0.85744  0.41088  1.0000
  H   H178      1.0  0.31385  0.86418  0.45782  1.0000
  C   C368      1.0  0.37869  0.85698  0.35791  1.0000
  C   C369      1.0  0.42810  0.86809  0.35728  1.0000
  C   C370      1.0  0.41939  0.87777  0.42437  1.0000
  C   C371      1.0  0.39474  0.87250  0.42585  1.0000
  C   C372      1.0  0.38591  0.88268  0.49059  1.0000
  C   C373      1.0  0.36139  0.87776  0.48686  1.0000
  H   H179      1.0  0.43147  0.88944  0.47129  1.0000
  O   O47       1.0  0.40101  0.89812  0.55532  1.0000
  H   H180      1.0  0.39974  0.88763  0.60625  1.0000
  O   O48       1.0  0.35375  0.88850  0.54843  1.0000
  H   H181      1.0  0.34721  0.87702  0.59914  1.0000
  C   C374      1.0  0.48612  0.17158  0.39488  1.0000
  N   N38       1.0  0.50461  0.16652  0.38622  1.0000
  C   C375      1.0  0.56301  0.15313  0.37626  1.0000
  H   H182      1.0  0.48735  0.18335  0.44449  1.0000
  N   N39       1.0  0.54386  0.15741  0.37607  1.0000
  H   H183      1.0  0.57579  0.16064  0.42617  1.0000
  C   C376      1.0  0.69058  0.52018  0.39399  1.0000
  N   N40       1.0  0.66702  0.50170  0.38593  1.0000
  C   C377      1.0  0.59522  0.44329  0.37751  1.0000
  H   H184      1.0  0.70120  0.51901  0.44344  1.0000
  N   N41       1.0  0.61864  0.46245  0.37687  1.0000
  H   H185      1.0  0.59002  0.43060  0.42771  1.0000
  C   C378      1.0  0.83429  0.31482  0.39099  1.0000
  N   N42       1.0  0.83927  0.33836  0.38308  1.0000
  C   C379      1.0  0.85247  0.41010  0.37546  1.0000
  H   H186      1.0  0.82254  0.30416  0.44044  1.0000
  N   N43       1.0  0.84826  0.38670  0.37451  1.0000
  H   H187      1.0  0.84494  0.41524  0.42573  1.0000
  C   C380      1.0  0.95240  0.50838  0.40558  1.0000
  N   N44       1.0  0.97719  0.52196  0.40304  1.0000
  H   H188      1.0  0.94426  0.49622  0.45705  1.0000
  C   C381      1.0  0.44808  0.49636  0.40675  1.0000
  N   N45       1.0  0.45884  0.48237  0.40392  1.0000
  C   C382      1.0  0.49720  0.44532  0.40641  1.0000
  H   H189      1.0  0.45220  0.50829  0.45901  1.0000
  N   N46       1.0  0.48372  0.45663  0.40363  1.0000
  H   H190      1.0  0.50943  0.44942  0.45768  1.0000
  C   C383      1.0  0.50989  0.95287  0.40537  1.0000
  N   N47       1.0  0.52387  0.97762  0.40238  1.0000
  C   C384      1.0  0.56094  0.05304  0.40467  1.0000
  H   H191      1.0  0.49808  0.94506  0.45801  1.0000
  N   N48       1.0  0.54961  0.02824  0.40191  1.0000
  H   H192      1.0  0.55697  0.06119  0.45622  1.0000
