data_image0
_chemical_formula_structural       CNC4H2CH3CNC4H2CH3CNC4H2CH3CNC4H2CH3C4HCNHCH3C4HCNHCH3C4HCNHCH3C4HCNHCH3C4HCNHCH3C4HCNHCH3C4HCNHCH3C4HCNHCH3CNC4H2CH3CNC4H2CH3CNC4H2CH3CNC4H2CH3CNC4H2CH3CNC4H2CH3CNC4H2CH3CNC4H2CH3C4HCNHCH3C4HCNHCH3C4HCNHCH3C4HCNHCH3C4HCNHCH3C4HCNHCH3C4HCNHCH3C4HCNHCH3C4HCNHCH3C4HCNHCH3C6H3C6H3C6H3C6H3C6H3C6H3C6H3C6H3C6H3C6H3C6H3C6H3C6H3C6H3C6H3C6H3C6H3C6H3C6H3C6H3C4HCNHCH3C4HCNHCH3C4HCNHCH3C4HCNHCH3CNC4H2CH3CNC4H2CH3CNC4H2CH3CNC4H2CH3CNC4H2CH3CNC4H2CH3CNC4H2CH3CNC4H2CH3C4HCNHCH3C4HCNHCH3C4HCNHCH3C4HCNHCH3C4HCNHCH3C4HCNHCH3C4HCNHCH3C4HCNHCH3CNC4H2CH3CNC4H2CH3CNC4H2CH3CNC4H2CH3CNC4H2CH3CNC4H2CH3CNC4H2CH3CNC4H2CH3CNC4H2CH3CNC4H2CH3
_chemical_formula_sum              "C480 N60 H360"
_cell_length_a       66.339
_cell_length_b       66.339
_cell_length_c       14.8268
_cell_angle_alpha    90
_cell_angle_beta     90
_cell_angle_gamma    90

_space_group_name_H-M_alt    "P 1"
_space_group_IT_number       1

loop_
  _space_group_symop_operation_xyz
  'x, y, z'

loop_
  _atom_site_type_symbol
  _atom_site_label
  _atom_site_symmetry_multiplicity
  _atom_site_fract_x
  _atom_site_fract_y
  _atom_site_fract_z
  _atom_site_occupancy
  C   C1        1.0  0.38782  0.04905  0.27912  1.0000
  N   N1        1.0  0.36791  0.04447  0.27861  1.0000
  C   C2        1.0  0.33402  0.04679  0.32756  1.0000
  C   C3        1.0  0.32150  0.05563  0.26072  1.0000
  C   C4        1.0  0.30082  0.05039  0.26095  1.0000
  C   C5        1.0  0.29270  0.03676  0.32483  1.0000
  H   H1        1.0  0.29145  0.05671  0.21399  1.0000
  H   H2        1.0  0.39684  0.04289  0.23053  1.0000
  C   C6        1.0  0.32937  0.07048  0.19436  1.0000
  H   H3        1.0  0.33581  0.08339  0.22976  1.0000
  H   H4        1.0  0.31765  0.07609  0.14912  1.0000
  H   H5        1.0  0.34105  0.06348  0.15311  1.0000
  C   C7        1.0  0.62407  0.96125  0.27699  1.0000
  N   N2        1.0  0.64398  0.96584  0.27722  1.0000
  C   C8        1.0  0.67763  0.96432  0.32993  1.0000
  C   C9        1.0  0.69022  0.95522  0.26402  1.0000
  C   C10       1.0  0.71088  0.96048  0.26408  1.0000
  C   C11       1.0  0.71897  0.97437  0.32691  1.0000
  H   H6        1.0  0.72028  0.95399  0.21767  1.0000
  H   H7        1.0  0.61526  0.96671  0.22600  1.0000
  C   C12       1.0  0.68245  0.94002  0.19895  1.0000
  H   H8        1.0  0.67589  0.92734  0.23546  1.0000
  H   H9        1.0  0.69425  0.93413  0.15487  1.0000
  H   H10       1.0  0.67089  0.94683  0.15637  1.0000
  C   C13       1.0  0.96253  0.38761  0.27907  1.0000
  N   N3        1.0  0.96710  0.36770  0.27858  1.0000
  C   C14       1.0  0.96477  0.33382  0.32757  1.0000
  C   C15       1.0  0.95591  0.32129  0.26077  1.0000
  C   C16       1.0  0.96113  0.30062  0.26099  1.0000
  C   C17       1.0  0.97476  0.29248  0.32483  1.0000
  H   H11       1.0  0.95480  0.29124  0.21404  1.0000
  H   H12       1.0  0.96870  0.39662  0.23044  1.0000
  C   C18       1.0  0.94105  0.32917  0.19445  1.0000
  H   H13       1.0  0.92815  0.33562  0.22988  1.0000
  H   H14       1.0  0.93543  0.31745  0.14923  1.0000
  H   H15       1.0  0.94805  0.34085  0.15316  1.0000
  C   C19       1.0  0.05031  0.62386  0.27706  1.0000
  N   N4        1.0  0.04571  0.64376  0.27726  1.0000
  C   C20       1.0  0.04723  0.67742  0.32986  1.0000
  C   C21       1.0  0.05631  0.69000  0.26387  1.0000
  C   C22       1.0  0.05103  0.71067  0.26393  1.0000
  C   C23       1.0  0.03715  0.71875  0.32682  1.0000
  H   H16       1.0  0.05751  0.72007  0.21749  1.0000
  H   H17       1.0  0.04483  0.61503  0.22616  1.0000
  C   C24       1.0  0.07149  0.68224  0.19872  1.0000
  H   H18       1.0  0.08419  0.67570  0.23518  1.0000
  H   H19       1.0  0.07735  0.69404  0.15459  1.0000
  H   H20       1.0  0.06468  0.67067  0.15623  1.0000
  C   C25       1.0  0.11531  0.56292  0.35193  1.0000
  C   C26       1.0  0.15648  0.55227  0.35449  1.0000
  C   C27       1.0  0.14949  0.56563  0.28650  1.0000
  C   C28       1.0  0.12879  0.57078  0.28685  1.0000
  H   H21       1.0  0.12339  0.58039  0.23851  1.0000
  C   C29       1.0  0.20499  0.52891  0.30472  1.0000
  N   N5        1.0  0.18522  0.53412  0.30521  1.0000
  H   H22       1.0  0.20999  0.51932  0.25566  1.0000
  C   C30       1.0  0.16329  0.57457  0.21830  1.0000
  H   H23       1.0  0.17521  0.58303  0.25208  1.0000
  H   H24       1.0  0.15553  0.58483  0.17237  1.0000
  H   H25       1.0  0.17009  0.56262  0.17794  1.0000
  C   C31       1.0  0.89631  0.44816  0.35181  1.0000
  C   C32       1.0  0.85515  0.45883  0.35559  1.0000
  C   C33       1.0  0.86198  0.44522  0.28825  1.0000
  C   C34       1.0  0.88268  0.44005  0.28800  1.0000
  H   H26       1.0  0.88796  0.43030  0.24004  1.0000
  C   C35       1.0  0.80669  0.48232  0.30612  1.0000
  N   N6        1.0  0.82643  0.47703  0.30640  1.0000
  H   H27       1.0  0.80167  0.49186  0.25685  1.0000
  C   C36       1.0  0.84803  0.43608  0.22124  1.0000
  H   H28       1.0  0.83617  0.42774  0.25607  1.0000
  H   H29       1.0  0.85567  0.42566  0.17564  1.0000
  H   H30       1.0  0.84114  0.44791  0.18041  1.0000
  C   C37       1.0  0.56311  0.89631  0.35183  1.0000
  C   C38       1.0  0.55246  0.85514  0.35436  1.0000
  C   C39       1.0  0.56581  0.86214  0.28631  1.0000
  C   C40       1.0  0.57096  0.88284  0.28669  1.0000
  H   H31       1.0  0.58055  0.88825  0.23833  1.0000
  C   C41       1.0  0.52911  0.80663  0.30460  1.0000
  N   N7        1.0  0.53432  0.82639  0.30508  1.0000
  H   H32       1.0  0.51951  0.80162  0.25556  1.0000
  C   C42       1.0  0.57473  0.84835  0.21805  1.0000
  H   H33       1.0  0.58320  0.83643  0.25176  1.0000
  H   H34       1.0  0.58498  0.85612  0.17209  1.0000
  H   H35       1.0  0.56277  0.84155  0.17772  1.0000
  C   C43       1.0  0.44834  0.11532  0.35188  1.0000
  C   C44       1.0  0.45900  0.15648  0.35568  1.0000
  C   C45       1.0  0.44538  0.14965  0.28837  1.0000
  C   C46       1.0  0.44022  0.12895  0.28812  1.0000
  H   H36       1.0  0.43046  0.12366  0.24017  1.0000
  C   C47       1.0  0.48250  0.20493  0.30620  1.0000
  N   N8        1.0  0.47720  0.18519  0.30649  1.0000
  H   H37       1.0  0.49203  0.20995  0.25694  1.0000
  C   C48       1.0  0.43623  0.16360  0.22141  1.0000
  H   H38       1.0  0.42789  0.17545  0.25629  1.0000
  H   H39       1.0  0.42580  0.15595  0.17584  1.0000
  H   H40       1.0  0.44804  0.17049  0.18056  1.0000
  C   C49       1.0  0.22367  0.06261  0.32626  1.0000
  C   C50       1.0  0.20581  0.10159  0.33112  1.0000
  C   C51       1.0  0.21515  0.09480  0.25014  1.0000
  C   C52       1.0  0.22409  0.07537  0.24982  1.0000
  H   H41       1.0  0.23184  0.07069  0.19389  1.0000
  C   C53       1.0  0.17592  0.14729  0.28735  1.0000
  N   N9        1.0  0.18352  0.12827  0.28724  1.0000
  H   H42       1.0  0.16502  0.15085  0.24132  1.0000
  C   C54       1.0  0.21713  0.10794  0.16930  1.0000
  H   H43       1.0  0.22477  0.12194  0.18743  1.0000
  H   H44       1.0  0.20222  0.11149  0.14264  1.0000
  H   H45       1.0  0.22575  0.10083  0.11522  1.0000
  C   C55       1.0  0.78809  0.94873  0.32764  1.0000
  C   C56       1.0  0.80597  0.90975  0.33222  1.0000
  C   C57       1.0  0.79669  0.91660  0.25119  1.0000
  C   C58       1.0  0.78774  0.93602  0.25101  1.0000
  H   H46       1.0  0.78002  0.94074  0.19504  1.0000
  C   C59       1.0  0.83588  0.86407  0.28818  1.0000
  N   N10       1.0  0.82826  0.88309  0.28818  1.0000
  H   H47       1.0  0.84678  0.86054  0.24213  1.0000
  C   C60       1.0  0.79479  0.90352  0.17011  1.0000
  H   H48       1.0  0.78714  0.88950  0.18792  1.0000
  H   H49       1.0  0.80972  0.90001  0.14363  1.0000
  H   H50       1.0  0.78620  0.91066  0.11601  1.0000
  C   C61       1.0  0.94892  0.22344  0.32616  1.0000
  C   C62       1.0  0.90995  0.20556  0.33107  1.0000
  C   C63       1.0  0.91671  0.21494  0.25014  1.0000
  C   C64       1.0  0.93613  0.22389  0.24980  1.0000
  H   H51       1.0  0.94080  0.23167  0.19391  1.0000
  C   C65       1.0  0.86425  0.17566  0.28731  1.0000
  N   N11       1.0  0.88327  0.18327  0.28717  1.0000
  H   H52       1.0  0.86069  0.16478  0.24123  1.0000
  C   C66       1.0  0.90355  0.21694  0.16938  1.0000
  H   H53       1.0  0.88956  0.22457  0.18766  1.0000
  H   H54       1.0  0.90000  0.20204  0.14263  1.0000
  H   H55       1.0  0.91064  0.22559  0.11534  1.0000
  C   C67       1.0  0.06282  0.78786  0.32773  1.0000
  C   C68       1.0  0.10179  0.80572  0.33224  1.0000
  C   C69       1.0  0.09494  0.79644  0.25122  1.0000
  C   C70       1.0  0.07551  0.78750  0.25105  1.0000
  H   H56       1.0  0.07079  0.77978  0.19510  1.0000
  C   C71       1.0  0.14747  0.83562  0.28817  1.0000
  N   N12       1.0  0.12845  0.82801  0.28820  1.0000
  H   H57       1.0  0.15100  0.84653  0.24215  1.0000
  C   C72       1.0  0.10801  0.79453  0.17014  1.0000
  H   H58       1.0  0.12203  0.78688  0.18795  1.0000
  H   H59       1.0  0.11153  0.80946  0.14365  1.0000
  H   H60       1.0  0.10087  0.78595  0.11605  1.0000
  C   C73       1.0  0.29768  0.57119  0.28893  1.0000
  N   N13       1.0  0.30585  0.59000  0.28940  1.0000
  C   C74       1.0  0.31315  0.62277  0.34969  1.0000
  C   C75       1.0  0.30484  0.63695  0.28791  1.0000
  C   C76       1.0  0.31258  0.65689  0.28822  1.0000
  C   C77       1.0  0.32825  0.66305  0.34701  1.0000
  H   H61       1.0  0.30671  0.66720  0.24412  1.0000
  H   H62       1.0  0.29778  0.56314  0.23017  1.0000
  C   C78       1.0  0.28786  0.63169  0.22675  1.0000
  H   H63       1.0  0.27514  0.62604  0.26608  1.0000
  H   H64       1.0  0.29263  0.62007  0.17928  1.0000
  H   H65       1.0  0.28257  0.64458  0.18754  1.0000
  C   C79       1.0  0.71406  0.44021  0.29092  1.0000
  N   N14       1.0  0.70592  0.42138  0.29131  1.0000
  C   C80       1.0  0.69864  0.38860  0.35151  1.0000
  C   C81       1.0  0.70696  0.37445  0.28964  1.0000
  C   C82       1.0  0.69924  0.35450  0.28985  1.0000
  C   C83       1.0  0.68358  0.34832  0.34865  1.0000
  H   H66       1.0  0.70511  0.34420  0.24568  1.0000
  H   H67       1.0  0.71396  0.44825  0.23215  1.0000
  C   C84       1.0  0.72393  0.37974  0.22846  1.0000
  H   H68       1.0  0.73664  0.38539  0.26778  1.0000
  H   H69       1.0  0.71914  0.39136  0.18105  1.0000
  H   H70       1.0  0.72923  0.36686  0.18919  1.0000
  C   C85       1.0  0.57144  0.71400  0.28902  1.0000
  N   N15       1.0  0.59025  0.70585  0.28956  1.0000
  C   C86       1.0  0.62299  0.69851  0.35008  1.0000
  C   C87       1.0  0.63718  0.70681  0.28830  1.0000
  C   C88       1.0  0.65712  0.69906  0.28870  1.0000
  C   C89       1.0  0.66327  0.68340  0.34757  1.0000
  H   H71       1.0  0.66744  0.70492  0.24461  1.0000
  H   H72       1.0  0.56342  0.71393  0.23017  1.0000
  C   C90       1.0  0.63193  0.72378  0.22706  1.0000
  H   H73       1.0  0.62628  0.73650  0.26631  1.0000
  H   H74       1.0  0.62033  0.71899  0.17953  1.0000
  H   H75       1.0  0.64484  0.72906  0.18790  1.0000
  C   C91       1.0  0.44041  0.29754  0.29072  1.0000
  N   N16       1.0  0.42158  0.30568  0.29101  1.0000
  C   C92       1.0  0.38880  0.31298  0.35112  1.0000
  C   C93       1.0  0.37465  0.30463  0.28930  1.0000
  C   C94       1.0  0.35470  0.31237  0.28942  1.0000
  C   C95       1.0  0.34852  0.32805  0.34806  1.0000
  H   H76       1.0  0.34441  0.30647  0.24529  1.0000
  H   H77       1.0  0.44846  0.29762  0.23196  1.0000
  C   C96       1.0  0.37995  0.28764  0.22830  1.0000
  H   H78       1.0  0.38559  0.27494  0.26775  1.0000
  H   H79       1.0  0.39157  0.29241  0.18085  1.0000
  H   H80       1.0  0.36707  0.28232  0.18906  1.0000
  C   C97       1.0  0.20461  0.89671  0.28351  1.0000
  N   N17       1.0  0.20944  0.91662  0.28442  1.0000
  C   C98       1.0  0.22622  0.94627  0.33668  1.0000
  C   C99       1.0  0.23959  0.95339  0.26885  1.0000
  C   C100      1.0  0.24446  0.97420  0.26805  1.0000
  C   C101      1.0  0.23642  0.98798  0.33166  1.0000
  H   H81       1.0  0.25428  0.97946  0.22028  1.0000
  H   H82       1.0  0.19568  0.89145  0.23253  1.0000
  C   C102      1.0  0.24909  0.93954  0.20236  1.0000
  H   H83       1.0  0.25756  0.92786  0.23767  1.0000
  H   H84       1.0  0.25946  0.94732  0.15699  1.0000
  H   H85       1.0  0.23746  0.93243  0.16116  1.0000
  C   C103      1.0  0.80684  0.11461  0.28273  1.0000
  N   N18       1.0  0.80199  0.09470  0.28382  1.0000
  C   C104      1.0  0.78540  0.06504  0.33712  1.0000
  C   C105      1.0  0.77186  0.05792  0.26992  1.0000
  C   C106      1.0  0.76698  0.03711  0.26933  1.0000
  C   C107      1.0  0.77516  0.02333  0.33256  1.0000
  H   H86       1.0  0.75706  0.03186  0.22197  1.0000
  H   H87       1.0  0.81559  0.11989  0.23114  1.0000
  C   C108      1.0  0.76221  0.07178  0.20391  1.0000
  H   H88       1.0  0.75384  0.08347  0.23963  1.0000
  H   H89       1.0  0.75171  0.06401  0.15909  1.0000
  H   H90       1.0  0.77374  0.07887  0.16210  1.0000
  C   C109      1.0  0.11482  0.20441  0.28320  1.0000
  N   N19       1.0  0.09491  0.20924  0.28414  1.0000
  C   C110      1.0  0.06527  0.22601  0.33645  1.0000
  C   C111      1.0  0.05813  0.23939  0.26866  1.0000
  C   C112      1.0  0.03732  0.24426  0.26791  1.0000
  C   C113      1.0  0.02355  0.23621  0.33154  1.0000
  H   H91       1.0  0.03206  0.25408  0.22016  1.0000
  H   H92       1.0  0.12008  0.19548  0.23222  1.0000
  C   C114      1.0  0.07197  0.24890  0.20217  1.0000
  H   H93       1.0  0.08366  0.25738  0.23747  1.0000
  H   H94       1.0  0.06419  0.25928  0.15683  1.0000
  H   H95       1.0  0.07909  0.23728  0.16095  1.0000
  C   C115      1.0  0.89692  0.80662  0.28292  1.0000
  N   N20       1.0  0.91682  0.80177  0.28398  1.0000
  C   C116      1.0  0.94650  0.78520  0.33733  1.0000
  C   C117      1.0  0.95361  0.77167  0.27007  1.0000
  C   C118      1.0  0.97442  0.76679  0.26943  1.0000
  C   C119      1.0  0.98821  0.77496  0.33260  1.0000
  H   H96       1.0  0.97966  0.75687  0.22202  1.0000
  H   H97       1.0  0.89162  0.81533  0.23126  1.0000
  C   C120      1.0  0.93974  0.76203  0.20408  1.0000
  H   H98       1.0  0.92804  0.75366  0.23982  1.0000
  H   H99       1.0  0.94750  0.75152  0.15926  1.0000
  H   H100      1.0  0.93265  0.77355  0.16228  1.0000
  C   C121      1.0  0.29924  0.38471  0.34091  1.0000
  C   C122      1.0  0.29045  0.42675  0.34209  1.0000
  C   C123      1.0  0.28187  0.41430  0.27402  1.0000
  C   C124      1.0  0.28637  0.39337  0.27528  1.0000
  H   H101      1.0  0.28025  0.38421  0.22696  1.0000
  C   C125      1.0  0.28864  0.48125  0.29479  1.0000
  N   N21       1.0  0.29301  0.46119  0.29354  1.0000
  H   H102      1.0  0.29458  0.49025  0.24556  1.0000
  C   C126      1.0  0.26802  0.42261  0.20454  1.0000
  H   H103      1.0  0.25501  0.42957  0.23711  1.0000
  H   H104      1.0  0.26246  0.41105  0.15839  1.0000
  H   H105      1.0  0.27588  0.43397  0.16458  1.0000
  C   C127      1.0  0.71253  0.62672  0.34144  1.0000
  C   C128      1.0  0.72133  0.58468  0.34310  1.0000
  C   C129      1.0  0.72995  0.59710  0.27504  1.0000
  C   C130      1.0  0.72544  0.61803  0.27607  1.0000
  H   H106      1.0  0.73160  0.62716  0.22776  1.0000
  C   C131      1.0  0.72310  0.53015  0.29631  1.0000
  N   N22       1.0  0.71874  0.55021  0.29490  1.0000
  H   H107      1.0  0.71715  0.52113  0.24720  1.0000
  C   C132      1.0  0.74384  0.58875  0.20583  1.0000
  H   H108      1.0  0.75683  0.58181  0.23864  1.0000
  H   H109      1.0  0.74943  0.60029  0.15964  1.0000
  H   H110      1.0  0.73602  0.57737  0.16588  1.0000
  C   C133      1.0  0.38490  0.71233  0.34040  1.0000
  C   C134      1.0  0.42694  0.72115  0.34175  1.0000
  C   C135      1.0  0.41449  0.72974  0.27368  1.0000
  C   C136      1.0  0.39357  0.72522  0.27486  1.0000
  H   H111      1.0  0.38441  0.73136  0.22654  1.0000
  C   C137      1.0  0.48145  0.72295  0.29472  1.0000
  N   N23       1.0  0.46140  0.71858  0.29341  1.0000
  H   H112      1.0  0.49046  0.71699  0.24561  1.0000
  C   C138      1.0  0.42281  0.74361  0.20429  1.0000
  H   H113      1.0  0.42975  0.75662  0.23694  1.0000
  H   H114      1.0  0.41126  0.74917  0.15811  1.0000
  H   H115      1.0  0.43419  0.73577  0.16435  1.0000
  C   C139      1.0  0.62692  0.29905  0.34198  1.0000
  C   C140      1.0  0.58488  0.29026  0.34347  1.0000
  C   C141      1.0  0.59730  0.28166  0.27537  1.0000
  C   C142      1.0  0.61823  0.28616  0.27648  1.0000
  H   H116      1.0  0.62737  0.28002  0.22814  1.0000
  C   C143      1.0  0.53036  0.28850  0.29646  1.0000
  N   N24       1.0  0.55042  0.29285  0.29511  1.0000
  H   H117      1.0  0.52135  0.29444  0.24729  1.0000
  C   C144      1.0  0.58896  0.26780  0.20603  1.0000
  H   H118      1.0  0.58200  0.25480  0.23871  1.0000
  H   H119      1.0  0.60050  0.26222  0.15984  1.0000
  H   H120      1.0  0.57759  0.27564  0.16609  1.0000
  C   C145      1.0  0.27525  0.31365  0.34465  1.0000
  C   C146      1.0  0.24475  0.28293  0.34403  1.0000
  C   C147      1.0  0.24601  0.29701  0.27098  1.0000
  C   C148      1.0  0.26118  0.31219  0.27338  1.0000
  H   H121      1.0  0.26251  0.32206  0.22060  1.0000
  C   C149      1.0  0.19724  0.25421  0.31261  1.0000
  N   N25       1.0  0.21210  0.26830  0.31314  1.0000
  H   H122      1.0  0.18429  0.25745  0.27832  1.0000
  C   C150      1.0  0.23277  0.29590  0.19009  1.0000
  H   H123      1.0  0.23337  0.28079  0.16115  1.0000
  H   H124      1.0  0.23719  0.30649  0.13723  1.0000
  H   H125      1.0  0.21728  0.29946  0.20889  1.0000
  C   C151      1.0  0.73653  0.69776  0.34479  1.0000
  C   C152      1.0  0.76704  0.72846  0.34436  1.0000
  C   C153      1.0  0.76567  0.71450  0.27088  1.0000
  C   C154      1.0  0.75050  0.69932  0.27319  1.0000
  H   H126      1.0  0.74909  0.68954  0.22013  1.0000
  C   C155      1.0  0.81455  0.75716  0.31300  1.0000
  N   N26       1.0  0.79968  0.74308  0.31344  1.0000
  H   H127      1.0  0.82749  0.75394  0.27861  1.0000
  C   C156      1.0  0.77880  0.71575  0.18965  1.0000
  H   H128      1.0  0.77817  0.73092  0.16128  1.0000
  H   H129      1.0  0.77430  0.70527  0.13653  1.0000
  H   H130      1.0  0.79431  0.71216  0.20787  1.0000
  C   C157      1.0  0.69797  0.27505  0.34521  1.0000
  C   C158      1.0  0.72867  0.24453  0.34453  1.0000
  C   C159      1.0  0.71463  0.24585  0.27133  1.0000
  C   C160      1.0  0.69945  0.26103  0.27377  1.0000
  H   H131      1.0  0.68962  0.26240  0.22091  1.0000
  C   C161      1.0  0.75735  0.19700  0.31302  1.0000
  N   N27       1.0  0.74327  0.21188  0.31356  1.0000
  H   H132      1.0  0.75410  0.18406  0.27871  1.0000
  C   C162      1.0  0.71578  0.23267  0.19027  1.0000
  H   H133      1.0  0.73092  0.23328  0.16154  1.0000
  H   H134      1.0  0.70524  0.23713  0.13733  1.0000
  H   H135      1.0  0.71221  0.21717  0.20880  1.0000
  C   C163      1.0  0.31385  0.73631  0.34421  1.0000
  C   C164      1.0  0.28313  0.76681  0.34386  1.0000
  C   C165      1.0  0.29716  0.76552  0.27059  1.0000
  C   C166      1.0  0.31234  0.75035  0.27286  1.0000
  H   H136      1.0  0.32216  0.74900  0.21994  1.0000
  C   C167      1.0  0.25439  0.81431  0.31262  1.0000
  N   N28       1.0  0.26849  0.79944  0.31304  1.0000
  H   H137      1.0  0.25761  0.82725  0.27826  1.0000
  C   C168      1.0  0.29598  0.77873  0.18962  1.0000
  H   H138      1.0  0.28084  0.77812  0.16093  1.0000
  H   H139      1.0  0.30652  0.77429  0.13661  1.0000
  H   H140      1.0  0.29955  0.79422  0.20823  1.0000
  C   C169      1.0  0.46732  0.04353  0.34425  1.0000
  C   C170      1.0  0.49814  0.01393  0.34037  1.0000
  C   C171      1.0  0.48488  0.01590  0.26486  1.0000
  C   C172      1.0  0.46951  0.03073  0.26890  1.0000
  H   H141      1.0  0.45998  0.03260  0.21521  1.0000
  C   C173      1.0  0.52520  0.96615  0.31013  1.0000
  N   N29       1.0  0.51153  0.98127  0.31049  1.0000
  H   H142      1.0  0.52149  0.95316  0.27716  1.0000
  C   C174      1.0  0.48695  0.00380  0.18080  1.0000
  H   H143      1.0  0.50242  0.00463  0.15603  1.0000
  H   H144      1.0  0.47710  0.00908  0.12668  1.0000
  H   H145      1.0  0.48305  0.98812  0.19418  1.0000
  C   C175      1.0  0.96810  0.46711  0.34422  1.0000
  C   C176      1.0  0.99770  0.49793  0.34039  1.0000
  C   C177      1.0  0.99573  0.48468  0.26487  1.0000
  C   C178      1.0  0.98090  0.46931  0.26888  1.0000
  H   H146      1.0  0.97903  0.45978  0.21518  1.0000
  C   C179      1.0  0.04548  0.52500  0.31018  1.0000
  N   N30       1.0  0.03036  0.51133  0.31053  1.0000
  H   H147      1.0  0.05847  0.52129  0.27722  1.0000
  C   C180      1.0  0.00784  0.48675  0.18082  1.0000
  H   H148      1.0  0.00701  0.50222  0.15605  1.0000
  H   H149      1.0  0.00256  0.47690  0.12669  1.0000
  H   H150      1.0  0.02352  0.48285  0.19420  1.0000
  C   C181      1.0  0.27158  0.03270  0.32835  1.0000
  C   C182      1.0  0.25760  0.04874  0.32742  1.0000
  C   C183      1.0  0.23657  0.04538  0.33077  1.0000
  C   C184      1.0  0.22951  0.02521  0.33555  1.0000
  C   C185      1.0  0.24307  0.00860  0.33409  1.0000
  C   C186      1.0  0.26404  0.01280  0.33205  1.0000
  H   H151      1.0  0.21430  0.02260  0.33560  1.0000
  H   H152      1.0  0.27410  0.00109  0.33175  1.0000
  H   H153      1.0  0.26287  0.06326  0.32578  1.0000
  C   C187      1.0  0.74009  0.97850  0.33018  1.0000
  C   C188      1.0  0.75413  0.96250  0.32933  1.0000
  C   C189      1.0  0.77514  0.96592  0.33225  1.0000
  C   C190      1.0  0.78216  0.98611  0.33671  1.0000
  C   C191      1.0  0.76855  0.00268  0.33518  1.0000
  C   C192      1.0  0.74759  0.99843  0.33344  1.0000
  H   H154      1.0  0.79736  0.98876  0.33631  1.0000
  H   H155      1.0  0.73750  0.01011  0.33309  1.0000
  H   H156      1.0  0.74891  0.94796  0.32801  1.0000
  C   C193      1.0  0.97882  0.27136  0.32831  1.0000
  C   C194      1.0  0.96279  0.25738  0.32731  1.0000
  C   C195      1.0  0.96615  0.23635  0.33068  1.0000
  C   C196      1.0  0.98632  0.22929  0.33557  1.0000
  C   C197      1.0  0.00292  0.24285  0.33399  1.0000
  C   C198      1.0  0.99873  0.26382  0.33199  1.0000
  H   H157      1.0  0.98894  0.21409  0.33545  1.0000
  H   H158      1.0  0.01044  0.27389  0.33168  1.0000
  H   H159      1.0  0.94827  0.26264  0.32572  1.0000
  C   C199      1.0  0.03303  0.73987  0.33013  1.0000
  C   C200      1.0  0.04902  0.75390  0.32929  1.0000
  C   C201      1.0  0.04562  0.77492  0.33229  1.0000
  C   C202      1.0  0.02543  0.78194  0.33672  1.0000
  C   C203      1.0  0.00885  0.76834  0.33519  1.0000
  C   C204      1.0  0.01310  0.74738  0.33342  1.0000
  H   H160      1.0  0.02279  0.79714  0.33644  1.0000
  H   H161      1.0  0.00141  0.73729  0.33308  1.0000
  H   H162      1.0  0.06357  0.74868  0.32802  1.0000
  C   C205      1.0  0.23964  0.53371  0.36344  1.0000
  C   C206      1.0  0.25354  0.54983  0.36459  1.0000
  C   C207      1.0  0.27458  0.54661  0.36090  1.0000
  C   C208      1.0  0.28176  0.52648  0.35559  1.0000
  C   C209      1.0  0.26831  0.50979  0.35701  1.0000
  C   C210      1.0  0.24731  0.51385  0.35937  1.0000
  H   H163      1.0  0.29698  0.52396  0.35543  1.0000
  H   H164      1.0  0.23733  0.50208  0.35961  1.0000
  H   H165      1.0  0.24818  0.56431  0.36645  1.0000
  C   C211      1.0  0.77207  0.47768  0.36537  1.0000
  C   C212      1.0  0.75816  0.46158  0.36663  1.0000
  C   C213      1.0  0.73711  0.46481  0.36293  1.0000
  C   C214      1.0  0.72995  0.48495  0.35754  1.0000
  C   C215      1.0  0.74343  0.50163  0.35877  1.0000
  C   C216      1.0  0.76442  0.49754  0.36114  1.0000
  H   H166      1.0  0.71474  0.48749  0.35724  1.0000
  H   H167      1.0  0.77441  0.50931  0.36124  1.0000
  H   H168      1.0  0.76350  0.44709  0.36860  1.0000
  C   C217      1.0  0.53391  0.77197  0.36334  1.0000
  C   C218      1.0  0.55002  0.75807  0.36457  1.0000
  C   C219      1.0  0.54679  0.73702  0.36100  1.0000
  C   C220      1.0  0.52666  0.72985  0.35570  1.0000
  C   C221      1.0  0.50997  0.74332  0.35694  1.0000
  C   C222      1.0  0.51405  0.76431  0.35925  1.0000
  H   H169      1.0  0.52413  0.71464  0.35549  1.0000
  H   H170      1.0  0.50228  0.77430  0.35940  1.0000
  H   H171      1.0  0.56451  0.76342  0.36647  1.0000
  C   C223      1.0  0.47787  0.23955  0.36546  1.0000
  C   C224      1.0  0.46176  0.25347  0.36666  1.0000
  C   C225      1.0  0.46500  0.27451  0.36295  1.0000
  C   C226      1.0  0.48514  0.28167  0.35756  1.0000
  C   C227      1.0  0.50182  0.26819  0.35887  1.0000
  C   C228      1.0  0.49773  0.24720  0.36129  1.0000
  H   H172      1.0  0.48768  0.29688  0.35723  1.0000
  H   H173      1.0  0.50949  0.23720  0.36141  1.0000
  H   H174      1.0  0.44727  0.24813  0.36860  1.0000
  C   C229      1.0  0.18506  0.21938  0.35170  1.0000
  C   C230      1.0  0.19091  0.19881  0.34740  1.0000
  C   C231      1.0  0.17690  0.18268  0.34507  1.0000
  C   C232      1.0  0.15614  0.18764  0.34338  1.0000
  C   C233      1.0  0.14931  0.20787  0.34767  1.0000
  C   C234      1.0  0.16401  0.22340  0.35258  1.0000
  H   H175      1.0  0.14574  0.17624  0.34316  1.0000
  H   H176      1.0  0.15919  0.23801  0.35673  1.0000
  H   H177      1.0  0.20590  0.19534  0.34329  1.0000
  C   C235      1.0  0.82675  0.79196  0.35232  1.0000
  C   C236      1.0  0.82090  0.81254  0.34804  1.0000
  C   C237      1.0  0.83491  0.82866  0.34568  1.0000
  C   C238      1.0  0.85567  0.82370  0.34380  1.0000
  C   C239      1.0  0.86249  0.80347  0.34823  1.0000
  C   C240      1.0  0.84779  0.78794  0.35323  1.0000
  H   H178      1.0  0.86608  0.83510  0.34365  1.0000
  H   H179      1.0  0.85262  0.77333  0.35748  1.0000
  H   H180      1.0  0.80591  0.81600  0.34399  1.0000
  C   C241      1.0  0.79217  0.18480  0.35203  1.0000
  C   C242      1.0  0.81275  0.19065  0.34766  1.0000
  C   C243      1.0  0.82886  0.17663  0.34515  1.0000
  C   C244      1.0  0.82390  0.15587  0.34331  1.0000
  C   C245      1.0  0.80367  0.14906  0.34786  1.0000
  C   C246      1.0  0.78815  0.16376  0.35294  1.0000
  H   H181      1.0  0.83529  0.14546  0.34308  1.0000
  H   H182      1.0  0.77353  0.15894  0.35727  1.0000
  H   H183      1.0  0.81621  0.20564  0.34353  1.0000
  C   C247      1.0  0.21959  0.82648  0.35201  1.0000
  C   C248      1.0  0.19901  0.82063  0.34789  1.0000
  C   C249      1.0  0.18289  0.83463  0.34561  1.0000
  C   C250      1.0  0.18784  0.85540  0.34383  1.0000
  C   C251      1.0  0.20806  0.86223  0.34804  1.0000
  C   C252      1.0  0.22360  0.84753  0.35286  1.0000
  H   H184      1.0  0.17643  0.86579  0.34374  1.0000
  H   H185      1.0  0.23821  0.85235  0.35692  1.0000
  H   H186      1.0  0.19555  0.80564  0.34376  1.0000
  C   C253      1.0  0.32827  0.72021  0.34368  1.0000
  C   C254      1.0  0.32176  0.69990  0.34770  1.0000
  C   C255      1.0  0.33547  0.68351  0.34799  1.0000
  C   C256      1.0  0.35637  0.68805  0.34757  1.0000
  C   C257      1.0  0.36364  0.70814  0.34236  1.0000
  C   C258      1.0  0.34926  0.72398  0.33898  1.0000
  H   H187      1.0  0.36653  0.67644  0.34670  1.0000
  H   H188      1.0  0.35418  0.73860  0.33709  1.0000
  H   H189      1.0  0.30660  0.69701  0.34998  1.0000
  C   C259      1.0  0.68355  0.29115  0.34487  1.0000
  C   C260      1.0  0.69007  0.31145  0.34901  1.0000
  C   C261      1.0  0.67636  0.32785  0.34950  1.0000
  C   C262      1.0  0.65546  0.32331  0.34911  1.0000
  C   C263      1.0  0.64819  0.30322  0.34384  1.0000
  C   C264      1.0  0.66256  0.28739  0.34028  1.0000
  H   H190      1.0  0.64530  0.33492  0.34842  1.0000
  H   H191      1.0  0.65764  0.27276  0.33832  1.0000
  H   H192      1.0  0.70523  0.31434  0.35124  1.0000
  C   C265      1.0  0.72043  0.68334  0.34432  1.0000
  C   C266      1.0  0.70013  0.68988  0.34828  1.0000
  C   C267      1.0  0.68372  0.67617  0.34862  1.0000
  C   C268      1.0  0.68826  0.65526  0.34832  1.0000
  C   C269      1.0  0.70835  0.64799  0.34324  1.0000
  C   C270      1.0  0.72419  0.66235  0.33979  1.0000
  H   H193      1.0  0.67665  0.64511  0.34755  1.0000
  H   H194      1.0  0.73882  0.65744  0.33796  1.0000
  H   H195      1.0  0.69724  0.70503  0.35049  1.0000
  C   C271      1.0  0.29135  0.32807  0.34422  1.0000
  C   C272      1.0  0.31166  0.32155  0.34842  1.0000
  C   C273      1.0  0.32805  0.33527  0.34882  1.0000
  C   C274      1.0  0.32351  0.35617  0.34828  1.0000
  C   C275      1.0  0.30342  0.36344  0.34293  1.0000
  C   C276      1.0  0.28759  0.34906  0.33951  1.0000
  H   H196      1.0  0.33512  0.36633  0.34752  1.0000
  H   H197      1.0  0.27296  0.35398  0.33744  1.0000
  H   H198      1.0  0.31455  0.30640  0.35075  1.0000
  C   C277      1.0  0.44278  0.09455  0.35156  1.0000
  C   C278      1.0  0.42226  0.08877  0.34801  1.0000
  C   C279      1.0  0.41640  0.06828  0.34376  1.0000
  C   C280      1.0  0.43165  0.05340  0.34132  1.0000
  C   C281      1.0  0.45224  0.05867  0.34660  1.0000
  C   C282      1.0  0.45761  0.07924  0.35271  1.0000
  H   H199      1.0  0.42771  0.03848  0.33904  1.0000
  H   H200      1.0  0.47256  0.08314  0.35362  1.0000
  H   H201      1.0  0.41137  0.09971  0.34828  1.0000
  C   C283      1.0  0.56876  0.91705  0.35221  1.0000
  C   C284      1.0  0.58930  0.92265  0.34846  1.0000
  C   C285      1.0  0.59523  0.94307  0.34465  1.0000
  C   C286      1.0  0.58009  0.95803  0.34345  1.0000
  C   C287      1.0  0.55931  0.95319  0.35010  1.0000
  C   C288      1.0  0.55406  0.93249  0.35491  1.0000
  H   H202      1.0  0.58443  0.97279  0.33852  1.0000
  H   H203      1.0  0.53922  0.92846  0.35970  1.0000
  H   H204      1.0  0.60015  0.91165  0.34823  1.0000
  C   C289      1.0  0.91707  0.44260  0.35149  1.0000
  C   C290      1.0  0.92285  0.42207  0.34795  1.0000
  C   C291      1.0  0.94333  0.41620  0.34370  1.0000
  C   C292      1.0  0.95822  0.43145  0.34116  1.0000
  C   C293      1.0  0.95295  0.45204  0.34654  1.0000
  C   C294      1.0  0.93238  0.45742  0.35265  1.0000
  H   H205      1.0  0.97314  0.42750  0.33902  1.0000
  H   H206      1.0  0.92850  0.47237  0.35359  1.0000
  H   H207      1.0  0.91190  0.41118  0.34824  1.0000
  C   C295      1.0  0.09457  0.56857  0.35227  1.0000
  C   C296      1.0  0.08897  0.58911  0.34849  1.0000
  C   C297      1.0  0.06854  0.59503  0.34465  1.0000
  C   C298      1.0  0.05358  0.57988  0.34349  1.0000
  C   C299      1.0  0.05843  0.55911  0.35015  1.0000
  C   C300      1.0  0.07913  0.55387  0.35497  1.0000
  H   H208      1.0  0.03883  0.58422  0.33854  1.0000
  H   H209      1.0  0.08317  0.53903  0.35978  1.0000
  H   H210      1.0  0.09996  0.59996  0.34824  1.0000
  C   C301      1.0  0.39562  0.06277  0.34306  1.0000
  C   C302      1.0  0.35449  0.05205  0.33893  1.0000
  C   C303      1.0  0.36125  0.06574  0.40610  1.0000
  C   C304      1.0  0.38194  0.07092  0.40656  1.0000
  H   H211      1.0  0.38719  0.08070  0.45450  1.0000
  C   C305      1.0  0.30619  0.02825  0.38788  1.0000
  N   N31       1.0  0.32589  0.03368  0.38783  1.0000
  H   H212      1.0  0.30121  0.01866  0.43700  1.0000
  C   C306      1.0  0.34723  0.07492  0.47272  1.0000
  H   H213      1.0  0.33539  0.08321  0.43754  1.0000
  H   H214      1.0  0.35483  0.08539  0.51825  1.0000
  H   H215      1.0  0.34033  0.06312  0.51364  1.0000
  C   C307      1.0  0.61600  0.94846  0.34393  1.0000
  C   C308      1.0  0.65710  0.95920  0.34099  1.0000
  C   C309      1.0  0.64999  0.94654  0.41146  1.0000
  C   C310      1.0  0.62932  0.94128  0.41114  1.0000
  H   H216      1.0  0.62380  0.93220  0.46119  1.0000
  C   C311      1.0  0.70543  0.98312  0.38909  1.0000
  N   N32       1.0  0.68572  0.97769  0.38918  1.0000
  H   H217      1.0  0.71036  0.99292  0.43748  1.0000
  C   C312      1.0  0.66363  0.93847  0.48237  1.0000
  H   H218      1.0  0.67574  0.92978  0.45121  1.0000
  H   H219      1.0  0.65580  0.92863  0.52988  1.0000
  H   H220      1.0  0.67019  0.95089  0.52064  1.0000
  C   C313      1.0  0.94883  0.39542  0.34304  1.0000
  C   C314      1.0  0.95952  0.35429  0.33893  1.0000
  C   C315      1.0  0.94584  0.36106  0.40614  1.0000
  C   C316      1.0  0.94068  0.38176  0.40658  1.0000
  H   H221      1.0  0.93091  0.38701  0.45454  1.0000
  C   C317      1.0  0.98330  0.30597  0.38785  1.0000
  N   N33       1.0  0.97788  0.32568  0.38781  1.0000
  H   H222      1.0  0.99289  0.30098  0.43695  1.0000
  C   C318      1.0  0.93667  0.34706  0.47282  1.0000
  H   H223      1.0  0.92837  0.33522  0.43769  1.0000
  H   H224      1.0  0.92622  0.35467  0.51837  1.0000
  H   H225      1.0  0.94847  0.34015  0.51371  1.0000
  C   C319      1.0  0.06315  0.61580  0.34391  1.0000
  C   C320      1.0  0.05237  0.65690  0.34092  1.0000
  C   C321      1.0  0.06507  0.64981  0.41128  1.0000
  C   C322      1.0  0.07035  0.62914  0.41099  1.0000
  H   H226      1.0  0.07946  0.62363  0.46097  1.0000
  C   C323      1.0  0.02843  0.70521  0.38907  1.0000
  N   N34       1.0  0.03387  0.68551  0.38915  1.0000
  H   H227      1.0  0.01864  0.71014  0.43751  1.0000
  C   C324      1.0  0.07317  0.66346  0.48205  1.0000
  H   H228      1.0  0.08184  0.67558  0.45075  1.0000
  H   H229      1.0  0.08305  0.65565  0.52949  1.0000
  H   H230      1.0  0.06077  0.67002  0.52042  1.0000
  C   C325      1.0  0.12330  0.54946  0.41644  1.0000
  N   N35       1.0  0.14323  0.54493  0.41620  1.0000
  C   C326      1.0  0.17702  0.54720  0.36545  1.0000
  C   C327      1.0  0.18956  0.55625  0.43170  1.0000
  C   C328      1.0  0.21029  0.55122  0.43102  1.0000
  C   C329      1.0  0.21848  0.53762  0.36724  1.0000
  H   H231      1.0  0.21965  0.55768  0.47764  1.0000
  H   H232      1.0  0.11443  0.54352  0.46612  1.0000
  C   C330      1.0  0.18165  0.57112  0.49788  1.0000
  H   H233      1.0  0.17500  0.58390  0.46231  1.0000
  H   H234      1.0  0.19338  0.57693  0.54251  1.0000
  H   H235      1.0  0.17012  0.56406  0.53978  1.0000
  C   C331      1.0  0.88846  0.46185  0.41578  1.0000
  N   N36       1.0  0.86853  0.46638  0.41615  1.0000
  C   C332      1.0  0.83464  0.46401  0.36687  1.0000
  C   C333      1.0  0.82213  0.45511  0.43363  1.0000
  C   C334      1.0  0.80141  0.46021  0.43314  1.0000
  C   C335      1.0  0.79322  0.47374  0.36908  1.0000
  H   H236      1.0  0.79206  0.45383  0.48006  1.0000
  H   H237      1.0  0.89745  0.46798  0.46455  1.0000
  C   C336      1.0  0.83005  0.44032  0.50016  1.0000
  H   H238      1.0  0.83660  0.42745  0.46490  1.0000
  H   H239      1.0  0.81835  0.43465  0.54529  1.0000
  H   H240      1.0  0.84167  0.44741  0.54151  1.0000
  C   C337      1.0  0.54966  0.88831  0.41638  1.0000
  N   N37       1.0  0.54514  0.86838  0.41613  1.0000
  C   C338      1.0  0.54740  0.83460  0.36531  1.0000
  C   C339      1.0  0.55646  0.82206  0.43154  1.0000
  C   C340      1.0  0.55143  0.80133  0.43086  1.0000
  C   C341      1.0  0.53783  0.79313  0.36709  1.0000
  H   H241      1.0  0.55790  0.79197  0.47747  1.0000
  H   H242      1.0  0.54373  0.89718  0.46612  1.0000
  C   C342      1.0  0.57134  0.82997  0.49769  1.0000
  H   H243      1.0  0.58411  0.83662  0.46209  1.0000
  H   H244      1.0  0.57715  0.81823  0.54230  1.0000
  H   H245      1.0  0.56428  0.84150  0.53961  1.0000
  C   C343      1.0  0.46203  0.12316  0.41582  1.0000
  N   N38       1.0  0.46656  0.14309  0.41620  1.0000
  C   C344      1.0  0.46418  0.17699  0.36696  1.0000
  C   C345      1.0  0.45528  0.18950  0.43371  1.0000
  C   C346      1.0  0.46038  0.21021  0.43322  1.0000
  C   C347      1.0  0.47392  0.21840  0.36919  1.0000
  H   H246      1.0  0.45401  0.21957  0.48015  1.0000
  H   H247      1.0  0.46817  0.11417  0.46456  1.0000
  C   C348      1.0  0.44049  0.18157  0.50023  1.0000
  H   H248      1.0  0.42762  0.17503  0.46497  1.0000
  H   H249      1.0  0.43482  0.19328  0.54537  1.0000
  H   H250      1.0  0.44758  0.16996  0.54158  1.0000
  C   C349      1.0  0.21376  0.07003  0.40360  1.0000
  N   N39       1.0  0.20570  0.08888  0.40337  1.0000
  C   C350      1.0  0.19839  0.12166  0.34322  1.0000
  C   C351      1.0  0.20669  0.13564  0.40594  1.0000
  C   C352      1.0  0.19917  0.15566  0.40579  1.0000
  C   C353      1.0  0.18376  0.16210  0.34621  1.0000
  H   H251      1.0  0.20505  0.16585  0.45047  1.0000
  H   H252      1.0  0.21385  0.06205  0.46256  1.0000
  C   C354      1.0  0.22348  0.13014  0.46780  1.0000
  H   H253      1.0  0.23620  0.12435  0.42899  1.0000
  H   H254      1.0  0.21845  0.11858  0.51500  1.0000
  H   H255      1.0  0.22885  0.14295  0.50733  1.0000
  C   C355      1.0  0.79793  0.94125  0.40505  1.0000
  N   N40       1.0  0.80601  0.92241  0.40465  1.0000
  C   C356      1.0  0.81339  0.88968  0.34418  1.0000
  C   C357      1.0  0.80510  0.87567  0.40681  1.0000
  C   C358      1.0  0.81263  0.85566  0.40656  1.0000
  C   C359      1.0  0.82805  0.84925  0.34694  1.0000
  H   H256      1.0  0.80676  0.84546  0.45117  1.0000
  H   H257      1.0  0.79777  0.94918  0.46413  1.0000
  C   C360      1.0  0.78831  0.88113  0.46869  1.0000
  H   H258      1.0  0.77558  0.88694  0.42992  1.0000
  H   H259      1.0  0.79333  0.89268  0.51603  1.0000
  H   H260      1.0  0.78293  0.86831  0.50808  1.0000
  C   C361      1.0  0.94153  0.21349  0.40345  1.0000
  N   N41       1.0  0.92268  0.20542  0.40324  1.0000
  C   C362      1.0  0.88989  0.19813  0.34322  1.0000
  C   C363      1.0  0.87592  0.20640  0.40603  1.0000
  C   C364      1.0  0.85589  0.19887  0.40592  1.0000
  C   C365      1.0  0.84945  0.18348  0.34627  1.0000
  H   H261      1.0  0.84572  0.20474  0.45067  1.0000
  H   H262      1.0  0.94952  0.21357  0.46237  1.0000
  C   C366      1.0  0.88142  0.22317  0.46797  1.0000
  H   H263      1.0  0.88720  0.23591  0.42921  1.0000
  H   H264      1.0  0.89300  0.21813  0.51509  1.0000
  H   H265      1.0  0.86862  0.22852  0.50758  1.0000
  C   C367      1.0  0.07028  0.79771  0.40510  1.0000
  N   N42       1.0  0.08913  0.80578  0.40469  1.0000
  C   C368      1.0  0.12186  0.81313  0.34419  1.0000
  C   C369      1.0  0.13587  0.80483  0.40676  1.0000
  C   C370      1.0  0.15589  0.81235  0.40647  1.0000
  C   C371      1.0  0.16230  0.82777  0.34688  1.0000
  H   H266      1.0  0.16609  0.80647  0.45106  1.0000
  H   H267      1.0  0.06235  0.79756  0.46419  1.0000
  C   C372      1.0  0.13040  0.78803  0.46861  1.0000
  H   H268      1.0  0.12459  0.77531  0.42982  1.0000
  H   H269      1.0  0.11887  0.79305  0.51598  1.0000
  H   H270      1.0  0.14323  0.78265  0.50797  1.0000
  C   C373      1.0  0.28742  0.56391  0.36562  1.0000
  C   C374      1.0  0.30555  0.60277  0.36145  1.0000
  C   C375      1.0  0.29586  0.59611  0.44182  1.0000
  C   C376      1.0  0.28680  0.57674  0.44183  1.0000
  H   H271      1.0  0.27886  0.57214  0.49736  1.0000
  C   C377      1.0  0.33606  0.64807  0.40509  1.0000
  N   N43       1.0  0.32823  0.62912  0.40512  1.0000
  H   H272      1.0  0.34714  0.65142  0.45052  1.0000
  C   C378      1.0  0.29374  0.60934  0.52231  1.0000
  H   H273      1.0  0.28620  0.62334  0.50350  1.0000
  H   H274      1.0  0.30860  0.61286  0.54961  1.0000
  H   H275      1.0  0.28496  0.60231  0.57607  1.0000
  C   C379      1.0  0.72426  0.44753  0.36769  1.0000
  C   C380      1.0  0.70622  0.40861  0.36333  1.0000
  C   C381      1.0  0.71587  0.41528  0.44375  1.0000
  C   C382      1.0  0.72489  0.43467  0.44382  1.0000
  H   H276      1.0  0.73282  0.43928  0.49937  1.0000
  C   C383      1.0  0.67577  0.36327  0.40685  1.0000
  N   N44       1.0  0.68357  0.38222  0.40695  1.0000
  H   H277      1.0  0.66469  0.35990  0.45228  1.0000
  C   C384      1.0  0.71802  0.40205  0.52419  1.0000
  H   H278      1.0  0.72560  0.38806  0.50536  1.0000
  H   H279      1.0  0.70317  0.39849  0.55148  1.0000
  H   H280      1.0  0.72679  0.40909  0.57799  1.0000
  C   C385      1.0  0.56408  0.72418  0.36580  1.0000
  C   C386      1.0  0.60298  0.70610  0.36172  1.0000
  C   C387      1.0  0.59628  0.71574  0.44214  1.0000
  C   C388      1.0  0.57690  0.72477  0.44206  1.0000
  H   H281      1.0  0.57226  0.73268  0.49763  1.0000
  C   C389      1.0  0.64828  0.67561  0.40564  1.0000
  N   N45       1.0  0.62934  0.68343  0.40557  1.0000
  H   H282      1.0  0.65162  0.66453  0.45112  1.0000
  C   C390      1.0  0.60946  0.71784  0.52277  1.0000
  H   H283      1.0  0.62347  0.72540  0.50416  1.0000
  H   H284      1.0  0.61298  0.70297  0.54999  1.0000
  H   H285      1.0  0.60240  0.72660  0.57654  1.0000
  C   C391      1.0  0.44772  0.28736  0.36758  1.0000
  C   C392      1.0  0.40881  0.30541  0.36302  1.0000
  C   C393      1.0  0.41547  0.29579  0.44352  1.0000
  C   C394      1.0  0.43486  0.28676  0.44369  1.0000
  H   H286      1.0  0.43946  0.27885  0.49931  1.0000
  C   C395      1.0  0.36347  0.33589  0.40620  1.0000
  N   N46       1.0  0.38242  0.32808  0.40640  1.0000
  H   H287      1.0  0.36010  0.34698  0.45154  1.0000
  C   C396      1.0  0.40223  0.29367  0.52397  1.0000
  H   H288      1.0  0.38825  0.28609  0.50516  1.0000
  H   H289      1.0  0.39867  0.30853  0.55113  1.0000
  H   H290      1.0  0.40926  0.28492  0.57784  1.0000
  C   C397      1.0  0.21255  0.88343  0.34905  1.0000
  C   C398      1.0  0.22137  0.92545  0.34776  1.0000
  C   C399      1.0  0.22965  0.91306  0.41681  1.0000
  C   C400      1.0  0.22515  0.89213  0.41559  1.0000
  H   H291      1.0  0.23100  0.88303  0.46480  1.0000
  C   C401      1.0  0.22286  0.97993  0.39570  1.0000
  N   N47       1.0  0.21861  0.95984  0.39665  1.0000
  H   H292      1.0  0.21683  0.98886  0.44491  1.0000
  C   C402      1.0  0.24316  0.92145  0.48743  1.0000
  H   H293      1.0  0.25629  0.92844  0.45595  1.0000
  H   H294      1.0  0.24856  0.90992  0.53414  1.0000
  H   H295      1.0  0.23510  0.93280  0.52662  1.0000
  C   C403      1.0  0.79916  0.12787  0.34900  1.0000
  C   C404      1.0  0.79029  0.08586  0.34798  1.0000
  C   C405      1.0  0.78231  0.09822  0.41782  1.0000
  C   C406      1.0  0.78682  0.11915  0.41642  1.0000
  H   H296      1.0  0.78117  0.12824  0.46614  1.0000
  C   C407      1.0  0.78888  0.03138  0.39593  1.0000
  N   N48       1.0  0.79315  0.05146  0.39670  1.0000
  H   H297      1.0  0.79504  0.02244  0.44483  1.0000
  C   C408      1.0  0.76908  0.08981  0.48945  1.0000
  H   H298      1.0  0.75583  0.08283  0.45898  1.0000
  H   H299      1.0  0.76387  0.10132  0.53665  1.0000
  H   H300      1.0  0.77729  0.07845  0.52792  1.0000
  C   C409      1.0  0.12811  0.21236  0.34870  1.0000
  C   C410      1.0  0.08609  0.22117  0.34749  1.0000
  C   C411      1.0  0.09848  0.22946  0.41650  1.0000
  C   C412      1.0  0.11941  0.22496  0.41524  1.0000
  H   H301      1.0  0.12851  0.23081  0.46442  1.0000
  C   C413      1.0  0.03161  0.22263  0.39550  1.0000
  N   N49       1.0  0.05169  0.21839  0.39642  1.0000
  H   H302      1.0  0.02268  0.21660  0.44472  1.0000
  C   C414      1.0  0.09010  0.24298  0.48710  1.0000
  H   H303      1.0  0.08310  0.25610  0.45561  1.0000
  H   H304      1.0  0.10163  0.24838  0.53378  1.0000
  H   H305      1.0  0.07876  0.23492  0.52633  1.0000
  C   C415      1.0  0.88367  0.79897  0.34934  1.0000
  C   C416      1.0  0.92568  0.79010  0.34824  1.0000
  C   C417      1.0  0.91334  0.78217  0.41824  1.0000
  C   C418      1.0  0.89241  0.78668  0.41688  1.0000
  H   H306      1.0  0.88333  0.78105  0.46670  1.0000
  C   C419      1.0  0.98017  0.78867  0.39607  1.0000
  N   N50       1.0  0.96009  0.79293  0.39690  1.0000
  H   H307      1.0  0.98912  0.79481  0.44497  1.0000
  C   C420      1.0  0.92176  0.76898  0.49001  1.0000
  H   H308      1.0  0.92874  0.75571  0.45969  1.0000
  H   H309      1.0  0.91026  0.76380  0.53731  1.0000
  H   H310      1.0  0.93312  0.77722  0.52835  1.0000
  C   C421      1.0  0.30749  0.39806  0.40541  1.0000
  N   N51       1.0  0.30265  0.41797  0.40457  1.0000
  C   C422      1.0  0.28553  0.44754  0.35351  1.0000
  C   C423      1.0  0.27215  0.45455  0.42158  1.0000
  C   C424      1.0  0.26717  0.47534  0.42267  1.0000
  C   C425      1.0  0.27508  0.48919  0.35910  1.0000
  H   H311      1.0  0.25735  0.48051  0.47064  1.0000
  H   H312      1.0  0.31657  0.39284  0.45594  1.0000
  C   C426      1.0  0.26279  0.44061  0.48806  1.0000
  H   H313      1.0  0.25433  0.42892  0.45276  1.0000
  H   H314      1.0  0.25243  0.44831  0.53378  1.0000
  H   H315      1.0  0.27450  0.43352  0.52888  1.0000
  C   C427      1.0  0.70424  0.61338  0.40595  1.0000
  N   N52       1.0  0.70908  0.59347  0.40534  1.0000
  C   C428      1.0  0.72623  0.56388  0.35472  1.0000
  C   C429      1.0  0.73961  0.55690  0.42282  1.0000
  C   C430      1.0  0.74460  0.53611  0.42408  1.0000
  C   C431      1.0  0.73667  0.52223  0.36067  1.0000
  H   H316      1.0  0.75441  0.53096  0.47208  1.0000
  H   H317      1.0  0.69512  0.61863  0.45631  1.0000
  C   C432      1.0  0.74898  0.57087  0.48916  1.0000
  H   H318      1.0  0.75745  0.58254  0.45375  1.0000
  H   H319      1.0  0.75933  0.56319  0.53497  1.0000
  H   H320      1.0  0.73728  0.57799  0.52989  1.0000
  C   C433      1.0  0.39826  0.70408  0.40490  1.0000
  N   N53       1.0  0.41817  0.70893  0.40414  1.0000
  C   C434      1.0  0.44773  0.72608  0.35323  1.0000
  C   C435      1.0  0.45472  0.73949  0.42121  1.0000
  C   C436      1.0  0.47550  0.74449  0.42237  1.0000
  C   C437      1.0  0.48938  0.73655  0.35895  1.0000
  H   H321      1.0  0.48066  0.75433  0.47029  1.0000
  H   H322      1.0  0.39304  0.69498  0.45537  1.0000
  C   C438      1.0  0.44076  0.74887  0.48754  1.0000
  H   H323      1.0  0.42907  0.75733  0.45211  1.0000
  H   H324      1.0  0.44843  0.75925  0.53323  1.0000
  H   H325      1.0  0.43365  0.73718  0.52839  1.0000
  C   C439      1.0  0.61358  0.30731  0.40652  1.0000
  N   N54       1.0  0.59367  0.30248  0.40582  1.0000
  C   C440      1.0  0.56408  0.28536  0.35501  1.0000
  C   C441      1.0  0.55707  0.27199  0.42312  1.0000
  C   C442      1.0  0.53629  0.26702  0.42432  1.0000
  C   C443      1.0  0.52242  0.27494  0.36082  1.0000
  H   H326      1.0  0.53112  0.25721  0.47232  1.0000
  H   H327      1.0  0.61882  0.31641  0.45696  1.0000
  C   C444      1.0  0.57103  0.26263  0.48954  1.0000
  H   H328      1.0  0.58271  0.25415  0.45420  1.0000
  H   H329      1.0  0.56334  0.25228  0.53532  1.0000
  H   H330      1.0  0.57814  0.27433  0.53030  1.0000
  C   C445      1.0  0.27319  0.29953  0.41503  1.0000
  N   N55       1.0  0.25843  0.28541  0.41166  1.0000
  C   C446      1.0  0.23063  0.26632  0.35186  1.0000
  C   C447      1.0  0.23437  0.24761  0.39699  1.0000
  C   C448      1.0  0.21895  0.23273  0.39781  1.0000
  C   C449      1.0  0.20006  0.23529  0.35460  1.0000
  H   H331      1.0  0.22157  0.21959  0.43188  1.0000
  H   H332      1.0  0.28271  0.29968  0.46923  1.0000
  C   C450      1.0  0.25402  0.24249  0.43994  1.0000
  H   H333      1.0  0.26630  0.24500  0.39223  1.0000
  H   H334      1.0  0.25491  0.22678  0.46158  1.0000
  H   H335      1.0  0.25633  0.25182  0.49960  1.0000
  C   C451      1.0  0.73869  0.71175  0.41559  1.0000
  N   N56       1.0  0.75345  0.72588  0.41229  1.0000
  C   C452      1.0  0.78117  0.74505  0.35230  1.0000
  C   C453      1.0  0.77745  0.76373  0.39767  1.0000
  C   C454      1.0  0.79287  0.77861  0.39856  1.0000
  C   C455      1.0  0.81175  0.77606  0.35521  1.0000
  H   H336      1.0  0.79027  0.79174  0.43275  1.0000
  H   H337      1.0  0.72924  0.71153  0.47002  1.0000
  C   C456      1.0  0.75781  0.76883  0.44079  1.0000
  H   H338      1.0  0.74552  0.76634  0.39313  1.0000
  H   H339      1.0  0.75692  0.78453  0.46259  1.0000
  H   H340      1.0  0.75552  0.75946  0.50037  1.0000
  C   C457      1.0  0.71204  0.27293  0.41574  1.0000
  N   N57       1.0  0.72616  0.25817  0.41233  1.0000
  C   C458      1.0  0.74527  0.23040  0.35232  1.0000
  C   C459      1.0  0.76397  0.23412  0.39746  1.0000
  C   C460      1.0  0.77885  0.21870  0.39825  1.0000
  C   C461      1.0  0.77627  0.19981  0.35501  1.0000
  H   H341      1.0  0.79199  0.22130  0.43231  1.0000
  H   H342      1.0  0.71187  0.28241  0.47006  1.0000
  C   C462      1.0  0.76910  0.25377  0.44045  1.0000
  H   H343      1.0  0.76659  0.26605  0.39276  1.0000
  H   H344      1.0  0.78482  0.25465  0.46207  1.0000
  H   H345      1.0  0.75977  0.25608  0.50012  1.0000
  C   C463      1.0  0.29979  0.73839  0.41480  1.0000
  N   N58       1.0  0.28567  0.75315  0.41155  1.0000
  C   C464      1.0  0.26652  0.78092  0.35182  1.0000
  C   C465      1.0  0.24784  0.77719  0.39716  1.0000
  C   C466      1.0  0.23296  0.79260  0.39810  1.0000
  C   C467      1.0  0.23550  0.81149  0.35480  1.0000
  H   H346      1.0  0.21983  0.78999  0.43229  1.0000
  H   H347      1.0  0.29998  0.72889  0.46906  1.0000
  C   C468      1.0  0.24275  0.75754  0.44022  1.0000
  H   H348      1.0  0.24524  0.74526  0.39252  1.0000
  H   H349      1.0  0.22705  0.75665  0.46204  1.0000
  H   H350      1.0  0.25211  0.75524  0.49979  1.0000
  C   C469      1.0  0.48076  0.04090  0.41666  1.0000
  N   N59       1.0  0.49508  0.02644  0.41183  1.0000
  C   C470      1.0  0.51438  0.99979  0.34756  1.0000
  C   C471      1.0  0.53324  0.00348  0.39088  1.0000
  C   C472      1.0  0.54765  0.98772  0.39240  1.0000
  C   C473      1.0  0.54422  0.96875  0.35122  1.0000
  H   H351      1.0  0.56097  0.99010  0.42544  1.0000
  H   H352      1.0  0.47981  0.04956  0.47352  1.0000
  C   C474      1.0  0.53884  0.02331  0.43084  1.0000
  H   H353      1.0  0.52994  0.02607  0.49140  1.0000
  H   H354      1.0  0.53612  0.03534  0.38211  1.0000
  H   H355      1.0  0.55471  0.02409  0.45015  1.0000
  C   C475      1.0  0.97073  0.48055  0.41665  1.0000
  N   N60       1.0  0.98520  0.49487  0.41184  1.0000
  C   C476      1.0  0.01184  0.51417  0.34760  1.0000
  C   C477      1.0  0.00814  0.53303  0.39091  1.0000
  C   C478      1.0  0.02391  0.54745  0.39244  1.0000
  C   C479      1.0  0.04288  0.54402  0.35129  1.0000
  H   H356      1.0  0.02152  0.56077  0.42548  1.0000
  H   H357      1.0  0.96206  0.47960  0.47350  1.0000
  C   C480      1.0  0.98832  0.53863  0.43084  1.0000
  H   H358      1.0  0.98555  0.52973  0.49140  1.0000
  H   H359      1.0  0.97629  0.53592  0.38210  1.0000
  H   H360      1.0  0.98753  0.55451  0.45015  1.0000
