data_image0
_chemical_formula_structural       NCHNCHNCHNCHNCHNCHC2NCNO2C2NCNO2C2NCNO2C2NCNO2C2NCNO2C2NCNO2C2NCNO2C2NCNO2C2NCNO2C2NCNO2C2NCNO2C2NCNO2NC18H12NC18H12NC18H12NC18H12NC18H12NC18H12NC18H12NC18H12NC18H12NC18H12NC18H12NC18H12C2NCNO2C2NCNO2C2NCNO2C2NCNO2C2NCNO2C2NCNO2NCHNCHNCHNCHNCHNCHNCHNCHNCHNCHNCHNCH
_chemical_formula_sum              "N66 C288 H162 O36"
_cell_length_a       63.8407
_cell_length_b       63.8408
_cell_length_c       14.7046
_cell_angle_alpha    90
_cell_angle_beta     90
_cell_angle_gamma    120

_space_group_name_H-M_alt    "P 1"
_space_group_IT_number       1

loop_
  _space_group_symop_operation_xyz
  'x, y, z'

loop_
  _atom_site_type_symbol
  _atom_site_label
  _atom_site_symmetry_multiplicity
  _atom_site_fract_x
  _atom_site_fract_y
  _atom_site_fract_z
  _atom_site_occupancy
  N   N1        1.0  0.21282  0.40596  0.28083  1.0000
  C   C1        1.0  0.20033  0.38146  0.27190  1.0000
  H   H1        1.0  0.19693  0.37435  0.20791  1.0000
  N   N2        1.0  0.60638  0.79912  0.28084  1.0000
  C   C2        1.0  0.63089  0.81114  0.27189  1.0000
  H   H2        1.0  0.63799  0.81487  0.20790  1.0000
  N   N3        1.0  0.21325  0.79954  0.28075  1.0000
  C   C3        1.0  0.20123  0.81202  0.27183  1.0000
  H   H3        1.0  0.19753  0.81542  0.20785  1.0000
  N   N4        1.0  0.80886  0.59714  0.28079  1.0000
  C   C4        1.0  0.82135  0.62165  0.27183  1.0000
  H   H4        1.0  0.82470  0.62875  0.20783  1.0000
  N   N5        1.0  0.41523  0.20425  0.28042  1.0000
  C   C5        1.0  0.39073  0.19227  0.27153  1.0000
  H   H5        1.0  0.38363  0.18879  0.20755  1.0000
  N   N6        1.0  0.80834  0.20350  0.28103  1.0000
  C   C6        1.0  0.82036  0.19102  0.27206  1.0000
  H   H6        1.0  0.82405  0.18761  0.20807  1.0000
  C   C7        1.0  0.19323  0.21018  0.34752  1.0000
  C   C8        1.0  0.21960  0.18483  0.35916  1.0000
  N   N7        1.0  0.20873  0.18630  0.28147  1.0000
  C   C9        1.0  0.19593  0.19809  0.27108  1.0000
  N   N8        1.0  0.18477  0.19678  0.18695  1.0000
  O   O1        1.0  0.16993  0.17518  0.16719  1.0000
  O   O2        1.0  0.20033  0.20540  0.12482  1.0000
  C   C10       1.0  0.80218  0.97530  0.34737  1.0000
  C   C11       1.0  0.82754  0.02702  0.35905  1.0000
  N   N9        1.0  0.82605  0.01468  0.28135  1.0000
  C   C12       1.0  0.81426  0.99009  0.27094  1.0000
  N   N10       1.0  0.81556  0.98025  0.18678  1.0000
  O   O3        1.0  0.83716  0.98701  0.16697  1.0000
  O   O4        1.0  0.80693  0.98719  0.12469  1.0000
  C   C13       1.0  0.03708  0.81917  0.34731  1.0000
  C   C14       1.0  0.98536  0.79281  0.35893  1.0000
  N   N11       1.0  0.99771  0.80371  0.28128  1.0000
  C   C15       1.0  0.02230  0.81651  0.27092  1.0000
  N   N12       1.0  0.03215  0.82770  0.18683  1.0000
  O   O5        1.0  0.02540  0.84255  0.16718  1.0000
  O   O6        1.0  0.02522  0.81215  0.12461  1.0000
  C   C16       1.0  0.82844  0.79293  0.34729  1.0000
  C   C17       1.0  0.80206  0.81826  0.35894  1.0000
  N   N13       1.0  0.81297  0.81683  0.28130  1.0000
  C   C18       1.0  0.82578  0.80506  0.27091  1.0000
  N   N14       1.0  0.83698  0.80641  0.18683  1.0000
  O   O7        1.0  0.85183  0.82801  0.16723  1.0000
  O   O8        1.0  0.82144  0.79780  0.12460  1.0000
  C   C19       1.0  0.21946  0.02778  0.34754  1.0000
  C   C20       1.0  0.19412  0.97606  0.35914  1.0000
  N   N15       1.0  0.19557  0.98841  0.28150  1.0000
  C   C21       1.0  0.20735  0.01300  0.27113  1.0000
  N   N16       1.0  0.20601  0.02285  0.18705  1.0000
  O   O9        1.0  0.18440  0.01610  0.16743  1.0000
  O   O10       1.0  0.21461  0.01592  0.12482  1.0000
  C   C22       1.0  0.98459  0.18397  0.34720  1.0000
  C   C23       1.0  0.03631  0.21032  0.35891  1.0000
  N   N17       1.0  0.02397  0.19951  0.28115  1.0000
  C   C24       1.0  0.99938  0.18673  0.27073  1.0000
  N   N18       1.0  0.98955  0.17564  0.18648  1.0000
  O   O11       1.0  0.99649  0.19125  0.12454  1.0000
  O   O12       1.0  0.99632  0.16082  0.16646  1.0000
  C   C25       1.0  0.25078  0.64372  0.34173  1.0000
  C   C26       1.0  0.25145  0.59969  0.35789  1.0000
  N   N19       1.0  0.24265  0.60543  0.28343  1.0000
  C   C27       1.0  0.24175  0.62615  0.27127  1.0000
  N   N20       1.0  0.23140  0.62908  0.19110  1.0000
  O   O13       1.0  0.24285  0.62837  0.12274  1.0000
  O   O14       1.0  0.20983  0.61243  0.18353  1.0000
  C   C28       1.0  0.36860  0.59932  0.34161  1.0000
  C   C29       1.0  0.41263  0.64402  0.35785  1.0000
  N   N21       1.0  0.40689  0.62949  0.28335  1.0000
  C   C30       1.0  0.38616  0.60786  0.27117  1.0000
  N   N22       1.0  0.38324  0.59460  0.19096  1.0000
  O   O15       1.0  0.38395  0.60677  0.12263  1.0000
  O   O16       1.0  0.39989  0.58967  0.18338  1.0000
  C   C31       1.0  0.41304  0.76156  0.34182  1.0000
  C   C32       1.0  0.36832  0.76086  0.35794  1.0000
  N   N23       1.0  0.38287  0.76968  0.28350  1.0000
  C   C33       1.0  0.40450  0.77058  0.27136  1.0000
  N   N24       1.0  0.41777  0.78094  0.19120  1.0000
  O   O17       1.0  0.40563  0.76950  0.12283  1.0000
  O   O18       1.0  0.42270  0.80252  0.18366  1.0000
  C   C34       1.0  0.77072  0.35928  0.34205  1.0000
  C   C35       1.0  0.77005  0.40332  0.35838  1.0000
  N   N25       1.0  0.77881  0.39756  0.28383  1.0000
  C   C36       1.0  0.77970  0.37683  0.27157  1.0000
  N   N26       1.0  0.79000  0.37391  0.19126  1.0000
  O   O19       1.0  0.77850  0.37461  0.12305  1.0000
  O   O20       1.0  0.81157  0.39057  0.18352  1.0000
  C   C37       1.0  0.65296  0.40390  0.34180  1.0000
  C   C38       1.0  0.60890  0.35920  0.35835  1.0000
  N   N27       1.0  0.61475  0.37360  0.28342  1.0000
  C   C39       1.0  0.63549  0.39521  0.27102  1.0000
  N   N28       1.0  0.63851  0.40828  0.19020  1.0000
  O   O21       1.0  0.63791  0.39596  0.12255  1.0000
  O   O22       1.0  0.62187  0.41317  0.18151  1.0000
  C   C40       1.0  0.60864  0.24166  0.33997  1.0000
  C   C41       1.0  0.65327  0.24217  0.35702  1.0000
  N   N29       1.0  0.63912  0.23407  0.28131  1.0000
  C   C42       1.0  0.61757  0.23329  0.26862  1.0000
  N   N30       1.0  0.60480  0.22373  0.18687  1.0000
  O   O23       1.0  0.61736  0.23586  0.12030  1.0000
  O   O24       1.0  0.59994  0.20225  0.17641  1.0000
  N   N31       1.0  0.14095  0.26221  0.35492  1.0000
  C   C43       1.0  0.11506  0.24930  0.35628  1.0000
  C   C44       1.0  0.15382  0.28808  0.35335  1.0000
  C   C45       1.0  0.15400  0.24938  0.35311  1.0000
  C   C46       1.0  0.16759  0.25023  0.27603  1.0000
  C   C47       1.0  0.18049  0.23758  0.27404  1.0000
  C   C48       1.0  0.18019  0.22327  0.34848  1.0000
  C   C49       1.0  0.16685  0.22297  0.42625  1.0000
  C   C50       1.0  0.15395  0.23563  0.42844  1.0000
  C   C51       1.0  0.10218  0.25003  0.43306  1.0000
  C   C52       1.0  0.07662  0.23741  0.43442  1.0000
  C   C53       1.0  0.06258  0.22337  0.35930  1.0000
  C   C54       1.0  0.07592  0.22294  0.28248  1.0000
  C   C55       1.0  0.10148  0.23553  0.28090  1.0000
  C   C56       1.0  0.15367  0.30096  0.27557  1.0000
  C   C57       1.0  0.16650  0.32652  0.27397  1.0000
  C   C58       1.0  0.18000  0.34043  0.35013  1.0000
  C   C59       1.0  0.17976  0.32715  0.42814  1.0000
  C   C60       1.0  0.16709  0.30161  0.42966  1.0000
  H   H7        1.0  0.06851  0.23900  0.49165  1.0000
  H   H8        1.0  0.11147  0.25990  0.48876  1.0000
  H   H9        1.0  0.11023  0.23469  0.22398  1.0000
  H   H10       1.0  0.06711  0.21324  0.22581  1.0000
  H   H11       1.0  0.16829  0.26029  0.22079  1.0000
  H   H12       1.0  0.19070  0.23954  0.21780  1.0000
  H   H13       1.0  0.14414  0.29169  0.21926  1.0000
  H   H14       1.0  0.16536  0.33480  0.21632  1.0000
  H   H15       1.0  0.18917  0.33601  0.48525  1.0000
  H   H16       1.0  0.16751  0.29282  0.48719  1.0000
  H   H17       1.0  0.14444  0.23478  0.48560  1.0000
  H   H18       1.0  0.16602  0.21306  0.48221  1.0000
  N   N32       1.0  0.75014  0.87098  0.35479  1.0000
  C   C61       1.0  0.76305  0.85801  0.35619  1.0000
  C   C62       1.0  0.72427  0.85798  0.35324  1.0000
  C   C63       1.0  0.76297  0.89687  0.35298  1.0000
  C   C64       1.0  0.76212  0.90961  0.27591  1.0000
  C   C65       1.0  0.77478  0.93516  0.27391  1.0000
  C   C66       1.0  0.78909  0.94917  0.34834  1.0000
  C   C67       1.0  0.78939  0.93614  0.42612  1.0000
  C   C68       1.0  0.77672  0.91057  0.42831  1.0000
  C   C69       1.0  0.76231  0.84440  0.43297  1.0000
  C   C70       1.0  0.77493  0.83146  0.43436  1.0000
  C   C71       1.0  0.78900  0.83147  0.35929  1.0000
  C   C72       1.0  0.78944  0.84525  0.28247  1.0000
  C   C73       1.0  0.77683  0.85820  0.28084  1.0000
  C   C74       1.0  0.71138  0.84495  0.27546  1.0000
  C   C75       1.0  0.68583  0.83223  0.27389  1.0000
  C   C76       1.0  0.67192  0.83181  0.35009  1.0000
  C   C77       1.0  0.68520  0.84483  0.42810  1.0000
  C   C78       1.0  0.71074  0.85772  0.42959  1.0000
  H   H19       1.0  0.77336  0.82178  0.49163  1.0000
  H   H20       1.0  0.75244  0.84381  0.48866  1.0000
  H   H21       1.0  0.77768  0.86780  0.22392  1.0000
  H   H22       1.0  0.79914  0.84615  0.22582  1.0000
  H   H23       1.0  0.75207  0.90025  0.22067  1.0000
  H   H24       1.0  0.77281  0.94340  0.21768  1.0000
  H   H25       1.0  0.72066  0.84471  0.21913  1.0000
  H   H26       1.0  0.67754  0.82281  0.21623  1.0000
  H   H27       1.0  0.67635  0.84538  0.48523  1.0000
  H   H28       1.0  0.71953  0.86691  0.48712  1.0000
  H   H29       1.0  0.77758  0.90191  0.48547  1.0000
  H   H30       1.0  0.79930  0.94522  0.48207  1.0000
  N   N33       1.0  0.14140  0.87143  0.35483  1.0000
  C   C79       1.0  0.15437  0.89732  0.35627  1.0000
  C   C80       1.0  0.15439  0.85856  0.35326  1.0000
  C   C81       1.0  0.11551  0.85838  0.35300  1.0000
  C   C82       1.0  0.10277  0.84481  0.27588  1.0000
  C   C83       1.0  0.07723  0.83191  0.27387  1.0000
  C   C84       1.0  0.06321  0.83221  0.34830  1.0000
  C   C85       1.0  0.07624  0.84552  0.42612  1.0000
  C   C86       1.0  0.10181  0.85841  0.42835  1.0000
  C   C87       1.0  0.16799  0.91018  0.43306  1.0000
  C   C88       1.0  0.18092  0.93574  0.43450  1.0000
  C   C89       1.0  0.18091  0.94979  0.35946  1.0000
  C   C90       1.0  0.16713  0.93647  0.28264  1.0000
  C   C91       1.0  0.15417  0.91091  0.28097  1.0000
  C   C92       1.0  0.16744  0.85872  0.27548  1.0000
  C   C93       1.0  0.18015  0.84588  0.27389  1.0000
  C   C94       1.0  0.18056  0.83238  0.35005  1.0000
  C   C95       1.0  0.16753  0.83262  0.42806  1.0000
  C   C96       1.0  0.15464  0.84528  0.42956  1.0000
  H   H31       1.0  0.19062  0.94384  0.49176  1.0000
  H   H32       1.0  0.16857  0.90088  0.48872  1.0000
  H   H33       1.0  0.14457  0.90217  0.22404  1.0000
  H   H34       1.0  0.16622  0.94528  0.22602  1.0000
  H   H35       1.0  0.11213  0.84413  0.22060  1.0000
  H   H36       1.0  0.06898  0.82174  0.21755  1.0000
  H   H37       1.0  0.16769  0.86825  0.21919  1.0000
  H   H38       1.0  0.18959  0.84703  0.21625  1.0000
  H   H39       1.0  0.16696  0.82320  0.48516  1.0000
  H   H40       1.0  0.14543  0.84486  0.48708  1.0000
  H   H41       1.0  0.11047  0.86791  0.48553  1.0000
  H   H42       1.0  0.06716  0.84634  0.48209  1.0000
  N   N34       1.0  0.88073  0.74090  0.35467  1.0000
  C   C97       1.0  0.90661  0.75382  0.35610  1.0000
  C   C98       1.0  0.86786  0.71503  0.35312  1.0000
  C   C99       1.0  0.86767  0.75373  0.35287  1.0000
  C   C100      1.0  0.85410  0.75290  0.27576  1.0000
  C   C101      1.0  0.84120  0.76554  0.27379  1.0000
  C   C102      1.0  0.84148  0.77984  0.34825  1.0000
  C   C103      1.0  0.85479  0.78011  0.42606  1.0000
  C   C104      1.0  0.86770  0.76745  0.42824  1.0000
  C   C105      1.0  0.91948  0.75307  0.43290  1.0000
  C   C106      1.0  0.94504  0.76569  0.43433  1.0000
  C   C107      1.0  0.95909  0.77975  0.35926  1.0000
  C   C108      1.0  0.94577  0.78020  0.28242  1.0000
  C   C109      1.0  0.92021  0.76760  0.28077  1.0000
  C   C110      1.0  0.86802  0.70215  0.27535  1.0000
  C   C111      1.0  0.85519  0.67659  0.27380  1.0000
  C   C112      1.0  0.84170  0.66269  0.34998  1.0000
  C   C113      1.0  0.84195  0.67596  0.42799  1.0000
  C   C114      1.0  0.85460  0.70151  0.42946  1.0000
  H   H43       1.0  0.95314  0.76411  0.49159  1.0000
  H   H44       1.0  0.91019  0.74319  0.48857  1.0000
  H   H45       1.0  0.91147  0.76845  0.22383  1.0000
  H   H46       1.0  0.95458  0.78991  0.22578  1.0000
  H   H47       1.0  0.85342  0.74286  0.22047  1.0000
  H   H48       1.0  0.83102  0.76361  0.21747  1.0000
  H   H49       1.0  0.87753  0.71142  0.21904  1.0000
  H   H50       1.0  0.85633  0.66830  0.21616  1.0000
  H   H51       1.0  0.83254  0.66711  0.48511  1.0000
  H   H52       1.0  0.85419  0.71030  0.48698  1.0000
  H   H53       1.0  0.87721  0.76830  0.48541  1.0000
  H   H54       1.0  0.85562  0.79002  0.48203  1.0000
  N   N35       1.0  0.27149  0.13209  0.35489  1.0000
  C   C115      1.0  0.25857  0.14506  0.35634  1.0000
  C   C116      1.0  0.29736  0.14510  0.35323  1.0000
  C   C117      1.0  0.25866  0.10620  0.35309  1.0000
  C   C118      1.0  0.25951  0.09346  0.27603  1.0000
  C   C119      1.0  0.24687  0.06791  0.27408  1.0000
  C   C120      1.0  0.23255  0.05391  0.34850  1.0000
  C   C121      1.0  0.23225  0.06694  0.42626  1.0000
  C   C122      1.0  0.24491  0.09251  0.42843  1.0000
  C   C123      1.0  0.25934  0.15869  0.43311  1.0000
  C   C124      1.0  0.24672  0.17163  0.43453  1.0000
  C   C125      1.0  0.23265  0.17161  0.35949  1.0000
  C   C126      1.0  0.23217  0.15782  0.28269  1.0000
  C   C127      1.0  0.24477  0.14485  0.28105  1.0000
  C   C128      1.0  0.31022  0.15826  0.27563  1.0000
  C   C129      1.0  0.33577  0.17101  0.27397  1.0000
  C   C130      1.0  0.34970  0.17128  0.34983  1.0000
  C   C131      1.0  0.33645  0.15810  0.42765  1.0000
  C   C132      1.0  0.31090  0.14522  0.42926  1.0000
  H   H55       1.0  0.24833  0.18135  0.49175  1.0000
  H   H56       1.0  0.26924  0.15929  0.48874  1.0000
  H   H57       1.0  0.24390  0.13524  0.22414  1.0000
  H   H58       1.0  0.22245  0.15691  0.22608  1.0000
  H   H59       1.0  0.26957  0.10282  0.22078  1.0000
  H   H60       1.0  0.24882  0.05966  0.21781  1.0000
  H   H61       1.0  0.30092  0.15860  0.21953  1.0000
  H   H62       1.0  0.34403  0.18052  0.21645  1.0000
  H   H63       1.0  0.34531  0.15744  0.48454  1.0000
  H   H64       1.0  0.30213  0.13591  0.48664  1.0000
  H   H65       1.0  0.24405  0.10117  0.48557  1.0000
  H   H66       1.0  0.22233  0.05786  0.48221  1.0000
  N   N36       1.0  0.88026  0.13166  0.35484  1.0000
  C   C133      1.0  0.86730  0.10578  0.35626  1.0000
  C   C134      1.0  0.86726  0.14452  0.35332  1.0000
  C   C135      1.0  0.90615  0.14472  0.35296  1.0000
  C   C136      1.0  0.91888  0.15830  0.27584  1.0000
  C   C137      1.0  0.94443  0.17121  0.27381  1.0000
  C   C138      1.0  0.95846  0.17092  0.34820  1.0000
  C   C139      1.0  0.94543  0.15758  0.42599  1.0000
  C   C140      1.0  0.91987  0.14469  0.42825  1.0000
  C   C141      1.0  0.85372  0.09291  0.43311  1.0000
  C   C142      1.0  0.84079  0.06735  0.43453  1.0000
  C   C143      1.0  0.84076  0.05329  0.35940  1.0000
  C   C144      1.0  0.85450  0.06662  0.28250  1.0000
  C   C145      1.0  0.86745  0.09218  0.28086  1.0000
  C   C146      1.0  0.85421  0.14436  0.27559  1.0000
  C   C147      1.0  0.84147  0.15718  0.27406  1.0000
  C   C148      1.0  0.84107  0.17069  0.35022  1.0000
  C   C149      1.0  0.85412  0.17045  0.42820  1.0000
  C   C150      1.0  0.86701  0.15780  0.42965  1.0000
  H   H67       1.0  0.83112  0.05924  0.49183  1.0000
  H   H68       1.0  0.85316  0.10220  0.48883  1.0000
  H   H69       1.0  0.87702  0.10092  0.22389  1.0000
  H   H70       1.0  0.85537  0.05781  0.22581  1.0000
  H   H71       1.0  0.90951  0.15899  0.22062  1.0000
  H   H72       1.0  0.95266  0.18140  0.21752  1.0000
  H   H73       1.0  0.85396  0.13484  0.21927  1.0000
  H   H74       1.0  0.83204  0.15604  0.21641  1.0000
  H   H75       1.0  0.85468  0.17986  0.48531  1.0000
  H   H76       1.0  0.87622  0.15822  0.48716  1.0000
  H   H77       1.0  0.91122  0.13517  0.48544  1.0000
  H   H78       1.0  0.95452  0.15676  0.48194  1.0000
  N   N37       1.0  0.27132  0.52260  0.34938  1.0000
  C   C151      1.0  0.29704  0.53687  0.34323  1.0000
  C   C152      1.0  0.25855  0.49677  0.35254  1.0000
  C   C153      1.0  0.25952  0.53652  0.35552  1.0000
  C   C154      1.0  0.25971  0.54774  0.43846  1.0000
  C   C155      1.0  0.25601  0.56774  0.44038  1.0000
  C   C156      1.0  0.25230  0.57757  0.35939  1.0000
  C   C157      1.0  0.25063  0.56512  0.27726  1.0000
  C   C158      1.0  0.25424  0.54510  0.27526  1.0000
  C   C159      1.0  0.31104  0.54502  0.42340  1.0000
  C   C160      1.0  0.33488  0.56472  0.42151  1.0000
  C   C161      1.0  0.34558  0.57739  0.33978  1.0000
  C   C162      1.0  0.33153  0.56871  0.25941  1.0000
  C   C163      1.0  0.30787  0.54868  0.26085  1.0000
  C   C164      1.0  0.26246  0.48418  0.42334  1.0000
  C   C165      1.0  0.25001  0.45866  0.42588  1.0000
  C   C166      1.0  0.23252  0.44441  0.35936  1.0000
  C   C167      1.0  0.22899  0.45729  0.28783  1.0000
  C   C168      1.0  0.24172  0.48284  0.28433  1.0000
  H   H79       1.0  0.34395  0.57050  0.48193  1.0000
  H   H80       1.0  0.30333  0.53784  0.48489  1.0000
  H   H81       1.0  0.29775  0.54424  0.20274  1.0000
  H   H82       1.0  0.33750  0.57803  0.19976  1.0000
  H   H83       1.0  0.26441  0.54256  0.49722  1.0000
  H   H84       1.0  0.25714  0.57561  0.50198  1.0000
  H   H85       1.0  0.27475  0.49356  0.47323  1.0000
  H   H86       1.0  0.25451  0.45066  0.47634  1.0000
  H   H87       1.0  0.21673  0.44812  0.23741  1.0000
  H   H88       1.0  0.23852  0.49129  0.23160  1.0000
  H   H89       1.0  0.25519  0.53819  0.21366  1.0000
  H   H90       1.0  0.24845  0.57152  0.21629  1.0000
  N   N38       1.0  0.48974  0.74096  0.34935  1.0000
  C   C169      1.0  0.47549  0.75243  0.34352  1.0000
  C   C170      1.0  0.51558  0.75401  0.35258  1.0000
  C   C171      1.0  0.47582  0.71525  0.35551  1.0000
  C   C172      1.0  0.46461  0.70421  0.43845  1.0000
  C   C173      1.0  0.44458  0.68053  0.44033  1.0000
  C   C174      1.0  0.43476  0.66698  0.35935  1.0000
  C   C175      1.0  0.44723  0.67773  0.27724  1.0000
  C   C176      1.0  0.46721  0.70140  0.27525  1.0000
  C   C177      1.0  0.46733  0.75828  0.42364  1.0000
  C   C178      1.0  0.44762  0.76241  0.42176  1.0000
  C   C179      1.0  0.43497  0.76047  0.34001  1.0000
  C   C180      1.0  0.44367  0.75514  0.25961  1.0000
  C   C181      1.0  0.46363  0.75141  0.26119  1.0000
  C   C182      1.0  0.52817  0.77048  0.42347  1.0000
  C   C183      1.0  0.55370  0.78354  0.42602  1.0000
  C   C184      1.0  0.56794  0.78033  0.35940  1.0000
  C   C185      1.0  0.55505  0.76395  0.28777  1.0000
  C   C186      1.0  0.52951  0.75114  0.28427  1.0000
  H   H91       1.0  0.44185  0.76571  0.48218  1.0000
  H   H92       1.0  0.47451  0.75776  0.48514  1.0000
  H   H93       1.0  0.46813  0.74581  0.20299  1.0000
  H   H94       1.0  0.43434  0.75177  0.19996  1.0000
  H   H95       1.0  0.46975  0.71409  0.49722  1.0000
  H   H96       1.0  0.43669  0.67380  0.50192  1.0000
  H   H97       1.0  0.51879  0.77336  0.47344  1.0000
  H   H98       1.0  0.56170  0.79601  0.47657  1.0000
  H   H99       1.0  0.56422  0.76089  0.23727  1.0000
  H   H100      1.0  0.52105  0.73952  0.23146  1.0000
  H   H101      1.0  0.47417  0.70923  0.21366  1.0000
  H   H102      1.0  0.44083  0.66917  0.21626  1.0000
  N   N39       1.0  0.27138  0.74103  0.34911  1.0000
  C   C187      1.0  0.25992  0.71531  0.34334  1.0000
  C   C188      1.0  0.25834  0.75382  0.35241  1.0000
  C   C189      1.0  0.29709  0.75282  0.35553  1.0000
  C   C190      1.0  0.30813  0.75267  0.43847  1.0000
  C   C191      1.0  0.33181  0.75632  0.44039  1.0000
  C   C192      1.0  0.34536  0.76003  0.35942  1.0000
  C   C193      1.0  0.33460  0.76171  0.27727  1.0000
  C   C194      1.0  0.31094  0.75804  0.27525  1.0000
  C   C195      1.0  0.25408  0.70130  0.42347  1.0000
  C   C196      1.0  0.24992  0.67745  0.42161  1.0000
  C   C197      1.0  0.25190  0.66676  0.33990  1.0000
  C   C198      1.0  0.25727  0.68080  0.25951  1.0000
  C   C199      1.0  0.26094  0.70447  0.26102  1.0000
  C   C200      1.0  0.24185  0.74992  0.42327  1.0000
  C   C201      1.0  0.22880  0.76239  0.42588  1.0000
  C   C202      1.0  0.23203  0.77987  0.35930  1.0000
  C   C203      1.0  0.24841  0.78337  0.28770  1.0000
  C   C204      1.0  0.26122  0.77063  0.28418  1.0000
  H   H103      1.0  0.24665  0.66839  0.48205  1.0000
  H   H104      1.0  0.25460  0.70901  0.48496  1.0000
  H   H105      1.0  0.26652  0.71456  0.20279  1.0000
  H   H106      1.0  0.26057  0.67481  0.19980  1.0000
  H   H107      1.0  0.29824  0.74793  0.49722  1.0000
  H   H108      1.0  0.33855  0.75518  0.50198  1.0000
  H   H109      1.0  0.23896  0.73764  0.47318  1.0000
  H   H110      1.0  0.21630  0.75789  0.47635  1.0000
  H   H111      1.0  0.25148  0.79561  0.23724  1.0000
  H   H112      1.0  0.27285  0.77381  0.23138  1.0000
  H   H113      1.0  0.30311  0.75717  0.21365  1.0000
  H   H114      1.0  0.34318  0.76389  0.21632  1.0000
  N   N40       1.0  0.75032  0.48051  0.34949  1.0000
  C   C205      1.0  0.72460  0.46628  0.34339  1.0000
  C   C206      1.0  0.76313  0.50635  0.35268  1.0000
  C   C207      1.0  0.76207  0.46656  0.35594  1.0000
  C   C208      1.0  0.76169  0.45522  0.43883  1.0000
  C   C209      1.0  0.76537  0.43521  0.44082  1.0000
  C   C210      1.0  0.76922  0.42545  0.35991  1.0000
  C   C211      1.0  0.77107  0.43799  0.27786  1.0000
  C   C212      1.0  0.76747  0.45803  0.27581  1.0000
  C   C213      1.0  0.71051  0.45826  0.42337  1.0000
  C   C214      1.0  0.68666  0.43858  0.42147  1.0000
  C   C215      1.0  0.67602  0.42580  0.33987  1.0000
  C   C216      1.0  0.69014  0.43434  0.25962  1.0000
  C   C217      1.0  0.71382  0.45432  0.26116  1.0000
  C   C218      1.0  0.75926  0.51896  0.42353  1.0000
  C   C219      1.0  0.77174  0.54448  0.42604  1.0000
  C   C220      1.0  0.78921  0.55871  0.35940  1.0000
  C   C221      1.0  0.79269  0.54581  0.28785  1.0000
  C   C222      1.0  0.77994  0.52026  0.28439  1.0000
  H   H115      1.0  0.67752  0.43292  0.48181  1.0000
  H   H116      1.0  0.71817  0.46551  0.48485  1.0000
  H   H117      1.0  0.72396  0.45873  0.20308  1.0000
  H   H118      1.0  0.68420  0.42498  0.20005  1.0000
  H   H119      1.0  0.75692  0.46036  0.49752  1.0000
  H   H120      1.0  0.76411  0.42727  0.50237  1.0000
  H   H121      1.0  0.74698  0.50959  0.47346  1.0000
  H   H122      1.0  0.76725  0.55249  0.47650  1.0000
  H   H123      1.0  0.80492  0.55496  0.23735  1.0000
  H   H124      1.0  0.78311  0.51179  0.23162  1.0000
  H   H125      1.0  0.76669  0.46502  0.21418  1.0000
  H   H126      1.0  0.77335  0.43165  0.21694  1.0000
  N   N41       1.0  0.53190  0.26223  0.34861  1.0000
  C   C223      1.0  0.54621  0.25083  0.34197  1.0000
  C   C224      1.0  0.50606  0.24913  0.35186  1.0000
  C   C225      1.0  0.54578  0.28793  0.35559  1.0000
  C   C226      1.0  0.55718  0.29876  0.43851  1.0000
  C   C227      1.0  0.57715  0.32247  0.44064  1.0000
  C   C228      1.0  0.58677  0.33622  0.35991  1.0000
  C   C229      1.0  0.57411  0.32563  0.27793  1.0000
  C   C230      1.0  0.55412  0.30196  0.27567  1.0000
  C   C231      1.0  0.55408  0.24449  0.42166  1.0000
  C   C232      1.0  0.57378  0.24035  0.41952  1.0000
  C   C233      1.0  0.58673  0.24281  0.33806  1.0000
  C   C234      1.0  0.57832  0.24867  0.25809  1.0000
  C   C235      1.0  0.55831  0.25233  0.25975  1.0000
  C   C236      1.0  0.49349  0.23247  0.42223  1.0000
  C   C237      1.0  0.46796  0.21937  0.42483  1.0000
  C   C238      1.0  0.45369  0.22275  0.35882  1.0000
  C   C239      1.0  0.46656  0.23933  0.28772  1.0000
  C   C240      1.0  0.49210  0.25217  0.28414  1.0000
  H   H127      1.0  0.57932  0.23665  0.47968  1.0000
  H   H128      1.0  0.54672  0.24467  0.48316  1.0000
  H   H129      1.0  0.55399  0.25825  0.20198  1.0000
  H   H130      1.0  0.58781  0.25236  0.19873  1.0000
  H   H131      1.0  0.55214  0.28875  0.49699  1.0000
  H   H132      1.0  0.58515  0.32907  0.50217  1.0000
  H   H133      1.0  0.50287  0.22945  0.47176  1.0000
  H   H134      1.0  0.45999  0.20673  0.47484  1.0000
  H   H135      1.0  0.45737  0.24253  0.23767  1.0000
  H   H136      1.0  0.50053  0.26394  0.23171  1.0000
  H   H137      1.0  0.54707  0.29426  0.21400  1.0000
  H   H138      1.0  0.58034  0.33433  0.21708  1.0000
  N   N42       1.0  0.75021  0.26200  0.34954  1.0000
  C   C241      1.0  0.76165  0.28772  0.34349  1.0000
  C   C242      1.0  0.76327  0.24923  0.35272  1.0000
  C   C243      1.0  0.72449  0.25019  0.35561  1.0000
  C   C244      1.0  0.71340  0.25034  0.43842  1.0000
  C   C245      1.0  0.68971  0.24665  0.44003  1.0000
  C   C246      1.0  0.67622  0.24296  0.35889  1.0000
  C   C247      1.0  0.68706  0.24129  0.27689  1.0000
  C   C248      1.0  0.71072  0.24496  0.27514  1.0000
  C   C249      1.0  0.76748  0.30170  0.42370  1.0000
  C   C250      1.0  0.77158  0.32553  0.42188  1.0000
  C   C251      1.0  0.76961  0.33624  0.34018  1.0000
  C   C252      1.0  0.76428  0.32222  0.25975  1.0000
  C   C253      1.0  0.76065  0.29857  0.26116  1.0000
  C   C254      1.0  0.77976  0.25313  0.42356  1.0000
  C   C255      1.0  0.79281  0.24066  0.42616  1.0000
  C   C256      1.0  0.78958  0.22317  0.35959  1.0000
  C   C257      1.0  0.77319  0.21967  0.28801  1.0000
  C   C258      1.0  0.76038  0.23241  0.28448  1.0000
  H   H139      1.0  0.77485  0.33458  0.48234  1.0000
  H   H140      1.0  0.76691  0.29396  0.48517  1.0000
  H   H141      1.0  0.75506  0.28846  0.20298  1.0000
  H   H142      1.0  0.76097  0.32820  0.20006  1.0000
  H   H143      1.0  0.72323  0.25500  0.49733  1.0000
  H   H144      1.0  0.68293  0.24774  0.50157  1.0000
  H   H145      1.0  0.78265  0.26541  0.47348  1.0000
  H   H146      1.0  0.80531  0.24516  0.47662  1.0000
  H   H147      1.0  0.77012  0.20743  0.23756  1.0000
  H   H148      1.0  0.74874  0.22922  0.23172  1.0000
  H   H149      1.0  0.71861  0.24590  0.21361  1.0000
  H   H150      1.0  0.67857  0.23919  0.21578  1.0000
  C   C259      1.0  0.21936  0.41825  0.36131  1.0000
  C   C260      1.0  0.19314  0.36660  0.35029  1.0000
  N   N43       1.0  0.19953  0.37893  0.43052  1.0000
  C   C261      1.0  0.21201  0.40352  0.44067  1.0000
  N   N44       1.0  0.21613  0.41329  0.52913  1.0000
  O   O25       1.0  0.22828  0.40641  0.57448  1.0000
  O   O26       1.0  0.19648  0.40650  0.56984  1.0000
  C   C262      1.0  0.59410  0.79332  0.36133  1.0000
  C   C263      1.0  0.64575  0.81877  0.35027  1.0000
  N   N45       1.0  0.63342  0.81279  0.43050  1.0000
  C   C264      1.0  0.60883  0.80067  0.44068  1.0000
  N   N46       1.0  0.59907  0.79498  0.52913  1.0000
  O   O27       1.0  0.60595  0.81398  0.57463  1.0000
  O   O28       1.0  0.60586  0.78210  0.56968  1.0000
  C   C265      1.0  0.21903  0.79303  0.36124  1.0000
  C   C266      1.0  0.19359  0.81925  0.35022  1.0000
  N   N47       1.0  0.19955  0.81287  0.43044  1.0000
  C   C267      1.0  0.21166  0.80039  0.44060  1.0000
  N   N48       1.0  0.21733  0.79629  0.52906  1.0000
  O   O29       1.0  0.19832  0.78416  0.57450  1.0000
  O   O30       1.0  0.23021  0.81596  0.56967  1.0000
  C   C268      1.0  0.80237  0.58486  0.36129  1.0000
  C   C269      1.0  0.82858  0.63651  0.35019  1.0000
  N   N49       1.0  0.82223  0.62419  0.43044  1.0000
  C   C270      1.0  0.80976  0.59960  0.44064  1.0000
  N   N50       1.0  0.80570  0.58985  0.52910  1.0000
  O   O31       1.0  0.79358  0.59673  0.57462  1.0000
  O   O32       1.0  0.82537  0.59664  0.56961  1.0000
  C   C271      1.0  0.42753  0.20973  0.36084  1.0000
  C   C272      1.0  0.37588  0.18432  0.34991  1.0000
  N   N51       1.0  0.38822  0.18997  0.43008  1.0000
  C   C273      1.0  0.41280  0.20205  0.44021  1.0000
  N   N52       1.0  0.42256  0.20735  0.52872  1.0000
  O   O33       1.0  0.41571  0.18815  0.57289  1.0000
  O   O34       1.0  0.41576  0.22004  0.57065  1.0000
  C   C274      1.0  0.80258  0.21002  0.36152  1.0000
  C   C275      1.0  0.82803  0.18381  0.35043  1.0000
  N   N53       1.0  0.82210  0.19021  0.43067  1.0000
  C   C276      1.0  0.80998  0.20267  0.44087  1.0000
  N   N54       1.0  0.80434  0.20680  0.52934  1.0000
  O   O35       1.0  0.82336  0.21895  0.57466  1.0000
  O   O36       1.0  0.79148  0.18714  0.57006  1.0000
  N   N55       1.0  0.20366  0.20844  0.42597  1.0000
  C   C277      1.0  0.21639  0.19667  0.43494  1.0000
  H   H151      1.0  0.22313  0.19651  0.49755  1.0000
  N   N56       1.0  0.80393  0.98747  0.42584  1.0000
  C   C278      1.0  0.81571  0.01197  0.43482  1.0000
  H   H152      1.0  0.81587  0.01886  0.49746  1.0000
  N   N57       1.0  0.02491  0.80872  0.42573  1.0000
  C   C279      1.0  0.00041  0.79598  0.43468  1.0000
  H   H153      1.0  0.99351  0.78922  0.49728  1.0000
  N   N58       1.0  0.81797  0.79462  0.42570  1.0000
  C   C280      1.0  0.80523  0.80639  0.43467  1.0000
  H   H154      1.0  0.79845  0.80650  0.49725  1.0000
  N   N59       1.0  0.21775  0.01561  0.42595  1.0000
  C   C281      1.0  0.20598  0.99111  0.43490  1.0000
  H   H155      1.0  0.20585  0.98421  0.49749  1.0000
  N   N60       1.0  0.99676  0.19433  0.42572  1.0000
  C   C282      1.0  0.02126  0.20706  0.43473  1.0000
  H   H156      1.0  0.02815  0.21374  0.49741  1.0000
  N   N61       1.0  0.25971  0.63812  0.41626  1.0000
  C   C283      1.0  0.26037  0.61735  0.42748  1.0000
  H   H157      1.0  0.26813  0.61547  0.48518  1.0000
  N   N62       1.0  0.37420  0.61384  0.41618  1.0000
  C   C284      1.0  0.39496  0.63527  0.42739  1.0000
  H   H158      1.0  0.39686  0.64489  0.48517  1.0000
  N   N63       1.0  0.39850  0.75263  0.41636  1.0000
  C   C285      1.0  0.37707  0.75195  0.42753  1.0000
  H   H159      1.0  0.36744  0.74423  0.48530  1.0000
  N   N64       1.0  0.76183  0.36489  0.41670  1.0000
  C   C286      1.0  0.76118  0.38566  0.42800  1.0000
  H   H160      1.0  0.75346  0.38754  0.48579  1.0000
  N   N65       1.0  0.64725  0.38953  0.41685  1.0000
  C   C287      1.0  0.62647  0.36813  0.42827  1.0000
  H   H161      1.0  0.62453  0.35865  0.48646  1.0000
  N   N66       1.0  0.62276  0.24987  0.41582  1.0000
  C   C288      1.0  0.64412  0.25043  0.42748  1.0000
  H   H162      1.0  0.65338  0.25758  0.48640  1.0000
