data_image0
_chemical_formula_structural       C3H2CN2H2C16H16C16H16C16H16C4H2C3HCOH3NC4H2C2HCOH3NC4H2C3HCOH3NC4H2C3HCOH3NC4H2C2HCOH3NC4H2C3HCOH3NC4NC8NC36H22C4H4C3NC3NC5NC5NC36H26C4H4C3NC3NC5NC5NC36H26C4H4C5H3COH3NC6H3COH3NC5H3COH3NC5H3COH3NC6H3COH3NC5H3COH3N
_chemical_formula_sum              "C300 H210 N24 O12"
_cell_length_a       75.1553
_cell_length_b       75.1553
_cell_length_c       14.9675
_cell_angle_alpha    89.743
_cell_angle_beta     90.257
_cell_angle_gamma    120

_space_group_name_H-M_alt    "P 1"
_space_group_IT_number       1

loop_
  _space_group_symop_operation_xyz
  'x, y, z'

loop_
  _atom_site_type_symbol
  _atom_site_label
  _atom_site_symmetry_multiplicity
  _atom_site_fract_x
  _atom_site_fract_y
  _atom_site_fract_z
  _atom_site_occupancy
  C   C1        1.0  0.01389  0.58772  0.34956  1.0000
  C   C2        1.0  0.01277  0.51053  0.35083  1.0000
  C   C3        1.0  0.01923  0.49603  0.34984  1.0000
  H   H1        1.0  0.01220  0.61579  0.34956  1.0000
  H   H2        1.0  0.01020  0.48038  0.34990  1.0000
  C   C4        1.0  0.02089  0.60880  0.34941  1.0000
  N   N1        1.0  0.03108  0.58612  0.34965  1.0000
  N   N2        1.0  0.03025  0.52908  0.35036  1.0000
  H   H3        1.0  0.03089  0.57326  0.35031  1.0000
  H   H4        1.0  0.03044  0.54194  0.35186  1.0000
  C   C5        1.0  0.10901  0.66239  0.27792  1.0000
  C   C6        1.0  0.09282  0.64189  0.27500  1.0000
  C   C7        1.0  0.13676  0.70838  0.30925  1.0000
  C   C8        1.0  0.15469  0.72787  0.30813  1.0000
  C   C9        1.0  0.10737  0.52907  0.27464  1.0000
  C   C10       1.0  0.09247  0.53521  0.27214  1.0000
  C   C11       1.0  0.16276  0.52363  0.31630  1.0000
  C   C12       1.0  0.14723  0.52885  0.30911  1.0000
  C   C13       1.0  0.96785  0.47365  0.27549  1.0000
  C   C14       1.0  0.95185  0.45306  0.27859  1.0000
  C   C15       1.0  0.90732  0.38725  0.30717  1.0000
  C   C16       1.0  0.92504  0.40688  0.30770  1.0000
  C   C17       1.0  0.96872  0.58000  0.27220  1.0000
  C   C18       1.0  0.95364  0.58589  0.27472  1.0000
  C   C19       1.0  0.91346  0.58533  0.30901  1.0000
  C   C20       1.0  0.89770  0.59021  0.31615  1.0000
  H   H5        1.0  0.88439  0.58159  0.28092  1.0000
  H   H6        1.0  0.91102  0.57331  0.26899  1.0000
  H   H7        1.0  0.94760  0.58734  0.21555  1.0000
  H   H8        1.0  0.97307  0.57710  0.21178  1.0000
  H   H9        1.0  0.97296  0.48064  0.21472  1.0000
  H   H10       1.0  0.94552  0.44576  0.21956  1.0000
  H   H11       1.0  0.08812  0.53827  0.21173  1.0000
  H   H12       1.0  0.11330  0.52764  0.21549  1.0000
  H   H13       1.0  0.14986  0.54104  0.26937  1.0000
  H   H14       1.0  0.17608  0.53215  0.28126  1.0000
  H   H15       1.0  0.08711  0.63518  0.21431  1.0000
  H   H16       1.0  0.11484  0.66992  0.21876  1.0000
  H   H17       1.0  0.15510  0.73900  0.26709  1.0000
  H   H18       1.0  0.12460  0.70610  0.27013  1.0000
  H   H19       1.0  0.93687  0.40961  0.26578  1.0000
  H   H20       1.0  0.90670  0.37646  0.26376  1.0000
  C   C21       1.0  0.42448  0.52844  0.28184  1.0000
  C   C22       1.0  0.44497  0.53273  0.27893  1.0000
  C   C23       1.0  0.37847  0.51011  0.31307  1.0000
  C   C24       1.0  0.35900  0.50857  0.31187  1.0000
  C   C25       1.0  0.55776  0.66011  0.27851  1.0000
  C   C26       1.0  0.55164  0.63908  0.27601  1.0000
  C   C27       1.0  0.56320  0.72086  0.32009  1.0000
  C   C28       1.0  0.55797  0.70012  0.31300  1.0000
  C   C29       1.0  0.61321  0.57605  0.27939  1.0000
  C   C30       1.0  0.63379  0.58061  0.28247  1.0000
  C   C31       1.0  0.69961  0.60187  0.31090  1.0000
  C   C32       1.0  0.67997  0.59994  0.31146  1.0000
  C   C33       1.0  0.50687  0.47054  0.27600  1.0000
  C   C34       1.0  0.50097  0.44958  0.27850  1.0000
  C   C35       1.0  0.50153  0.40988  0.31278  1.0000
  C   C36       1.0  0.49666  0.38924  0.31995  1.0000
  H   H21       1.0  0.50527  0.38461  0.28469  1.0000
  H   H22       1.0  0.51356  0.41954  0.27277  1.0000
  H   H23       1.0  0.49953  0.44219  0.21934  1.0000
  H   H24       1.0  0.50977  0.47791  0.21558  1.0000
  H   H25       1.0  0.60620  0.57424  0.21864  1.0000
  H   H26       1.0  0.64108  0.58168  0.22344  1.0000
  H   H27       1.0  0.54860  0.63178  0.21559  1.0000
  H   H28       1.0  0.55922  0.66759  0.21934  1.0000
  H   H29       1.0  0.54580  0.69064  0.27311  1.0000
  H   H30       1.0  0.55469  0.72573  0.28495  1.0000
  H   H31       1.0  0.45169  0.53386  0.21823  1.0000
  H   H32       1.0  0.41694  0.52683  0.22268  1.0000
  H   H33       1.0  0.34788  0.49793  0.27076  1.0000
  H   H34       1.0  0.38077  0.50031  0.27395  1.0000
  H   H35       1.0  0.67723  0.60911  0.26951  1.0000
  H   H36       1.0  0.71037  0.61208  0.26733  1.0000
  C   C37       1.0  0.55844  0.97785  0.28570  1.0000
  C   C38       1.0  0.55415  0.99406  0.28276  1.0000
  C   C39       1.0  0.57677  0.95013  0.31699  1.0000
  C   C40       1.0  0.57832  0.93220  0.31578  1.0000
  C   C41       1.0  0.42687  0.97954  0.28019  1.0000
  C   C42       1.0  0.44790  0.99446  0.27834  1.0000
  C   C43       1.0  0.36608  0.92407  0.31942  1.0000
  C   C44       1.0  0.38682  0.93962  0.31305  1.0000
  C   C45       1.0  0.51079  0.11897  0.28324  1.0000
  C   C46       1.0  0.50623  0.13498  0.28638  1.0000
  C   C47       1.0  0.48497  0.17948  0.31476  1.0000
  C   C48       1.0  0.48688  0.16176  0.31537  1.0000
  C   C49       1.0  0.61620  0.11806  0.27829  1.0000
  C   C50       1.0  0.63717  0.13315  0.28019  1.0000
  C   C51       1.0  0.67688  0.17339  0.31292  1.0000
  C   C52       1.0  0.69752  0.18918  0.31942  1.0000
  H   H37       1.0  0.70210  0.20241  0.28366  1.0000
  H   H38       1.0  0.66716  0.17576  0.27301  1.0000
  H   H39       1.0  0.64447  0.13911  0.22079  1.0000
  H   H40       1.0  0.60876  0.11361  0.21807  1.0000
  H   H41       1.0  0.51260  0.11388  0.22246  1.0000
  H   H42       1.0  0.50515  0.14130  0.22735  1.0000
  H   H43       1.0  0.45528  0.99891  0.21814  1.0000
  H   H44       1.0  0.41948  0.97369  0.22078  1.0000
  H   H45       1.0  0.39639  0.93707  0.27342  1.0000
  H   H46       1.0  0.36128  0.91081  0.28402  1.0000
  H   H47       1.0  0.55303  0.99977  0.22205  1.0000
  H   H48       1.0  0.56007  0.97204  0.22655  1.0000
  H   H49       1.0  0.58895  0.93179  0.27464  1.0000
  H   H50       1.0  0.58657  0.96230  0.27782  1.0000
  H   H51       1.0  0.47773  0.14994  0.27338  1.0000
  H   H52       1.0  0.47476  0.18011  0.27120  1.0000
  C   C53       1.0  0.20615  0.50415  0.33306  1.0000
  C   C54       1.0  0.24341  0.50291  0.33094  1.0000
  C   C55       1.0  0.23014  0.49653  0.25593  1.0000
  C   C56       1.0  0.21190  0.49742  0.25660  1.0000
  H   H53       1.0  0.23399  0.49177  0.19887  1.0000
  H   H54       1.0  0.20292  0.49330  0.20037  1.0000
  C   C57       1.0  0.26256  0.50346  0.32330  1.0000
  C   C58       1.0  0.29881  0.52035  0.28229  1.0000
  C   C59       1.0  0.27977  0.51995  0.27961  1.0000
  H   H55       1.0  0.31137  0.53195  0.25117  1.0000
  C   C60       1.0  0.27796  0.53662  0.23269  1.0000
  O   O1        1.0  0.29646  0.55324  0.19615  1.0000
  H   H56       1.0  0.27128  0.54309  0.27798  1.0000
  H   H57       1.0  0.26741  0.52972  0.17656  1.0000
  H   H58       1.0  0.30527  0.56146  0.24612  1.0000
  N   N3        1.0  0.18966  0.50638  0.32839  1.0000
  C   C61       1.0  0.58269  0.78370  0.33673  1.0000
  C   C62       1.0  0.58394  0.82222  0.33457  1.0000
  C   C63       1.0  0.59032  0.81546  0.25958  1.0000
  C   C64       1.0  0.58943  0.79633  0.26027  1.0000
  H   H59       1.0  0.59508  0.82417  0.20251  1.0000
  H   H60       1.0  0.59354  0.79156  0.20404  1.0000
  C   C65       1.0  0.56653  0.86030  0.28604  1.0000
  C   C66       1.0  0.56692  0.84165  0.28330  1.0000
  H   H61       1.0  0.55493  0.86132  0.25496  1.0000
  C   C67       1.0  0.55025  0.82327  0.23635  1.0000
  O   O2        1.0  0.53363  0.82521  0.19983  1.0000
  H   H62       1.0  0.54378  0.81003  0.28162  1.0000
  H   H63       1.0  0.55714  0.81971  0.18020  1.0000
  H   H64       1.0  0.52541  0.82572  0.24982  1.0000
  N   N4        1.0  0.58045  0.76500  0.33212  1.0000
  C   C68       1.0  0.30320  0.88066  0.33382  1.0000
  C   C69       1.0  0.26466  0.84345  0.33009  1.0000
  C   C70       1.0  0.27151  0.85689  0.25567  1.0000
  C   C71       1.0  0.29067  0.87511  0.25713  1.0000
  H   H65       1.0  0.26287  0.85319  0.19845  1.0000
  H   H66       1.0  0.29551  0.88422  0.20130  1.0000
  C   C72       1.0  0.24602  0.82434  0.32165  1.0000
  C   C73       1.0  0.22657  0.78817  0.27933  1.0000
  C   C74       1.0  0.24522  0.80721  0.27720  1.0000
  H   H67       1.0  0.22557  0.77566  0.24778  1.0000
  C   C75       1.0  0.26363  0.80909  0.23013  1.0000
  O   O3        1.0  0.26169  0.79066  0.19276  1.0000
  H   H68       1.0  0.27684  0.81566  0.27555  1.0000
  H   H69       1.0  0.26723  0.81976  0.17443  1.0000
  H   H70       1.0  0.26114  0.78174  0.24233  1.0000
  N   N5        1.0  0.32191  0.89715  0.32998  1.0000
  C   C76       1.0  0.85352  0.60862  0.33325  1.0000
  C   C77       1.0  0.81598  0.60933  0.33128  1.0000
  C   C78       1.0  0.82912  0.61588  0.25614  1.0000
  C   C79       1.0  0.84751  0.61527  0.25675  1.0000
  H   H71       1.0  0.82509  0.62061  0.19909  1.0000
  H   H72       1.0  0.85641  0.61953  0.20046  1.0000
  C   C80       1.0  0.79673  0.60859  0.32384  1.0000
  C   C81       1.0  0.76036  0.59141  0.28365  1.0000
  C   C82       1.0  0.77948  0.59198  0.28080  1.0000
  H   H73       1.0  0.74777  0.57971  0.25312  1.0000
  C   C83       1.0  0.78136  0.57540  0.23432  1.0000
  O   O4        1.0  0.76286  0.55868  0.19821  1.0000
  H   H74       1.0  0.78821  0.56903  0.27979  1.0000
  H   H75       1.0  0.79179  0.58234  0.17801  1.0000
  H   H76       1.0  0.75418  0.55043  0.24839  1.0000
  N   N6        1.0  0.87018  0.60670  0.32860  1.0000
  C   C84       1.0  0.47825  0.32662  0.33701  1.0000
  C   C85       1.0  0.47754  0.28837  0.33507  1.0000
  C   C86       1.0  0.47098  0.29508  0.25992  1.0000
  C   C87       1.0  0.47160  0.31409  0.26051  1.0000
  H   H77       1.0  0.46625  0.28643  0.20287  1.0000
  H   H78       1.0  0.46733  0.31883  0.20423  1.0000
  C   C88       1.0  0.49543  0.25074  0.28751  1.0000
  C   C89       1.0  0.49486  0.26929  0.28459  1.0000
  H   H79       1.0  0.50711  0.24988  0.25690  1.0000
  C   C90       1.0  0.51144  0.28783  0.23803  1.0000
  O   O5        1.0  0.52816  0.28610  0.20191  1.0000
  H   H80       1.0  0.51782  0.30098  0.28345  1.0000
  H   H81       1.0  0.50449  0.29141  0.18172  1.0000
  H   H82       1.0  0.53641  0.28558  0.25208  1.0000
  N   N7        1.0  0.48016  0.34520  0.33236  1.0000
  C   C91       1.0  0.76019  0.23336  0.33405  1.0000
  C   C92       1.0  0.79845  0.27087  0.33040  1.0000
  C   C93       1.0  0.79164  0.25756  0.25584  1.0000
  C   C94       1.0  0.77262  0.23918  0.25727  1.0000
  H   H83       1.0  0.80022  0.26144  0.19861  1.0000
  H   H84       1.0  0.76781  0.23015  0.20139  1.0000
  C   C95       1.0  0.81697  0.29009  0.32218  1.0000
  C   C96       1.0  0.83610  0.32638  0.28074  1.0000
  C   C97       1.0  0.81753  0.30726  0.27839  1.0000
  H   H85       1.0  0.83694  0.33892  0.24967  1.0000
  C   C98       1.0  0.79898  0.30531  0.23171  1.0000
  O   O6        1.0  0.80070  0.32375  0.19480  1.0000
  H   H86       1.0  0.78586  0.29856  0.27728  1.0000
  H   H87       1.0  0.79536  0.29477  0.17582  1.0000
  H   H88       1.0  0.80125  0.33254  0.24459  1.0000
  N   N8        1.0  0.74160  0.21669  0.33021  1.0000
  C   C99       1.0  0.04210  0.61917  0.35024  1.0000
  C   C100      1.0  0.04856  0.60467  0.35042  1.0000
  C   C101      1.0  0.99287  0.57199  0.35009  1.0000
  C   C102      1.0  0.98581  0.55058  0.35097  1.0000
  N   N9        1.0  0.99721  0.54125  0.35035  1.0000
  C   C103      1.0  0.98539  0.52056  0.35229  1.0000
  C   C104      1.0  0.96506  0.51634  0.35412  1.0000
  C   C105      1.0  0.96532  0.53484  0.35329  1.0000
  C   C106      1.0  0.99193  0.50580  0.35241  1.0000
  C   C107      1.0  0.04744  0.52747  0.34967  1.0000
  C   C108      1.0  0.04043  0.50639  0.34893  1.0000
  C   C109      1.0  0.06846  0.54320  0.35001  1.0000
  C   C110      1.0  0.07552  0.56461  0.35064  1.0000
  N   N10       1.0  0.06412  0.57394  0.35012  1.0000
  C   C111      1.0  0.07594  0.59463  0.35163  1.0000
  C   C112      1.0  0.09628  0.59884  0.35296  1.0000
  C   C113      1.0  0.09601  0.58035  0.35243  1.0000
  C   C114      1.0  0.06941  0.60940  0.35181  1.0000
  C   C115      1.0  0.08499  0.63050  0.35465  1.0000
  C   C116      1.0  0.09344  0.64009  0.43721  1.0000
  C   C117      1.0  0.10971  0.66054  0.43981  1.0000
  C   C118      1.0  0.11794  0.67201  0.36026  1.0000
  C   C119      1.0  0.13552  0.69219  0.36256  1.0000
  C   C120      1.0  0.17207  0.73178  0.35996  1.0000
  C   C121      1.0  0.17075  0.71565  0.41389  1.0000
  C   C122      1.0  0.15281  0.69627  0.41546  1.0000
  C   C123      1.0  0.08359  0.53706  0.35194  1.0000
  C   C124      1.0  0.08986  0.53265  0.43410  1.0000
  C   C125      1.0  0.10468  0.52645  0.43628  1.0000
  C   C126      1.0  0.11370  0.52450  0.35668  1.0000
  C   C127      1.0  0.12893  0.51839  0.35968  1.0000
  C   C128      1.0  0.12653  0.50214  0.41593  1.0000
  C   C129      1.0  0.14203  0.49691  0.42318  1.0000
  C   C130      1.0  0.16047  0.50764  0.37393  1.0000
  C   C131      1.0  0.97637  0.48469  0.35519  1.0000
  C   C132      1.0  0.94383  0.44299  0.36122  1.0000
  C   C133      1.0  0.95272  0.45415  0.44075  1.0000
  C   C134      1.0  0.96879  0.47470  0.43793  1.0000
  C   C135      1.0  0.92651  0.42265  0.36409  1.0000
  C   C136      1.0  0.90969  0.41795  0.42080  1.0000
  C   C137      1.0  0.89195  0.39841  0.41992  1.0000
  C   C138      1.0  0.89038  0.38274  0.36276  1.0000
  C   C139      1.0  0.97772  0.57810  0.35201  1.0000
  C   C140      1.0  0.97141  0.58224  0.43421  1.0000
  C   C141      1.0  0.95641  0.58821  0.43640  1.0000
  C   C142      1.0  0.94724  0.59016  0.35679  1.0000
  C   C143      1.0  0.93176  0.59593  0.35982  1.0000
  C   C144      1.0  0.89973  0.60595  0.37415  1.0000
  C   C145      1.0  0.91816  0.61681  0.42369  1.0000
  C   C146      1.0  0.93390  0.61194  0.41639  1.0000
  H   H89       1.0  0.92020  0.62822  0.46690  1.0000
  H   H90       1.0  0.94695  0.62016  0.45368  1.0000
  H   H91       1.0  0.95193  0.59069  0.49734  1.0000
  H   H92       1.0  0.97761  0.58084  0.49303  1.0000
  H   H93       1.0  0.05113  0.63481  0.35093  1.0000
  H   H94       1.0  0.95252  0.53631  0.35460  1.0000
  H   H95       1.0  0.95203  0.50224  0.35590  1.0000
  H   H96       1.0  0.97467  0.48241  0.49662  1.0000
  H   H97       1.0  0.94748  0.44742  0.50186  1.0000
  H   H98       1.0  0.04912  0.49940  0.34829  1.0000
  H   H99       1.0  0.10931  0.61294  0.35422  1.0000
  H   H100      1.0  0.10882  0.57887  0.35344  1.0000
  H   H101      1.0  0.08371  0.53398  0.49291  1.0000
  H   H102      1.0  0.10911  0.52373  0.49720  1.0000
  H   H103      1.0  0.13982  0.48533  0.46614  1.0000
  H   H104      1.0  0.11347  0.49399  0.45298  1.0000
  H   H105      1.0  0.15285  0.68488  0.45306  1.0000
  H   H106      1.0  0.18306  0.71771  0.45155  1.0000
  H   H107      1.0  0.11562  0.66694  0.50075  1.0000
  H   H108      1.0  0.08809  0.63211  0.49583  1.0000
  H   H109      1.0  0.90982  0.42901  0.46092  1.0000
  H   H110      1.0  0.87995  0.39590  0.46039  1.0000
  C   C147      1.0  0.19060  0.75020  0.35511  1.0000
  C   C148      1.0  0.17629  0.50347  0.38861  1.0000
  C   C149      1.0  0.87198  0.36419  0.35854  1.0000
  C   C150      1.0  0.88369  0.60976  0.38881  1.0000
  H   H111      1.0  0.20342  0.74999  0.37041  1.0000
  H   H112      1.0  0.88252  0.61476  0.44878  1.0000
  H   H113      1.0  0.85916  0.36411  0.37613  1.0000
  H   H114      1.0  0.17744  0.49834  0.44860  1.0000
  C   C151      1.0  0.47806  0.49377  0.35334  1.0000
  C   C152      1.0  0.46769  0.50460  0.35422  1.0000
  C   C153      1.0  0.48219  0.52557  0.35436  1.0000
  N   N11       1.0  0.50074  0.52664  0.35355  1.0000
  C   C154      1.0  0.49914  0.50785  0.35342  1.0000
  C   C155      1.0  0.51488  0.50256  0.35390  1.0000
  C   C156      1.0  0.53628  0.51692  0.35477  1.0000
  N   N12       1.0  0.54561  0.53765  0.35422  1.0000
  C   C157      1.0  0.56630  0.54652  0.35615  1.0000
  C   C158      1.0  0.57053  0.53041  0.35789  1.0000
  C   C159      1.0  0.55203  0.51217  0.35706  1.0000
  C   C160      1.0  0.58106  0.56782  0.35635  1.0000
  C   C161      1.0  0.57632  0.58393  0.35485  1.0000
  N   N13       1.0  0.55777  0.58286  0.35434  1.0000
  C   C162      1.0  0.55937  0.60165  0.35365  1.0000
  C   C163      1.0  0.58046  0.61573  0.35305  1.0000
  C   C164      1.0  0.59083  0.60489  0.35397  1.0000
  C   C165      1.0  0.54365  0.60694  0.35388  1.0000
  C   C166      1.0  0.52224  0.59259  0.35451  1.0000
  N   N14       1.0  0.51291  0.57186  0.35404  1.0000
  C   C167      1.0  0.49222  0.56298  0.35553  1.0000
  C   C168      1.0  0.48800  0.57910  0.35680  1.0000
  C   C169      1.0  0.50650  0.59734  0.35624  1.0000
  C   C170      1.0  0.47745  0.54168  0.35575  1.0000
  C   C171      1.0  0.45635  0.53615  0.35858  1.0000
  C   C172      1.0  0.44676  0.53485  0.44113  1.0000
  C   C173      1.0  0.42631  0.53066  0.44373  1.0000
  C   C174      1.0  0.41484  0.52756  0.36418  1.0000
  C   C175      1.0  0.39466  0.52497  0.36645  1.0000
  C   C176      1.0  0.35508  0.52194  0.36369  1.0000
  C   C177      1.0  0.37119  0.53663  0.41778  1.0000
  C   C178      1.0  0.39057  0.53806  0.41936  1.0000
  C   C179      1.0  0.54977  0.62820  0.35581  1.0000
  C   C180      1.0  0.55417  0.63873  0.43797  1.0000
  C   C181      1.0  0.56037  0.65975  0.44015  1.0000
  C   C182      1.0  0.56233  0.67087  0.36054  1.0000
  C   C183      1.0  0.56844  0.69220  0.36354  1.0000
  C   C184      1.0  0.58468  0.70596  0.41979  1.0000
  C   C185      1.0  0.58992  0.72667  0.42704  1.0000
  C   C186      1.0  0.57919  0.73446  0.37772  1.0000
  C   C187      1.0  0.60217  0.57337  0.35912  1.0000
  C   C188      1.0  0.64387  0.58253  0.36509  1.0000
  C   C189      1.0  0.63272  0.58012  0.44463  1.0000
  C   C190      1.0  0.61217  0.57565  0.44184  1.0000
  C   C191      1.0  0.66422  0.58555  0.36792  1.0000
  C   C192      1.0  0.66893  0.57334  0.42464  1.0000
  C   C193      1.0  0.68846  0.57514  0.42369  1.0000
  C   C194      1.0  0.70412  0.58933  0.36644  1.0000
  C   C195      1.0  0.50877  0.48130  0.35581  1.0000
  C   C196      1.0  0.50463  0.47070  0.43801  1.0000
  C   C197      1.0  0.49867  0.44974  0.44019  1.0000
  C   C198      1.0  0.49671  0.43875  0.36057  1.0000
  C   C199      1.0  0.49094  0.41750  0.36360  1.0000
  C   C200      1.0  0.48091  0.37542  0.37791  1.0000
  C   C201      1.0  0.47005  0.38290  0.42744  1.0000
  C   C202      1.0  0.47493  0.40353  0.42016  1.0000
  H   H115      1.0  0.45864  0.37346  0.47063  1.0000
  H   H116      1.0  0.46670  0.40829  0.45742  1.0000
  H   H117      1.0  0.49618  0.44266  0.50113  1.0000
  H   H118      1.0  0.50603  0.47820  0.49684  1.0000
  H   H119      1.0  0.47108  0.47809  0.35351  1.0000
  H   H120      1.0  0.45205  0.49799  0.35495  1.0000
  H   H121      1.0  0.51360  0.53931  0.35413  1.0000
  H   H122      1.0  0.54491  0.57018  0.35556  1.0000
  H   H123      1.0  0.55057  0.49790  0.35832  1.0000
  H   H124      1.0  0.58463  0.53148  0.35970  1.0000
  H   H125      1.0  0.60445  0.57371  0.50054  1.0000
  H   H126      1.0  0.63945  0.58152  0.50574  1.0000
  H   H127      1.0  0.60647  0.61151  0.35406  1.0000
  H   H128      1.0  0.58744  0.63141  0.35241  1.0000
  H   H129      1.0  0.47390  0.57803  0.35803  1.0000
  H   H130      1.0  0.50797  0.61161  0.35719  1.0000
  H   H131      1.0  0.55284  0.63115  0.49678  1.0000
  H   H132      1.0  0.56309  0.66679  0.50107  1.0000
  H   H133      1.0  0.60149  0.73596  0.46999  1.0000
  H   H134      1.0  0.59283  0.70097  0.45687  1.0000
  H   H135      1.0  0.40195  0.54942  0.45706  1.0000
  H   H136      1.0  0.36913  0.54681  0.45541  1.0000
  H   H137      1.0  0.41991  0.53006  0.50467  1.0000
  H   H138      1.0  0.45475  0.53740  0.49976  1.0000
  H   H139      1.0  0.65788  0.56235  0.46486  1.0000
  H   H140      1.0  0.69098  0.56559  0.46418  1.0000
  C   C203      1.0  0.33666  0.52207  0.35875  1.0000
  C   C204      1.0  0.58337  0.75444  0.39235  1.0000
  C   C205      1.0  0.72267  0.58948  0.36210  1.0000
  C   C206      1.0  0.47710  0.35554  0.39255  1.0000
  H   H141      1.0  0.33686  0.53505  0.37441  1.0000
  H   H142      1.0  0.47208  0.34925  0.45249  1.0000
  H   H143      1.0  0.72275  0.57672  0.37991  1.0000
  H   H144      1.0  0.58853  0.76063  0.45230  1.0000
  C   C207      1.0  0.59310  0.06599  0.35690  1.0000
  C   C208      1.0  0.58227  0.04478  0.35796  1.0000
  C   C209      1.0  0.56130  0.03831  0.35812  1.0000
  N   N15       1.0  0.56022  0.05579  0.35720  1.0000
  C   C210      1.0  0.57901  0.07298  0.35688  1.0000
  C   C211      1.0  0.58429  0.09400  0.35708  1.0000
  C   C212      1.0  0.56993  0.10105  0.35809  1.0000
  N   N16       1.0  0.54920  0.08964  0.35778  1.0000
  C   C213      1.0  0.54032  0.10145  0.35981  1.0000
  C   C214      1.0  0.55643  0.12178  0.36144  1.0000
  C   C215      1.0  0.57467  0.12154  0.36032  1.0000
  C   C216      1.0  0.51902  0.09490  0.36012  1.0000
  C   C217      1.0  0.50291  0.07405  0.35848  1.0000
  N   N17       1.0  0.50399  0.05658  0.35794  1.0000
  C   C218      1.0  0.48521  0.03939  0.35703  1.0000
  C   C219      1.0  0.47112  0.04639  0.35628  1.0000
  C   C220      1.0  0.48195  0.06759  0.35742  1.0000
  C   C221      1.0  0.47992  0.01837  0.35719  1.0000
  C   C222      1.0  0.49428  0.01132  0.35797  1.0000
  N   N18       1.0  0.51501  0.02273  0.35767  1.0000
  C   C223      1.0  0.52389  0.01092  0.35921  1.0000
  C   C224      1.0  0.50777  0.99058  0.36035  1.0000
  C   C225      1.0  0.48953  0.99083  0.35963  1.0000
  C   C226      1.0  0.54519  0.01746  0.35952  1.0000
  C   C227      1.0  0.55073  0.00189  0.36239  1.0000
  C   C228      1.0  0.55202  0.99345  0.44496  1.0000
  C   C229      1.0  0.55621  0.97719  0.44760  1.0000
  C   C230      1.0  0.55932  0.96895  0.36806  1.0000
  C   C231      1.0  0.56192  0.95137  0.37039  1.0000
  C   C232      1.0  0.56495  0.91482  0.36764  1.0000
  C   C233      1.0  0.55026  0.91614  0.42169  1.0000
  C   C234      1.0  0.54883  0.93409  0.42330  1.0000
  C   C235      1.0  0.45866  0.00323  0.35850  1.0000
  C   C236      1.0  0.44800  0.99683  0.44035  1.0000
  C   C237      1.0  0.42698  0.98199  0.44188  1.0000
  C   C238      1.0  0.41599  0.97307  0.36191  1.0000
  C   C239      1.0  0.39466  0.95783  0.36421  1.0000
  C   C240      1.0  0.38081  0.96011  0.42027  1.0000
  C   C241      1.0  0.36008  0.94459  0.42676  1.0000
  C   C242      1.0  0.35238  0.92624  0.37691  1.0000
  C   C243      1.0  0.51346  0.11045  0.36294  1.0000
  C   C244      1.0  0.50430  0.14298  0.36902  1.0000
  C   C245      1.0  0.50671  0.13408  0.44852  1.0000
  C   C246      1.0  0.51119  0.11802  0.44568  1.0000
  C   C247      1.0  0.50126  0.16028  0.37190  1.0000
  C   C248      1.0  0.51345  0.17709  0.42869  1.0000
  C   C249      1.0  0.51167  0.19484  0.42768  1.0000
  C   C250      1.0  0.49749  0.19641  0.37039  1.0000
  C   C251      1.0  0.60555  0.10916  0.35845  1.0000
  C   C252      1.0  0.61626  0.11560  0.44035  1.0000
  C   C253      1.0  0.63722  0.13062  0.44192  1.0000
  C   C254      1.0  0.64810  0.13969  0.36197  1.0000
  C   C255      1.0  0.66934  0.15518  0.36435  1.0000
  C   C256      1.0  0.71144  0.18725  0.37715  1.0000
  C   C257      1.0  0.70404  0.16891  0.42730  1.0000
  C   C258      1.0  0.68341  0.15316  0.42076  1.0000
  H   H145      1.0  0.71356  0.16695  0.47037  1.0000
  H   H146      1.0  0.67871  0.14017  0.45843  1.0000
  H   H147      1.0  0.64437  0.13520  0.50267  1.0000
  H   H148      1.0  0.60883  0.10948  0.49941  1.0000
  H   H149      1.0  0.60877  0.07469  0.35688  1.0000
  H   H150      1.0  0.58889  0.03576  0.35868  1.0000
  H   H151      1.0  0.54755  0.05597  0.35759  1.0000
  H   H152      1.0  0.51667  0.05639  0.35945  1.0000
  H   H153      1.0  0.58894  0.13434  0.36150  1.0000
  H   H154      1.0  0.55535  0.13481  0.36325  1.0000
  H   H155      1.0  0.51312  0.11213  0.50437  1.0000
  H   H156      1.0  0.50531  0.13930  0.50965  1.0000
  H   H157      1.0  0.47533  0.07661  0.35750  1.0000
  H   H158      1.0  0.45544  0.03770  0.35558  1.0000
  H   H159      1.0  0.50885  0.97755  0.36155  1.0000
  H   H160      1.0  0.47526  0.97802  0.36044  1.0000
  H   H161      1.0  0.45550  0.00289  0.49941  1.0000
  H   H162      1.0  0.41986  0.97746  0.50258  1.0000
  H   H163      1.0  0.35072  0.94671  0.46962  1.0000
  H   H164      1.0  0.38573  0.97311  0.45772  1.0000
  H   H165      1.0  0.53747  0.93405  0.46099  1.0000
  H   H166      1.0  0.54009  0.90384  0.45935  1.0000
  H   H167      1.0  0.55681  0.97128  0.50854  1.0000
  H   H168      1.0  0.54947  0.99879  0.50357  1.0000
  H   H169      1.0  0.52447  0.17698  0.46879  1.0000
  H   H170      1.0  0.52124  0.20685  0.46810  1.0000
  C   C259      1.0  0.56482  0.89628  0.36264  1.0000
  C   C260      1.0  0.33239  0.91038  0.39081  1.0000
  C   C261      1.0  0.49736  0.21483  0.36595  1.0000
  C   C262      1.0  0.73134  0.20332  0.39102  1.0000
  H   H171      1.0  0.55183  0.88347  0.37823  1.0000
  H   H172      1.0  0.73772  0.20461  0.45086  1.0000
  H   H173      1.0  0.51013  0.22764  0.38367  1.0000
  H   H174      1.0  0.32613  0.90910  0.45070  1.0000
  C   C263      1.0  0.21927  0.51030  0.40845  1.0000
  C   C264      1.0  0.23791  0.50990  0.40888  1.0000
  C   C265      1.0  0.26480  0.48793  0.36664  1.0000
  C   C266      1.0  0.28393  0.48880  0.36900  1.0000
  C   C267      1.0  0.30125  0.50529  0.32880  1.0000
  H   H175      1.0  0.25264  0.47613  0.39922  1.0000
  H   H176      1.0  0.28528  0.47768  0.40296  1.0000
  H   H177      1.0  0.21557  0.51600  0.46288  1.0000
  C   C268      1.0  0.25095  0.51760  0.49078  1.0000
  O   O7        1.0  0.24046  0.50402  0.56377  1.0000
  H   H178      1.0  0.26590  0.51871  0.48264  1.0000
  H   H179      1.0  0.25380  0.53305  0.50595  1.0000
  H   H180      1.0  0.24909  0.50966  0.61743  1.0000
  N   N19       1.0  0.31943  0.50631  0.33616  1.0000
  C   C269      1.0  0.57654  0.79055  0.41211  1.0000
  C   C270      1.0  0.57696  0.80960  0.41255  1.0000
  C   C271      1.0  0.58341  0.84084  0.32694  1.0000
  C   C272      1.0  0.59895  0.85854  0.37031  1.0000
  C   C273      1.0  0.59808  0.87679  0.37274  1.0000
  C   C274      1.0  0.58159  0.87770  0.33260  1.0000
  H   H181      1.0  0.61072  0.85809  0.40297  1.0000
  H   H182      1.0  0.60919  0.88919  0.40683  1.0000
  H   H183      1.0  0.57086  0.78106  0.46658  1.0000
  C   C275      1.0  0.56927  0.81480  0.49444  1.0000
  O   O8        1.0  0.58285  0.81776  0.56743  1.0000
  H   H184      1.0  0.56816  0.82865  0.48629  1.0000
  H   H185      1.0  0.55382  0.80219  0.50962  1.0000
  H   H186      1.0  0.57721  0.82066  0.62109  1.0000
  N   N20       1.0  0.58057  0.89484  0.34005  1.0000
  C   C276      1.0  0.29626  0.86737  0.40865  1.0000
  C   C277      1.0  0.27719  0.84875  0.40827  1.0000
  C   C278      1.0  0.22831  0.82203  0.36511  1.0000
  C   C279      1.0  0.21005  0.80291  0.36692  1.0000
  C   C280      1.0  0.20915  0.78565  0.32606  1.0000
  H   H187      1.0  0.22875  0.83413  0.39837  1.0000
  H   H188      1.0  0.19765  0.80149  0.40121  1.0000
  H   H189      1.0  0.30568  0.87094  0.46329  1.0000
  C   C281      1.0  0.27188  0.83553  0.48962  1.0000
  O   O9        1.0  0.26883  0.84586  0.56300  1.0000
  H   H190      1.0  0.25803  0.82060  0.48081  1.0000
  H   H191      1.0  0.28447  0.83262  0.50476  1.0000
  H   H192      1.0  0.26585  0.83711  0.61631  1.0000
  N   N21       1.0  0.19202  0.76746  0.33317  1.0000
  C   C282      1.0  0.84051  0.60226  0.40870  1.0000
  C   C283      1.0  0.82174  0.60241  0.40922  1.0000
  C   C284      1.0  0.79443  0.62405  0.36676  1.0000
  C   C285      1.0  0.77524  0.62303  0.36918  1.0000
  C   C286      1.0  0.75790  0.60641  0.32968  1.0000
  H   H193      1.0  0.80662  0.63593  0.39888  1.0000
  H   H194      1.0  0.77385  0.63409  0.40288  1.0000
  H   H195      1.0  0.84441  0.59663  0.46320  1.0000
  C   C287      1.0  0.80885  0.59454  0.49126  1.0000
  O   O10       1.0  0.81936  0.60811  0.56410  1.0000
  H   H196      1.0  0.79381  0.59326  0.48321  1.0000
  H   H197      1.0  0.80619  0.57914  0.50654  1.0000
  H   H198      1.0  0.81083  0.60237  0.61785  1.0000
  N   N22       1.0  0.73966  0.60521  0.33701  1.0000
  C   C288      1.0  0.48460  0.31983  0.41249  1.0000
  C   C289      1.0  0.48446  0.30091  0.41301  1.0000
  C   C290      1.0  0.47826  0.26986  0.32767  1.0000
  C   C291      1.0  0.46280  0.25204  0.37063  1.0000
  C   C292      1.0  0.46383  0.23387  0.37319  1.0000
  C   C293      1.0  0.48043  0.23319  0.33359  1.0000
  H   H199      1.0  0.45093  0.25231  0.40276  1.0000
  H   H200      1.0  0.45276  0.22135  0.40681  1.0000
  H   H201      1.0  0.49023  0.32927  0.46696  1.0000
  C   C294      1.0  0.49233  0.29575  0.49503  1.0000
  O   O11       1.0  0.47875  0.29255  0.56788  1.0000
  H   H202      1.0  0.49362  0.28201  0.48698  1.0000
  H   H203      1.0  0.50772  0.30847  0.51031  1.0000
  H   H204      1.0  0.48450  0.28968  0.62163  1.0000
  N   N23       1.0  0.48163  0.21614  0.34095  1.0000
  C   C295      1.0  0.76708  0.24654  0.40893  1.0000
  C   C296      1.0  0.78601  0.26530  0.40862  1.0000
  C   C297      1.0  0.83482  0.29245  0.36525  1.0000
  C   C298      1.0  0.85299  0.31164  0.36724  1.0000
  C   C299      1.0  0.85365  0.32892  0.32697  1.0000
  H   H205      1.0  0.83455  0.28032  0.39803  1.0000
  H   H206      1.0  0.86551  0.31309  0.40111  1.0000
  H   H207      1.0  0.75772  0.24277  0.46362  1.0000
  C   C300      1.0  0.79128  0.27838  0.49008  1.0000
  O   O12       1.0  0.79458  0.26804  0.56334  1.0000
  H   H208      1.0  0.80501  0.29340  0.48134  1.0000
  H   H209      1.0  0.77859  0.28106  0.50531  1.0000
  H   H210      1.0  0.79753  0.27670  0.61671  1.0000
  N   N24       1.0  0.87070  0.34717  0.33399  1.0000
