data_image0
_chemical_formula_structural       C4H2CNC2NCH4C2NC6NC36H20N4C3NC3NC5NC5NC36H26N4C3NC3NC5NC5NC36H26N4C2H2C3H2CHC2H2C3H2CHC2H2C3H2CHC2H2C3H2CHC2H2C3H2CHC2H2C3H2CHC16H16C16H16C16H16C7H3NH2CHC7H3NH2CHC7H3NH2CHC7H3NH2CHC7H3NH2CHC7H3NH2CH
_chemical_formula_sum              "C288 H192 N30"
_cell_length_a       75.344
_cell_length_b       75.3439
_cell_length_c       14.9592
_cell_angle_alpha    89.8516
_cell_angle_beta     90.1484
_cell_angle_gamma    120

_space_group_name_H-M_alt    "P 1"
_space_group_IT_number       1

loop_
  _space_group_symop_operation_xyz
  'x, y, z'

loop_
  _atom_site_type_symbol
  _atom_site_label
  _atom_site_symmetry_multiplicity
  _atom_site_fract_x
  _atom_site_fract_y
  _atom_site_fract_z
  _atom_site_occupancy
  C   C1        1.0  0.01936  0.49397  0.30220  1.0000
  C   C2        1.0  0.01231  0.50793  0.30648  1.0000
  C   C3        1.0  0.01067  0.58356  0.30579  1.0000
  C   C4        1.0  0.01704  0.60444  0.30136  1.0000
  H   H1        1.0  0.01073  0.47834  0.29996  1.0000
  H   H2        1.0  0.00798  0.61097  0.29837  1.0000
  C   C5        1.0  0.04052  0.50487  0.30131  1.0000
  N   N1        1.0  0.02940  0.52671  0.30825  1.0000
  C   C6        1.0  0.04689  0.52575  0.30572  1.0000
  C   C7        1.0  0.04525  0.60138  0.30656  1.0000
  N   N2        1.0  0.02816  0.58260  0.30833  1.0000
  C   C8        1.0  0.03820  0.61534  0.30225  1.0000
  H   H3        1.0  0.04957  0.49835  0.29841  1.0000
  H   H4        1.0  0.02914  0.53927  0.31358  1.0000
  H   H5        1.0  0.02843  0.57003  0.31372  1.0000
  H   H6        1.0  0.04682  0.63098  0.29998  1.0000
  C   C9        1.0  0.06766  0.54188  0.30736  1.0000
  C   C10       1.0  0.07400  0.56308  0.30948  1.0000
  N   N3        1.0  0.06210  0.57181  0.30766  1.0000
  C   C11       1.0  0.07334  0.59249  0.31053  1.0000
  C   C12       1.0  0.06623  0.60674  0.30922  1.0000
  C   C13       1.0  0.09382  0.59735  0.31421  1.0000
  C   C14       1.0  0.09422  0.57924  0.31380  1.0000
  C   C15       1.0  0.98989  0.56743  0.30746  1.0000
  C   C16       1.0  0.98356  0.54623  0.30952  1.0000
  N   N4        1.0  0.99546  0.53750  0.30761  1.0000
  C   C17       1.0  0.98422  0.51682  0.31049  1.0000
  C   C18       1.0  0.96375  0.51196  0.31422  1.0000
  C   C19       1.0  0.96334  0.53007  0.31387  1.0000
  C   C20       1.0  0.99133  0.50256  0.30914  1.0000
  C   C21       1.0  0.97624  0.48136  0.31103  1.0000
  C   C22       1.0  0.94400  0.43960  0.31536  1.0000
  C   C23       1.0  0.95219  0.44979  0.23314  1.0000
  C   C24       1.0  0.96801  0.47041  0.23086  1.0000
  C   C25       1.0  0.92718  0.41902  0.31767  1.0000
  C   C26       1.0  0.92641  0.40364  0.26078  1.0000
  C   C27       1.0  0.90961  0.38349  0.26260  1.0000
  C   C28       1.0  0.89314  0.37801  0.32191  1.0000
  C   C29       1.0  0.97423  0.57280  0.30686  1.0000
  C   C30       1.0  0.94182  0.58206  0.30702  1.0000
  C   C31       1.0  0.94730  0.57571  0.22782  1.0000
  C   C32       1.0  0.96334  0.57124  0.22753  1.0000
  C   C33       1.0  0.92522  0.58611  0.30766  1.0000
  C   C34       1.0  0.89161  0.59367  0.31141  1.0000
  C   C35       1.0  0.88949  0.57578  0.27146  1.0000
  C   C36       1.0  0.90609  0.57216  0.26870  1.0000
  C   C37       1.0  0.08131  0.62795  0.31110  1.0000
  C   C38       1.0  0.08931  0.63902  0.23092  1.0000
  C   C39       1.0  0.10499  0.65969  0.23316  1.0000
  C   C40       1.0  0.11325  0.66983  0.31536  1.0000
  C   C41       1.0  0.12987  0.69051  0.31761  1.0000
  C   C42       1.0  0.16347  0.73176  0.32190  1.0000
  C   C43       1.0  0.14686  0.72611  0.26297  1.0000
  C   C44       1.0  0.13028  0.70584  0.26113  1.0000
  C   C45       1.0  0.08334  0.53653  0.30659  1.0000
  C   C46       1.0  0.09416  0.53817  0.22717  1.0000
  C   C47       1.0  0.11602  0.52767  0.30671  1.0000
  C   C48       1.0  0.11032  0.53388  0.22743  1.0000
  C   C49       1.0  0.13283  0.52393  0.30741  1.0000
  C   C50       1.0  0.15184  0.53807  0.26819  1.0000
  C   C51       1.0  0.16864  0.53478  0.27104  1.0000
  C   C52       1.0  0.16687  0.51703  0.31142  1.0000
  H   H7        1.0  0.18227  0.54550  0.24337  1.0000
  H   H8        1.0  0.15383  0.55128  0.23935  1.0000
  H   H9        1.0  0.11785  0.53525  0.16869  1.0000
  H   H10       1.0  0.09051  0.54277  0.16884  1.0000
  H   H11       1.0  0.10728  0.57829  0.31653  1.0000
  H   H12       1.0  0.10653  0.61162  0.31695  1.0000
  H   H13       1.0  0.08403  0.63199  0.17037  1.0000
  H   H14       1.0  0.11085  0.66704  0.17373  1.0000
  H   H15       1.0  0.95103  0.49769  0.31702  1.0000
  H   H16       1.0  0.95029  0.53102  0.31668  1.0000
  H   H17       1.0  0.96686  0.56660  0.16921  1.0000
  H   H18       1.0  0.93974  0.57443  0.16912  1.0000
  H   H19       1.0  0.90385  0.55885  0.24018  1.0000
  H   H20       1.0  0.87577  0.56518  0.24401  1.0000
  H   H21       1.0  0.97320  0.47749  0.17030  1.0000
  H   H22       1.0  0.94615  0.44254  0.17372  1.0000
  H   H23       1.0  0.90957  0.37275  0.22063  1.0000
  H   H24       1.0  0.93823  0.40691  0.21795  1.0000
  H   H25       1.0  0.11833  0.70245  0.21863  1.0000
  H   H26       1.0  0.14663  0.73680  0.22132  1.0000
  N   N5        1.0  0.87736  0.35888  0.31952  1.0000
  N   N6        1.0  0.18357  0.51527  0.31493  1.0000
  N   N7        1.0  0.17904  0.75101  0.31961  1.0000
  N   N8        1.0  0.87509  0.59574  0.31487  1.0000
  C   C53       1.0  0.58019  0.61939  0.30410  1.0000
  C   C54       1.0  0.59109  0.60913  0.30498  1.0000
  C   C55       1.0  0.57712  0.58811  0.30897  1.0000
  N   N9        1.0  0.55835  0.58643  0.31069  1.0000
  C   C56       1.0  0.55931  0.60488  0.30819  1.0000
  C   C57       1.0  0.54317  0.60952  0.30960  1.0000
  C   C58       1.0  0.52197  0.59466  0.31166  1.0000
  N   N10       1.0  0.51324  0.57402  0.30996  1.0000
  C   C59       1.0  0.49256  0.56459  0.31277  1.0000
  C   C60       1.0  0.48770  0.58021  0.31630  1.0000
  C   C61       1.0  0.50581  0.59872  0.31585  1.0000
  C   C62       1.0  0.47830  0.54323  0.31153  1.0000
  C   C63       1.0  0.48367  0.52762  0.30890  1.0000
  N   N11       1.0  0.50244  0.52930  0.31063  1.0000
  C   C64       1.0  0.50148  0.51085  0.30812  1.0000
  C   C65       1.0  0.48060  0.49634  0.30378  1.0000
  C   C66       1.0  0.46970  0.50660  0.30471  1.0000
  C   C67       1.0  0.51761  0.50620  0.30974  1.0000
  C   C68       1.0  0.53881  0.52106  0.31172  1.0000
  N   N12       1.0  0.54754  0.54170  0.30989  1.0000
  C   C69       1.0  0.56823  0.55113  0.31262  1.0000
  C   C70       1.0  0.57308  0.53551  0.31622  1.0000
  C   C71       1.0  0.55497  0.51699  0.31592  1.0000
  C   C72       1.0  0.58248  0.57250  0.31136  1.0000
  C   C73       1.0  0.60369  0.57860  0.31323  1.0000
  C   C74       1.0  0.64544  0.58812  0.31749  1.0000
  C   C75       1.0  0.63524  0.58619  0.23528  1.0000
  C   C76       1.0  0.61464  0.58142  0.23303  1.0000
  C   C77       1.0  0.66602  0.59188  0.31975  1.0000
  C   C78       1.0  0.68140  0.60654  0.26280  1.0000
  C   C79       1.0  0.70155  0.60989  0.26454  1.0000
  C   C80       1.0  0.70704  0.59884  0.32384  1.0000
  C   C81       1.0  0.51223  0.48517  0.30912  1.0000
  C   C82       1.0  0.50297  0.44349  0.30927  1.0000
  C   C83       1.0  0.50931  0.45540  0.23006  1.0000
  C   C84       1.0  0.51378  0.47591  0.22977  1.0000
  C   C85       1.0  0.49893  0.42285  0.30991  1.0000
  C   C86       1.0  0.49137  0.38168  0.31360  1.0000
  C   C87       1.0  0.50926  0.39749  0.27363  1.0000
  C   C88       1.0  0.51288  0.41772  0.27095  1.0000
  C   C89       1.0  0.45710  0.53710  0.31339  1.0000
  C   C90       1.0  0.44603  0.53410  0.23319  1.0000
  C   C91       1.0  0.42536  0.52913  0.23541  1.0000
  C   C92       1.0  0.41521  0.52716  0.31759  1.0000
  C   C93       1.0  0.39453  0.52308  0.31980  1.0000
  C   C94       1.0  0.35328  0.51544  0.32386  1.0000
  C   C95       1.0  0.35894  0.50452  0.26505  1.0000
  C   C96       1.0  0.37921  0.50821  0.26333  1.0000
  C   C97       1.0  0.54853  0.63055  0.30882  1.0000
  C   C98       1.0  0.54691  0.63981  0.22936  1.0000
  C   C99       1.0  0.55739  0.67210  0.30890  1.0000
  C   C100      1.0  0.55119  0.66026  0.22961  1.0000
  C   C101      1.0  0.56112  0.69264  0.30958  1.0000
  C   C102      1.0  0.54698  0.69754  0.27034  1.0000
  C   C103      1.0  0.55027  0.71764  0.27317  1.0000
  C   C104      1.0  0.56802  0.73357  0.31356  1.0000
  H   H27       1.0  0.53955  0.72056  0.24548  1.0000
  H   H28       1.0  0.53377  0.68635  0.24148  1.0000
  H   H29       1.0  0.54983  0.66648  0.17086  1.0000
  H   H30       1.0  0.54232  0.63164  0.17103  1.0000
  H   H31       1.0  0.58672  0.63498  0.30118  1.0000
  H   H32       1.0  0.60672  0.61614  0.30275  1.0000
  H   H33       1.0  0.54577  0.57358  0.31525  1.0000
  H   H34       1.0  0.51502  0.54213  0.31594  1.0000
  H   H35       1.0  0.50677  0.61272  0.31848  1.0000
  H   H36       1.0  0.47344  0.57866  0.31897  1.0000
  H   H37       1.0  0.45305  0.53589  0.17266  1.0000
  H   H38       1.0  0.41800  0.52764  0.17595  1.0000
  H   H39       1.0  0.45406  0.49959  0.30251  1.0000
  H   H40       1.0  0.47406  0.48076  0.30089  1.0000
  H   H41       1.0  0.58734  0.53705  0.31890  1.0000
  H   H42       1.0  0.55402  0.50299  0.31862  1.0000
  H   H43       1.0  0.51841  0.48413  0.17145  1.0000
  H   H44       1.0  0.51058  0.44918  0.17135  1.0000
  H   H45       1.0  0.52617  0.42881  0.24231  1.0000
  H   H46       1.0  0.51985  0.39439  0.24612  1.0000
  H   H47       1.0  0.60755  0.57960  0.17250  1.0000
  H   H48       1.0  0.64250  0.58750  0.17585  1.0000
  H   H49       1.0  0.71228  0.62063  0.22255  1.0000
  H   H50       1.0  0.67813  0.61514  0.22001  1.0000
  H   H51       1.0  0.38261  0.49970  0.22086  1.0000
  H   H52       1.0  0.34825  0.49364  0.22340  1.0000
  N   N13       1.0  0.72616  0.60218  0.32131  1.0000
  N   N14       1.0  0.56978  0.75203  0.31706  1.0000
  N   N15       1.0  0.33403  0.51175  0.32142  1.0000
  N   N16       1.0  0.48930  0.36308  0.31702  1.0000
  C   C105      1.0  0.46565  0.04453  0.30571  1.0000
  C   C106      1.0  0.47591  0.06569  0.30672  1.0000
  C   C107      1.0  0.49693  0.07274  0.31093  1.0000
  N   N17       1.0  0.49861  0.05565  0.31266  1.0000
  C   C108      1.0  0.48016  0.03815  0.30998  1.0000
  C   C109      1.0  0.47553  0.01738  0.31141  1.0000
  C   C110      1.0  0.49039  0.01104  0.31363  1.0000
  N   N18       1.0  0.51103  0.02295  0.31198  1.0000
  C   C111      1.0  0.52046  0.01170  0.31492  1.0000
  C   C112      1.0  0.50485  0.99122  0.31845  1.0000
  C   C113      1.0  0.48633  0.99082  0.31787  1.0000
  C   C114      1.0  0.54183  0.01882  0.31366  1.0000
  C   C115      1.0  0.55743  0.03979  0.31091  1.0000
  N   N19       1.0  0.55575  0.05688  0.31266  1.0000
  C   C116      1.0  0.57420  0.07438  0.30997  1.0000
  C   C117      1.0  0.58870  0.06801  0.30550  1.0000
  C   C118      1.0  0.57845  0.04685  0.30655  1.0000
  C   C119      1.0  0.57884  0.09515  0.31153  1.0000
  C   C120      1.0  0.56398  0.10148  0.31367  1.0000
  N   N20       1.0  0.54334  0.08958  0.31191  1.0000
  C   C121      1.0  0.53391  0.10083  0.31478  1.0000
  C   C122      1.0  0.54952  0.12130  0.31842  1.0000
  C   C123      1.0  0.56804  0.12170  0.31795  1.0000
  C   C124      1.0  0.51254  0.09371  0.31354  1.0000
  C   C125      1.0  0.50643  0.10881  0.31541  1.0000
  C   C126      1.0  0.49691  0.14104  0.31973  1.0000
  C   C127      1.0  0.49884  0.13285  0.23751  1.0000
  C   C128      1.0  0.50360  0.11702  0.23524  1.0000
  C   C129      1.0  0.49315  0.15786  0.32200  1.0000
  C   C130      1.0  0.47849  0.15863  0.26508  1.0000
  C   C131      1.0  0.47513  0.17543  0.26682  1.0000
  C   C132      1.0  0.48619  0.19191  0.32607  1.0000
  C   C133      1.0  0.59987  0.11081  0.31056  1.0000
  C   C134      1.0  0.64154  0.14323  0.30993  1.0000
  C   C135      1.0  0.62955  0.13769  0.23094  1.0000
  C   C136      1.0  0.60904  0.12165  0.23103  1.0000
  C   C137      1.0  0.66218  0.15983  0.31016  1.0000
  C   C138      1.0  0.70336  0.19344  0.31295  1.0000
  C   C139      1.0  0.68750  0.19554  0.27334  1.0000
  C   C140      1.0  0.66727  0.17894  0.27105  1.0000
  C   C141      1.0  0.54795  0.00373  0.31555  1.0000
  C   C142      1.0  0.55095  0.99575  0.23537  1.0000
  C   C143      1.0  0.55593  0.98005  0.23761  1.0000
  C   C144      1.0  0.55790  0.97179  0.31980  1.0000
  C   C145      1.0  0.56197  0.95518  0.32203  1.0000
  C   C146      1.0  0.56963  0.92158  0.32618  1.0000
  C   C147      1.0  0.58053  0.93820  0.26728  1.0000
  C   C148      1.0  0.57684  0.95478  0.26552  1.0000
  C   C149      1.0  0.45450  0.00171  0.31028  1.0000
  C   C150      1.0  0.44531  0.99095  0.23064  1.0000
  C   C151      1.0  0.41296  0.96901  0.30959  1.0000
  C   C152      1.0  0.42487  0.97477  0.23052  1.0000
  C   C153      1.0  0.39242  0.95220  0.30988  1.0000
  C   C154      1.0  0.38756  0.93322  0.27050  1.0000
  C   C155      1.0  0.36746  0.91641  0.27292  1.0000
  C   C156      1.0  0.35148  0.91816  0.31297  1.0000
  H   H53       1.0  0.36456  0.90281  0.24515  1.0000
  H   H54       1.0  0.39878  0.93125  0.24190  1.0000
  H   H55       1.0  0.41871  0.96728  0.17165  1.0000
  H   H56       1.0  0.45355  0.99462  0.17247  1.0000
  H   H57       1.0  0.45007  0.03547  0.30270  1.0000
  H   H58       1.0  0.46890  0.07431  0.30448  1.0000
  H   H59       1.0  0.51145  0.05591  0.31763  1.0000
  H   H60       1.0  0.54291  0.05662  0.31811  1.0000
  H   H61       1.0  0.47233  0.97777  0.32052  1.0000
  H   H62       1.0  0.50640  0.97851  0.32121  1.0000
  H   H63       1.0  0.54914  0.00102  0.17482  1.0000
  H   H64       1.0  0.55738  0.97421  0.17816  1.0000
  H   H65       1.0  0.58546  0.03823  0.30431  1.0000
  H   H66       1.0  0.60428  0.07706  0.30249  1.0000
  H   H67       1.0  0.54798  0.13402  0.32117  1.0000
  H   H68       1.0  0.58205  0.13475  0.32064  1.0000
  H   H69       1.0  0.60077  0.11809  0.17285  1.0000
  H   H70       1.0  0.63572  0.14522  0.17210  1.0000
  H   H71       1.0  0.65615  0.18115  0.24274  1.0000
  H   H72       1.0  0.69057  0.20924  0.24578  1.0000
  H   H73       1.0  0.50543  0.11183  0.17470  1.0000
  H   H74       1.0  0.49752  0.13887  0.17808  1.0000
  H   H75       1.0  0.46440  0.17547  0.22482  1.0000
  H   H76       1.0  0.46988  0.14680  0.22229  1.0000
  H   H77       1.0  0.58534  0.96673  0.22302  1.0000
  H   H78       1.0  0.59140  0.93843  0.22558  1.0000
  N   N21       1.0  0.48285  0.20770  0.32355  1.0000
  N   N22       1.0  0.33301  0.90146  0.31606  1.0000
  N   N23       1.0  0.57330  0.90601  0.32370  1.0000
  N   N24       1.0  0.72196  0.20996  0.31597  1.0000
  C   C157      1.0  0.27561  0.50742  0.27728  1.0000
  C   C158      1.0  0.29526  0.50979  0.28664  1.0000
  H   H79       1.0  0.27089  0.50898  0.21494  1.0000
  H   H80       1.0  0.30419  0.51299  0.23078  1.0000
  C   C159      1.0  0.20522  0.50133  0.32242  1.0000
  C   C160      1.0  0.20842  0.48579  0.28644  1.0000
  C   C161      1.0  0.22754  0.48681  0.29446  1.0000
  H   H81       1.0  0.19676  0.47342  0.25461  1.0000
  H   H82       1.0  0.22923  0.47514  0.26906  1.0000
  C   C162      1.0  0.18593  0.49950  0.31771  1.0000
  H   H83       1.0  0.17366  0.48555  0.31498  1.0000
  C   C163      1.0  0.57762  0.85196  0.27951  1.0000
  C   C164      1.0  0.57525  0.86923  0.28889  1.0000
  H   H84       1.0  0.57608  0.84576  0.21715  1.0000
  H   H85       1.0  0.57209  0.87504  0.23303  1.0000
  C   C165      1.0  0.58371  0.78760  0.32458  1.0000
  C   C166      1.0  0.59925  0.80639  0.28860  1.0000
  C   C167      1.0  0.59822  0.82448  0.29668  1.0000
  H   H86       1.0  0.61162  0.80714  0.25671  1.0000
  H   H87       1.0  0.60988  0.83787  0.27122  1.0000
  C   C168      1.0  0.58555  0.77016  0.31978  1.0000
  H   H88       1.0  0.59950  0.77184  0.31706  1.0000
  C   C169      1.0  0.23314  0.80943  0.27638  1.0000
  C   C170      1.0  0.21586  0.78978  0.28545  1.0000
  H   H89       1.0  0.23943  0.81416  0.21416  1.0000
  H   H90       1.0  0.21013  0.78086  0.22953  1.0000
  C   C171      1.0  0.29743  0.87982  0.32272  1.0000
  C   C172      1.0  0.27869  0.87663  0.28631  1.0000
  C   C173      1.0  0.26059  0.85751  0.29395  1.0000
  H   H91       1.0  0.27799  0.88831  0.25441  1.0000
  H   H92       1.0  0.24722  0.85583  0.26829  1.0000
  C   C174      1.0  0.31489  0.89911  0.31830  1.0000
  H   H93       1.0  0.31321  0.91138  0.31546  1.0000
  C   C175      1.0  0.78405  0.60545  0.27708  1.0000
  C   C176      1.0  0.76457  0.60345  0.28648  1.0000
  H   H94       1.0  0.78864  0.60381  0.21473  1.0000
  H   H95       1.0  0.75562  0.60043  0.23066  1.0000
  C   C177      1.0  0.85392  0.61021  0.32205  1.0000
  C   C178      1.0  0.85101  0.62598  0.28605  1.0000
  C   C179      1.0  0.83206  0.62532  0.29413  1.0000
  H   H96       1.0  0.86278  0.63828  0.25422  1.0000
  H   H97       1.0  0.83060  0.63715  0.26874  1.0000
  C   C180      1.0  0.87305  0.61170  0.31727  1.0000
  H   H98       1.0  0.88546  0.62555  0.31422  1.0000
  C   C181      1.0  0.47958  0.26236  0.27925  1.0000
  C   C182      1.0  0.48158  0.24486  0.28867  1.0000
  H   H99       1.0  0.48121  0.26865  0.21689  1.0000
  H   H100      1.0  0.48460  0.23899  0.23285  1.0000
  C   C183      1.0  0.47484  0.32743  0.32417  1.0000
  C   C184      1.0  0.45907  0.30879  0.28817  1.0000
  C   C185      1.0  0.45973  0.29050  0.29623  1.0000
  H   H101      1.0  0.44678  0.30830  0.25628  1.0000
  H   H102      1.0  0.44790  0.27723  0.27082  1.0000
  C   C186      1.0  0.47335  0.34508  0.31944  1.0000
  H   H103      1.0  0.45949  0.34364  0.31644  1.0000
  C   C187      1.0  0.82264  0.30097  0.27613  1.0000
  C   C188      1.0  0.84015  0.32047  0.28527  1.0000
  H   H104      1.0  0.81629  0.29637  0.21388  1.0000
  H   H105      1.0  0.84598  0.32939  0.22936  1.0000
  C   C189      1.0  0.75761  0.23113  0.32229  1.0000
  C   C190      1.0  0.77621  0.23403  0.28577  1.0000
  C   C191      1.0  0.79451  0.25298  0.29351  1.0000
  H   H106      1.0  0.77666  0.22226  0.25376  1.0000
  H   H107      1.0  0.80775  0.25444  0.26770  1.0000
  C   C192      1.0  0.73996  0.21200  0.31783  1.0000
  H   H108      1.0  0.74139  0.19959  0.31470  1.0000
  C   C193      1.0  0.96847  0.47127  0.39337  1.0000
  C   C194      1.0  0.95258  0.45070  0.39534  1.0000
  C   C195      1.0  0.89364  0.39337  0.37777  1.0000
  C   C196      1.0  0.91041  0.41348  0.37594  1.0000
  C   C197      1.0  0.96892  0.57918  0.38613  1.0000
  C   C198      1.0  0.95301  0.58385  0.38598  1.0000
  C   C199      1.0  0.92718  0.60390  0.34888  1.0000
  C   C200      1.0  0.91066  0.60766  0.35063  1.0000
  C   C201      1.0  0.10492  0.65861  0.39536  1.0000
  C   C202      1.0  0.08917  0.63798  0.39343  1.0000
  C   C203      1.0  0.14679  0.69623  0.37548  1.0000
  C   C204      1.0  0.16334  0.71646  0.37738  1.0000
  C   C205      1.0  0.08884  0.53025  0.38591  1.0000
  C   C206      1.0  0.10488  0.52577  0.38574  1.0000
  C   C207      1.0  0.14795  0.50284  0.35089  1.0000
  C   C208      1.0  0.13122  0.50628  0.34904  1.0000
  H   H109      1.0  0.14632  0.49009  0.38283  1.0000
  H   H110      1.0  0.11774  0.49564  0.37804  1.0000
  H   H111      1.0  0.10878  0.52173  0.44486  1.0000
  H   H112      1.0  0.08140  0.52917  0.44460  1.0000
  H   H113      1.0  0.08369  0.63025  0.45248  1.0000
  H   H114      1.0  0.11024  0.66538  0.45628  1.0000
  H   H115      1.0  0.97644  0.58022  0.44473  1.0000
  H   H116      1.0  0.94928  0.58799  0.44504  1.0000
  H   H117      1.0  0.91253  0.62051  0.38229  1.0000
  H   H118      1.0  0.94075  0.61441  0.37768  1.0000
  H   H119      1.0  0.90996  0.42421  0.41620  1.0000
  H   H120      1.0  0.88163  0.39013  0.41930  1.0000
  H   H121      1.0  0.94730  0.44390  0.45628  1.0000
  H   H122      1.0  0.97408  0.47893  0.45243  1.0000
  H   H123      1.0  0.14750  0.68556  0.41549  1.0000
  H   H124      1.0  0.17547  0.71985  0.41864  1.0000
  C   C209      1.0  0.61378  0.58083  0.39556  1.0000
  C   C210      1.0  0.63435  0.58551  0.39749  1.0000
  C   C211      1.0  0.69169  0.58393  0.37976  1.0000
  C   C212      1.0  0.67157  0.58058  0.37794  1.0000
  C   C213      1.0  0.50587  0.47340  0.38841  1.0000
  C   C214      1.0  0.50120  0.45282  0.38825  1.0000
  C   C215      1.0  0.48114  0.40697  0.35114  1.0000
  C   C216      1.0  0.47738  0.38668  0.35287  1.0000
  C   C217      1.0  0.42644  0.52999  0.39760  1.0000
  C   C218      1.0  0.44707  0.53487  0.39570  1.0000
  C   C219      1.0  0.38879  0.53422  0.37759  1.0000
  C   C220      1.0  0.36856  0.53055  0.37936  1.0000
  C   C221      1.0  0.55479  0.64226  0.38814  1.0000
  C   C222      1.0  0.55928  0.66278  0.38794  1.0000
  C   C223      1.0  0.58220  0.72880  0.35306  1.0000
  C   C224      1.0  0.57877  0.70864  0.35122  1.0000
  H   H125      1.0  0.59496  0.73989  0.38499  1.0000
  H   H126      1.0  0.58941  0.70577  0.38022  1.0000
  H   H127      1.0  0.56330  0.67065  0.44707  1.0000
  H   H128      1.0  0.55585  0.63582  0.44685  1.0000
  H   H129      1.0  0.45480  0.53709  0.45476  1.0000
  H   H130      1.0  0.41967  0.52849  0.45852  1.0000
  H   H131      1.0  0.50483  0.47981  0.44701  1.0000
  H   H132      1.0  0.49706  0.44488  0.44731  1.0000
  H   H133      1.0  0.46454  0.37568  0.38454  1.0000
  H   H134      1.0  0.47063  0.41000  0.37995  1.0000
  H   H135      1.0  0.66085  0.56937  0.41829  1.0000
  H   H136      1.0  0.69494  0.57511  0.42126  1.0000
  H   H137      1.0  0.64116  0.58697  0.45842  1.0000
  H   H138      1.0  0.60612  0.57871  0.45462  1.0000
  H   H139      1.0  0.39946  0.54558  0.41755  1.0000
  H   H140      1.0  0.36517  0.53926  0.42052  1.0000
  C   C225      1.0  0.50420  0.11658  0.39776  1.0000
  C   C226      1.0  0.49953  0.13248  0.39972  1.0000
  C   C227      1.0  0.50111  0.19141  0.38198  1.0000
  C   C228      1.0  0.50444  0.17464  0.38021  1.0000
  C   C229      1.0  0.61171  0.11618  0.38962  1.0000
  C   C230      1.0  0.63229  0.13208  0.38908  1.0000
  C   C231      1.0  0.67811  0.15790  0.35105  1.0000
  C   C232      1.0  0.69839  0.17442  0.35233  1.0000
  C   C233      1.0  0.55508  0.98011  0.39980  1.0000
  C   C234      1.0  0.55019  0.99586  0.39787  1.0000
  C   C235      1.0  0.55085  0.93826  0.37988  1.0000
  C   C236      1.0  0.55452  0.92170  0.38168  1.0000
  C   C237      1.0  0.44272  0.99614  0.38940  1.0000
  C   C238      1.0  0.42220  0.98010  0.38882  1.0000
  C   C239      1.0  0.35621  0.93705  0.35260  1.0000
  C   C240      1.0  0.37638  0.95379  0.35118  1.0000
  H   H141      1.0  0.34508  0.93866  0.38429  1.0000
  H   H142      1.0  0.37921  0.96724  0.38028  1.0000
  H   H143      1.0  0.41427  0.97615  0.44780  1.0000
  H   H144      1.0  0.44910  0.00354  0.44822  1.0000
  H   H145      1.0  0.54798  0.00133  0.45693  1.0000
  H   H146      1.0  0.55658  0.97479  0.46072  1.0000
  H   H147      1.0  0.60535  0.10869  0.44836  1.0000
  H   H148      1.0  0.64029  0.13586  0.44800  1.0000
  H   H149      1.0  0.70943  0.17257  0.38375  1.0000
  H   H150      1.0  0.67510  0.14435  0.37992  1.0000
  H   H151      1.0  0.51566  0.17510  0.42051  1.0000
  H   H152      1.0  0.50993  0.20344  0.42346  1.0000
  H   H153      1.0  0.49807  0.13776  0.46065  1.0000
  H   H154      1.0  0.50633  0.11099  0.45681  1.0000
  H   H155      1.0  0.53949  0.93753  0.41985  1.0000
  H   H156      1.0  0.54581  0.90955  0.42286  1.0000
  C   C241      1.0  0.30290  0.50869  0.37167  1.0000
  C   C242      1.0  0.28994  0.50467  0.44645  1.0000
  C   C243      1.0  0.27005  0.50211  0.43871  1.0000
  C   C244      1.0  0.26294  0.50389  0.35258  1.0000
  C   C245      1.0  0.24393  0.50328  0.33996  1.0000
  C   C246      1.0  0.24090  0.51897  0.37502  1.0000
  C   C247      1.0  0.22183  0.51800  0.36647  1.0000
  H   H157      1.0  0.25249  0.53107  0.40853  1.0000
  H   H158      1.0  0.22008  0.52939  0.39475  1.0000
  H   H159      1.0  0.29515  0.50368  0.50863  1.0000
  N   N25       1.0  0.25847  0.49786  0.51398  1.0000
  H   H160      1.0  0.26355  0.49642  0.57185  1.0000
  H   H161      1.0  0.24441  0.49501  0.51195  1.0000
  C   C248      1.0  0.32281  0.51243  0.38463  1.0000
  H   H162      1.0  0.32862  0.51578  0.44616  1.0000
  C   C249      1.0  0.57635  0.87788  0.37393  1.0000
  C   C250      1.0  0.58035  0.86885  0.44871  1.0000
  C   C251      1.0  0.58290  0.85151  0.44094  1.0000
  C   C252      1.0  0.58113  0.84273  0.35479  1.0000
  C   C253      1.0  0.58175  0.82434  0.34215  1.0000
  C   C254      1.0  0.56607  0.80559  0.37722  1.0000
  C   C255      1.0  0.56704  0.78750  0.36866  1.0000
  H   H163      1.0  0.55396  0.80503  0.41071  1.0000
  H   H164      1.0  0.55565  0.77432  0.39690  1.0000
  H   H165      1.0  0.58134  0.87497  0.51090  1.0000
  N   N26       1.0  0.58714  0.84410  0.51621  1.0000
  H   H166      1.0  0.58863  0.85058  0.57405  1.0000
  H   H167      1.0  0.59003  0.83292  0.51411  1.0000
  C   C256      1.0  0.57263  0.89405  0.38691  1.0000
  H   H168      1.0  0.56931  0.89647  0.44846  1.0000
  C   C257      1.0  0.20710  0.78213  0.37032  1.0000
  C   C258      1.0  0.21601  0.79508  0.44520  1.0000
  C   C259      1.0  0.23335  0.81497  0.43774  1.0000
  C   C260      1.0  0.24225  0.82209  0.35179  1.0000
  C   C261      1.0  0.26066  0.84110  0.33951  1.0000
  C   C262      1.0  0.27937  0.84411  0.37501  1.0000
  C   C263      1.0  0.29748  0.86319  0.36683  1.0000
  H   H169      1.0  0.27988  0.83250  0.40851  1.0000
  H   H170      1.0  0.31062  0.86491  0.39531  1.0000
  H   H171      1.0  0.20980  0.78987  0.50726  1.0000
  N   N27       1.0  0.24066  0.82654  0.51309  1.0000
  H   H172      1.0  0.23416  0.82144  0.57087  1.0000
  H   H173      1.0  0.25191  0.84058  0.51127  1.0000
  C   C264      1.0  0.19091  0.76222  0.38304  1.0000
  H   H174      1.0  0.18843  0.75640  0.44457  1.0000
  C   C265      1.0  0.75711  0.60469  0.37153  1.0000
  C   C266      1.0  0.77009  0.60846  0.44626  1.0000
  C   C267      1.0  0.78982  0.61063  0.43847  1.0000
  C   C268      1.0  0.79673  0.60873  0.35233  1.0000
  C   C269      1.0  0.81556  0.60898  0.33965  1.0000
  C   C270      1.0  0.81828  0.59306  0.37473  1.0000
  C   C271      1.0  0.83718  0.59367  0.36611  1.0000
  H   H175      1.0  0.80659  0.58104  0.40819  1.0000
  H   H176      1.0  0.83871  0.58212  0.39436  1.0000
  H   H177      1.0  0.76502  0.60954  0.50845  1.0000
  N   N28       1.0  0.80143  0.61467  0.51369  1.0000
  H   H178      1.0  0.79647  0.61615  0.57161  1.0000
  H   H179      1.0  0.81538  0.61720  0.51167  1.0000
  C   C272      1.0  0.73735  0.60133  0.38455  1.0000
  H   H180      1.0  0.73161  0.59811  0.44616  1.0000
  C   C273      1.0  0.48035  0.23609  0.37373  1.0000
  C   C274      1.0  0.47660  0.24523  0.44846  1.0000
  C   C275      1.0  0.47442  0.26280  0.44064  1.0000
  C   C276      1.0  0.47631  0.27169  0.35449  1.0000
  C   C277      1.0  0.47606  0.29028  0.34180  1.0000
  C   C278      1.0  0.49198  0.30888  0.37689  1.0000
  C   C279      1.0  0.49137  0.32718  0.36830  1.0000
  H   H181      1.0  0.50399  0.30918  0.41045  1.0000
  H   H182      1.0  0.50292  0.34024  0.39660  1.0000
  H   H183      1.0  0.47553  0.23903  0.51066  1.0000
  N   N29       1.0  0.47040  0.27031  0.51587  1.0000
  H   H184      1.0  0.46887  0.26378  0.57375  1.0000
  H   H185      1.0  0.46781  0.28169  0.51379  1.0000
  C   C280      1.0  0.48372  0.21968  0.38677  1.0000
  H   H186      1.0  0.48695  0.21711  0.44837  1.0000
  C   C281      1.0  0.84902  0.32794  0.37016  1.0000
  C   C282      1.0  0.83996  0.31499  0.44502  1.0000
  C   C283      1.0  0.82238  0.29526  0.43750  1.0000
  C   C284      1.0  0.81339  0.28833  0.35152  1.0000
  C   C285      1.0  0.79478  0.26950  0.33917  1.0000
  C   C286      1.0  0.77623  0.26679  0.37474  1.0000
  C   C287      1.0  0.75792  0.24788  0.36653  1.0000
  H   H187      1.0  0.77597  0.27847  0.40839  1.0000
  H   H188      1.0  0.74490  0.24636  0.39514  1.0000
  H   H189      1.0  0.84624  0.32008  0.50711  1.0000
  N   N30       1.0  0.81495  0.28367  0.51283  1.0000
  H   H190      1.0  0.82158  0.28861  0.57054  1.0000
  H   H191      1.0  0.80359  0.26968  0.51087  1.0000
  C   C288      1.0  0.86545  0.34771  0.38296  1.0000
  H   H192      1.0  0.86809  0.35346  0.44455  1.0000
