data_image0
_chemical_formula_structural       C7H2NH2NO2C7H2NH2NO2C7H2NH2NO2C7H2NH2NO2C7H2NH2NO2C7H2NH2NO2C2HC3HNH2NO2C2HC3HNH2NO2C2HC3HNH2NO2C2HC3HNH2NO2C2HC3HNH2NO2C2HC3HNH2NO2C2HC3HNH2NO2C2HC3HNH2NO2C2HC3HNH2NO2C2HC3HNH2NO2C2HC3HNH2NO2C2HC3HNH2NO2CNCNCNCNCNCNCNCNCNCNCNCNCNCNCNCNCNCNCNCNCNCNCNCNCNCNCNCNCNCNCNCNCNCNCNCNC2HC3HNH2NO2C2HC3HNH2NO2C2HC3HNH2NO2C2HC3HNH2NO2C2HC3HNH2NO2C2HC3HNH2NO2C7H2NH2NO2C7H2NH2NO2C7H2NH2NO2C7H2NH2NO2C7H2NH2NO2C7H2NH2NO2C7H2NH2NO2C7H2NH2NO2C7H2NH2NO2C7H2NH2NO2C7H2NH2NO2C7H2NH2NO2
_chemical_formula_sum              "C252 H144 N108 O72"
_cell_length_a       56.5222
_cell_length_b       56.5222
_cell_length_c       14.8586
_cell_angle_alpha    90
_cell_angle_beta     90
_cell_angle_gamma    120

_space_group_name_H-M_alt    "P 1"
_space_group_IT_number       1

loop_
  _space_group_symop_operation_xyz
  'x, y, z'

loop_
  _atom_site_type_symbol
  _atom_site_label
  _atom_site_symmetry_multiplicity
  _atom_site_fract_x
  _atom_site_fract_y
  _atom_site_fract_z
  _atom_site_occupancy
  C   C1        1.0  0.23759  0.46842  0.34087  1.0000
  C   C2        1.0  0.24951  0.45304  0.30829  1.0000
  C   C3        1.0  0.23423  0.42405  0.30873  1.0000
  C   C4        1.0  0.20717  0.40929  0.34170  1.0000
  C   C5        1.0  0.19297  0.37989  0.33817  1.0000
  C   C6        1.0  0.16889  0.36410  0.28608  1.0000
  C   C7        1.0  0.15535  0.33516  0.29122  1.0000
  H   H1        1.0  0.13803  0.32402  0.25365  1.0000
  H   H2        1.0  0.24312  0.41352  0.28314  1.0000
  N   N1        1.0  0.15849  0.37573  0.23016  1.0000
  H   H3        1.0  0.16761  0.39534  0.22071  1.0000
  H   H4        1.0  0.14222  0.36464  0.19417  1.0000
  N   N2        1.0  0.27646  0.46650  0.27352  1.0000
  O   O1        1.0  0.29194  0.46091  0.31810  1.0000
  O   O2        1.0  0.27718  0.46078  0.19220  1.0000
  C   C8        1.0  0.53773  0.76580  0.34085  1.0000
  C   C9        1.0  0.55311  0.79311  0.30831  1.0000
  C   C10       1.0  0.58211  0.80683  0.30876  1.0000
  C   C11       1.0  0.59687  0.79453  0.34171  1.0000
  C   C12       1.0  0.62627  0.80973  0.33818  1.0000
  C   C13       1.0  0.64206  0.80144  0.28608  1.0000
  C   C14       1.0  0.67100  0.81683  0.29126  1.0000
  H   H5        1.0  0.68215  0.81068  0.25362  1.0000
  H   H6        1.0  0.59263  0.82624  0.28322  1.0000
  N   N3        1.0  0.63043  0.77941  0.23014  1.0000
  H   H7        1.0  0.61082  0.76893  0.22067  1.0000
  H   H8        1.0  0.64153  0.77424  0.19415  1.0000
  N   N4        1.0  0.53965  0.80661  0.27358  1.0000
  O   O3        1.0  0.54524  0.82767  0.31821  1.0000
  O   O4        1.0  0.54538  0.81306  0.19228  1.0000
  C   C15       1.0  0.24037  0.76859  0.34080  1.0000
  C   C16       1.0  0.21306  0.75668  0.30821  1.0000
  C   C17       1.0  0.19935  0.77196  0.30868  1.0000
  C   C18       1.0  0.21165  0.79902  0.34168  1.0000
  C   C19       1.0  0.19646  0.81322  0.33817  1.0000
  C   C20       1.0  0.20475  0.83730  0.28610  1.0000
  C   C21       1.0  0.18934  0.85084  0.29124  1.0000
  H   H9        1.0  0.19551  0.86816  0.25368  1.0000
  H   H10       1.0  0.17994  0.76308  0.28308  1.0000
  N   N5        1.0  0.22678  0.84771  0.23019  1.0000
  H   H11       1.0  0.23727  0.83859  0.22074  1.0000
  H   H12       1.0  0.23196  0.86398  0.19421  1.0000
  N   N6        1.0  0.19957  0.72973  0.27341  1.0000
  O   O5        1.0  0.17850  0.71425  0.31798  1.0000
  O   O6        1.0  0.19313  0.72902  0.19209  1.0000
  C   C22       1.0  0.77290  0.53346  0.34087  1.0000
  C   C23       1.0  0.76097  0.54884  0.30833  1.0000
  C   C24       1.0  0.77624  0.57783  0.30878  1.0000
  C   C25       1.0  0.80331  0.59260  0.34173  1.0000
  C   C26       1.0  0.81750  0.62200  0.33819  1.0000
  C   C27       1.0  0.84158  0.63779  0.28610  1.0000
  C   C28       1.0  0.85512  0.66673  0.29127  1.0000
  H   H13       1.0  0.87243  0.67788  0.25363  1.0000
  H   H14       1.0  0.76735  0.58836  0.28322  1.0000
  N   N7        1.0  0.85198  0.62616  0.23016  1.0000
  H   H15       1.0  0.84285  0.60655  0.22068  1.0000
  H   H16       1.0  0.86824  0.63726  0.19416  1.0000
  N   N8        1.0  0.73401  0.53538  0.27360  1.0000
  O   O7        1.0  0.71854  0.54097  0.31821  1.0000
  O   O8        1.0  0.73328  0.54110  0.19229  1.0000
  C   C29       1.0  0.47272  0.23609  0.34087  1.0000
  C   C30       1.0  0.45734  0.20878  0.30829  1.0000
  C   C31       1.0  0.42835  0.19507  0.30873  1.0000
  C   C32       1.0  0.41358  0.20736  0.34171  1.0000
  C   C33       1.0  0.38418  0.19216  0.33817  1.0000
  C   C34       1.0  0.36839  0.20045  0.28608  1.0000
  C   C35       1.0  0.33945  0.18505  0.29122  1.0000
  H   H17       1.0  0.32831  0.19122  0.25366  1.0000
  H   H18       1.0  0.41782  0.17565  0.28313  1.0000
  N   N9        1.0  0.38002  0.22249  0.23018  1.0000
  H   H19       1.0  0.39963  0.23298  0.22073  1.0000
  H   H20       1.0  0.36893  0.22766  0.19418  1.0000
  N   N10       1.0  0.47080  0.19529  0.27351  1.0000
  O   O9        1.0  0.46520  0.17422  0.31808  1.0000
  O   O10       1.0  0.46508  0.18885  0.19219  1.0000
  C   C36       1.0  0.77007  0.23327  0.34088  1.0000
  C   C37       1.0  0.79738  0.24521  0.30835  1.0000
  C   C38       1.0  0.81110  0.22993  0.30880  1.0000
  C   C39       1.0  0.79880  0.20287  0.34173  1.0000
  C   C40       1.0  0.81401  0.18867  0.33819  1.0000
  C   C41       1.0  0.80572  0.16460  0.28608  1.0000
  C   C42       1.0  0.82112  0.15105  0.29126  1.0000
  H   H21       1.0  0.81496  0.13376  0.25362  1.0000
  H   H22       1.0  0.83052  0.23883  0.28325  1.0000
  N   N11       1.0  0.78370  0.15420  0.23014  1.0000
  H   H23       1.0  0.77321  0.16333  0.22066  1.0000
  H   H24       1.0  0.77853  0.13794  0.19414  1.0000
  N   N12       1.0  0.81087  0.27216  0.27364  1.0000
  O   O11       1.0  0.83193  0.28764  0.31826  1.0000
  O   O12       1.0  0.81732  0.27290  0.19233  1.0000
  C   C43       1.0  0.19604  0.16165  0.31343  1.0000
  C   C44       1.0  0.21180  0.14845  0.31605  1.0000
  H   H25       1.0  0.20324  0.12900  0.29100  1.0000
  C   C45       1.0  0.16513  0.23466  0.34620  1.0000
  C   C46       1.0  0.18946  0.24325  0.29575  1.0000
  C   C47       1.0  0.20272  0.22758  0.29797  1.0000
  H   H26       1.0  0.21984  0.23382  0.25931  1.0000
  N   N13       1.0  0.17057  0.14796  0.27663  1.0000
  H   H27       1.0  0.16317  0.12957  0.25265  1.0000
  H   H28       1.0  0.15941  0.15644  0.26913  1.0000
  N   N14       1.0  0.19974  0.26681  0.24067  1.0000
  O   O13       1.0  0.20005  0.26123  0.15896  1.0000
  O   O14       1.0  0.22343  0.28466  0.26397  1.0000
  C   C48       1.0  0.84452  0.03105  0.31344  1.0000
  C   C49       1.0  0.85773  0.06001  0.31609  1.0000
  H   H29       1.0  0.87717  0.07089  0.29100  1.0000
  C   C50       1.0  0.77151  0.92713  0.34620  1.0000
  C   C51       1.0  0.76292  0.94287  0.29577  1.0000
  C   C52       1.0  0.77859  0.97180  0.29799  1.0000
  H   H30       1.0  0.77235  0.98269  0.25934  1.0000
  N   N15       1.0  0.85820  0.01926  0.27665  1.0000
  H   H31       1.0  0.87660  0.03026  0.25267  1.0000
  H   H32       1.0  0.84973  0.99963  0.26913  1.0000
  N   N16       1.0  0.73935  0.92959  0.24072  1.0000
  O   O15       1.0  0.74492  0.93548  0.15900  1.0000
  O   O16       1.0  0.72150  0.93542  0.26403  1.0000
  C   C53       1.0  0.97513  0.81015  0.31343  1.0000
  C   C54       1.0  0.94617  0.79439  0.31606  1.0000
  H   H33       1.0  0.93529  0.80295  0.29100  1.0000
  C   C55       1.0  0.07904  0.84104  0.34621  1.0000
  C   C56       1.0  0.06331  0.81672  0.29577  1.0000
  C   C57       1.0  0.03438  0.80345  0.29798  1.0000
  H   H34       1.0  0.02349  0.78633  0.25932  1.0000
  N   N17       1.0  0.98691  0.83561  0.27663  1.0000
  H   H35       1.0  0.97592  0.84301  0.25265  1.0000
  H   H36       1.0  0.00655  0.84677  0.26912  1.0000
  N   N18       1.0  0.07659  0.80643  0.24069  1.0000
  O   O17       1.0  0.07070  0.80612  0.15898  1.0000
  O   O18       1.0  0.07075  0.78275  0.26399  1.0000
  C   C58       1.0  0.81442  0.84025  0.31343  1.0000
  C   C59       1.0  0.79866  0.85344  0.31608  1.0000
  H   H37       1.0  0.80722  0.87288  0.29100  1.0000
  C   C60       1.0  0.84533  0.76724  0.34620  1.0000
  C   C61       1.0  0.82100  0.75864  0.29577  1.0000
  C   C62       1.0  0.80773  0.77431  0.29799  1.0000
  H   H38       1.0  0.79061  0.76807  0.25933  1.0000
  N   N19       1.0  0.83988  0.85393  0.27664  1.0000
  H   H39       1.0  0.84728  0.87232  0.25267  1.0000
  H   H40       1.0  0.85104  0.84545  0.26912  1.0000
  N   N20       1.0  0.81071  0.73507  0.24071  1.0000
  O   O19       1.0  0.81039  0.74065  0.15899  1.0000
  O   O20       1.0  0.78703  0.71722  0.26402  1.0000
  C   C63       1.0  0.16594  0.97084  0.31343  1.0000
  C   C64       1.0  0.15274  0.94188  0.31606  1.0000
  H   H41       1.0  0.13329  0.93101  0.29100  1.0000
  C   C65       1.0  0.23895  0.07476  0.34620  1.0000
  C   C66       1.0  0.24754  0.05902  0.29575  1.0000
  C   C67       1.0  0.23187  0.03009  0.29797  1.0000
  H   H42       1.0  0.23811  0.01921  0.25932  1.0000
  N   N21       1.0  0.15225  0.98263  0.27664  1.0000
  H   H43       1.0  0.13386  0.97164  0.25266  1.0000
  H   H44       1.0  0.16073  0.00226  0.26913  1.0000
  N   N22       1.0  0.27111  0.07230  0.24067  1.0000
  O   O21       1.0  0.26552  0.06641  0.15896  1.0000
  O   O22       1.0  0.28896  0.06647  0.26397  1.0000
  C   C68       1.0  0.03533  0.19174  0.31344  1.0000
  C   C69       1.0  0.06429  0.20750  0.31609  1.0000
  H   H45       1.0  0.07517  0.19894  0.29100  1.0000
  C   C70       1.0  0.93142  0.16085  0.34621  1.0000
  C   C71       1.0  0.94715  0.18517  0.29577  1.0000
  C   C72       1.0  0.97608  0.19844  0.29799  1.0000
  H   H46       1.0  0.98697  0.21556  0.25933  1.0000
  N   N23       1.0  0.02355  0.16628  0.27665  1.0000
  H   H47       1.0  0.03454  0.15888  0.25267  1.0000
  H   H48       1.0  0.00391  0.15512  0.26914  1.0000
  N   N24       1.0  0.93387  0.19546  0.24071  1.0000
  O   O23       1.0  0.93976  0.19578  0.15900  1.0000
  O   O24       1.0  0.93970  0.21915  0.26401  1.0000
  C   C73       1.0  0.25866  0.64843  0.28439  1.0000
  C   C74       1.0  0.26416  0.67569  0.28004  1.0000
  H   H49       1.0  0.28148  0.68967  0.24695  1.0000
  C   C75       1.0  0.23661  0.55498  0.35892  1.0000
  C   C76       1.0  0.22454  0.55963  0.28235  1.0000
  C   C77       1.0  0.22127  0.58292  0.27995  1.0000
  H   H50       1.0  0.21440  0.58711  0.22166  1.0000
  N   N25       1.0  0.27693  0.64243  0.24579  1.0000
  H   H51       1.0  0.29313  0.65633  0.21476  1.0000
  H   H52       1.0  0.27474  0.62429  0.24846  1.0000
  N   N26       1.0  0.21838  0.54239  0.20636  1.0000
  O   O25       1.0  0.23249  0.55526  0.13920  1.0000
  O   O26       1.0  0.19355  0.53148  0.18583  1.0000
  C   C78       1.0  0.35771  0.60691  0.28439  1.0000
  C   C79       1.0  0.33045  0.58515  0.28015  1.0000
  H   H53       1.0  0.31645  0.58848  0.24716  1.0000
  C   C80       1.0  0.45123  0.67823  0.35863  1.0000
  C   C81       1.0  0.44656  0.66154  0.28200  1.0000
  C   C82       1.0  0.42327  0.63499  0.27971  1.0000
  H   H54       1.0  0.41901  0.62392  0.22140  1.0000
  N   N27       1.0  0.36371  0.63117  0.24572  1.0000
  H   H55       1.0  0.34981  0.63346  0.21472  1.0000
  H   H56       1.0  0.38185  0.64711  0.24829  1.0000
  N   N28       1.0  0.46377  0.67264  0.20597  1.0000
  O   O27       1.0  0.45087  0.67388  0.13890  1.0000
  O   O28       1.0  0.47467  0.65872  0.18529  1.0000
  C   C83       1.0  0.39923  0.74741  0.28452  1.0000
  C   C84       1.0  0.42100  0.74192  0.28018  1.0000
  H   H57       1.0  0.41766  0.72460  0.24712  1.0000
  C   C85       1.0  0.32789  0.76954  0.35892  1.0000
  C   C86       1.0  0.34457  0.78156  0.28225  1.0000
  C   C87       1.0  0.37111  0.78481  0.27990  1.0000
  H   H58       1.0  0.38218  0.79166  0.22160  1.0000
  N   N29       1.0  0.37496  0.72913  0.24595  1.0000
  H   H59       1.0  0.37266  0.71293  0.21496  1.0000
  H   H60       1.0  0.35901  0.73132  0.24862  1.0000
  N   N30       1.0  0.33348  0.78771  0.20624  1.0000
  O   O29       1.0  0.33223  0.77358  0.13913  1.0000
  O   O30       1.0  0.34741  0.81254  0.18564  1.0000
  C   C88       1.0  0.75166  0.35338  0.28449  1.0000
  C   C89       1.0  0.74614  0.32611  0.28025  1.0000
  H   H61       1.0  0.72880  0.31212  0.24728  1.0000
  C   C90       1.0  0.77396  0.44696  0.35861  1.0000
  C   C91       1.0  0.78594  0.44223  0.28200  1.0000
  C   C92       1.0  0.78918  0.41893  0.27968  1.0000
  H   H62       1.0  0.79597  0.41465  0.22135  1.0000
  N   N31       1.0  0.73340  0.35938  0.24587  1.0000
  H   H63       1.0  0.71719  0.34549  0.21492  1.0000
  H   H64       1.0  0.73562  0.37754  0.24844  1.0000
  N   N32       1.0  0.79205  0.45944  0.20593  1.0000
  O   O31       1.0  0.77788  0.44653  0.13892  1.0000
  O   O32       1.0  0.81686  0.47031  0.18517  1.0000
  C   C93       1.0  0.65277  0.39496  0.28466  1.0000
  C   C94       1.0  0.68004  0.41671  0.28033  1.0000
  H   H65       1.0  0.69402  0.41335  0.24734  1.0000
  C   C95       1.0  0.55927  0.32362  0.35891  1.0000
  C   C96       1.0  0.56397  0.34033  0.28229  1.0000
  C   C97       1.0  0.58726  0.36688  0.27992  1.0000
  H   H66       1.0  0.59149  0.37794  0.22160  1.0000
  N   N33       1.0  0.64677  0.37067  0.24618  1.0000
  H   H67       1.0  0.66067  0.36835  0.21526  1.0000
  H   H68       1.0  0.62863  0.35473  0.24884  1.0000
  N   N34       1.0  0.54676  0.32924  0.20624  1.0000
  O   O33       1.0  0.55965  0.32799  0.13916  1.0000
  O   O34       1.0  0.53586  0.34317  0.18557  1.0000
  C   C98       1.0  0.61120  0.25443  0.28448  1.0000
  C   C99       1.0  0.58945  0.25995  0.28024  1.0000
  H   H69       1.0  0.59280  0.27729  0.24730  1.0000
  C   C100      1.0  0.68248  0.23216  0.35860  1.0000
  C   C101      1.0  0.66580  0.22019  0.28193  1.0000
  C   C102      1.0  0.63926  0.21694  0.27963  1.0000
  H   H70       1.0  0.62820  0.21016  0.22129  1.0000
  N   N35       1.0  0.63547  0.27270  0.24588  1.0000
  H   H71       1.0  0.63778  0.28891  0.21494  1.0000
  H   H72       1.0  0.65141  0.27049  0.24846  1.0000
  N   N36       1.0  0.67691  0.21411  0.20585  1.0000
  O   O35       1.0  0.67817  0.22828  0.13886  1.0000
  O   O36       1.0  0.66299  0.18930  0.18505  1.0000
  C   C103      1.0  0.15059  0.24940  0.34616  1.0000
  N   N37       1.0  0.16400  0.27721  0.34480  1.0000
  C   C104      1.0  0.15079  0.29180  0.34426  1.0000
  N   N38       1.0  0.12296  0.27735  0.34476  1.0000
  C   C105      1.0  0.10817  0.24951  0.34721  1.0000
  N   N39       1.0  0.12275  0.23619  0.34789  1.0000
  C   C106      1.0  0.75676  0.89785  0.34618  1.0000
  N   N40       1.0  0.72895  0.88344  0.34481  1.0000
  C   C107      1.0  0.71436  0.85564  0.34428  1.0000
  N   N41       1.0  0.72882  0.84227  0.34477  1.0000
  C   C108      1.0  0.75665  0.85532  0.34721  1.0000
  N   N42       1.0  0.76997  0.88321  0.34789  1.0000
  C   C109      1.0  0.10833  0.85559  0.34617  1.0000
  N   N43       1.0  0.12273  0.84218  0.34480  1.0000
  C   C110      1.0  0.15053  0.85539  0.34426  1.0000
  N   N44       1.0  0.16391  0.88321  0.34476  1.0000
  C   C111      1.0  0.15085  0.89800  0.34721  1.0000
  N   N45       1.0  0.12297  0.88343  0.34789  1.0000
  C   C112      1.0  0.85987  0.75249  0.34617  1.0000
  N   N46       1.0  0.84646  0.72468  0.34481  1.0000
  C   C113      1.0  0.85967  0.71009  0.34428  1.0000
  N   N47       1.0  0.88750  0.72454  0.34478  1.0000
  C   C114      1.0  0.90229  0.75238  0.34721  1.0000
  N   N48       1.0  0.88772  0.76570  0.34789  1.0000
  C   C115      1.0  0.25369  0.10404  0.34617  1.0000
  N   N49       1.0  0.28151  0.11844  0.34480  1.0000
  C   C116      1.0  0.29609  0.14624  0.34426  1.0000
  N   N50       1.0  0.28164  0.15962  0.34476  1.0000
  C   C117      1.0  0.25380  0.14657  0.34721  1.0000
  N   N51       1.0  0.24048  0.11868  0.34789  1.0000
  C   C118      1.0  0.90213  0.14630  0.34618  1.0000
  N   N52       1.0  0.88773  0.15972  0.34482  1.0000
  C   C119      1.0  0.85993  0.14650  0.34428  1.0000
  N   N53       1.0  0.84655  0.11868  0.34478  1.0000
  C   C120      1.0  0.85961  0.10389  0.34721  1.0000
  N   N54       1.0  0.88750  0.11846  0.34790  1.0000
  C   C121      1.0  0.29255  0.54166  0.33262  1.0000
  N   N55       1.0  0.27933  0.51379  0.33331  1.0000
  C   C122      1.0  0.25150  0.49794  0.34109  1.0000
  N   N56       1.0  0.23702  0.51136  0.34951  1.0000
  C   C123      1.0  0.24949  0.53907  0.35184  1.0000
  N   N57       1.0  0.27689  0.55336  0.34282  1.0000
  C   C124      1.0  0.46449  0.74751  0.33248  1.0000
  N   N58       1.0  0.49236  0.76216  0.33325  1.0000
  C   C125      1.0  0.50822  0.75019  0.34103  1.0000
  N   N59       1.0  0.49481  0.72230  0.34938  1.0000
  C   C126      1.0  0.46710  0.70704  0.35159  1.0000
  N   N60       1.0  0.45279  0.72014  0.34258  1.0000
  C   C127      1.0  0.25861  0.71361  0.33239  1.0000
  N   N61       1.0  0.24397  0.72684  0.33316  1.0000
  C   C128      1.0  0.25596  0.75468  0.34101  1.0000
  N   N62       1.0  0.28385  0.76914  0.34949  1.0000
  C   C129      1.0  0.29909  0.75666  0.35180  1.0000
  N   N63       1.0  0.28597  0.72926  0.34267  1.0000
  C   C130      1.0  0.71796  0.46022  0.33249  1.0000
  N   N64       1.0  0.73116  0.48809  0.33329  1.0000
  C   C131      1.0  0.75900  0.50396  0.34106  1.0000
  N   N65       1.0  0.77348  0.49054  0.34942  1.0000
  C   C132      1.0  0.76103  0.46283  0.35171  1.0000
  N   N66       1.0  0.73362  0.44853  0.34264  1.0000
  C   C133      1.0  0.54595  0.25435  0.33263  1.0000
  N   N67       1.0  0.51809  0.23971  0.33333  1.0000
  C   C134      1.0  0.50223  0.25169  0.34109  1.0000
  N   N68       1.0  0.51565  0.27958  0.34951  1.0000
  C   C135      1.0  0.54336  0.29482  0.35184  1.0000
  N   N69       1.0  0.55765  0.28172  0.34282  1.0000
  C   C136      1.0  0.75175  0.28820  0.33255  1.0000
  N   N70       1.0  0.76641  0.27500  0.33332  1.0000
  C   C137      1.0  0.75445  0.24716  0.34106  1.0000
  N   N71       1.0  0.72656  0.23267  0.34938  1.0000
  C   C138      1.0  0.71129  0.24511  0.35159  1.0000
  N   N72       1.0  0.72438  0.27252  0.34262  1.0000
  C   C139      1.0  0.19533  0.42438  0.37747  1.0000
  C   C140      1.0  0.21054  0.45335  0.37493  1.0000
  H   H73       1.0  0.20160  0.46374  0.40110  1.0000
  C   C141      1.0  0.16540  0.32107  0.34317  1.0000
  C   C142      1.0  0.18991  0.33693  0.39258  1.0000
  C   C143      1.0  0.20310  0.36586  0.38992  1.0000
  H   H74       1.0  0.22031  0.37685  0.42808  1.0000
  N   N73       1.0  0.17003  0.41208  0.41562  1.0000
  H   H75       1.0  0.16238  0.42273  0.44069  1.0000
  H   H76       1.0  0.15926  0.39241  0.42313  1.0000
  N   N74       1.0  0.20038  0.32376  0.44735  1.0000
  O   O37       1.0  0.20090  0.32977  0.52904  1.0000
  O   O38       1.0  0.22403  0.32964  0.42339  1.0000
  C   C144      1.0  0.58178  0.76759  0.37744  1.0000
  C   C145      1.0  0.55281  0.75382  0.37488  1.0000
  H   H77       1.0  0.54242  0.73449  0.40103  1.0000
  C   C146      1.0  0.68509  0.84098  0.34319  1.0000
  C   C147      1.0  0.66923  0.84963  0.39259  1.0000
  C   C148      1.0  0.64030  0.83388  0.38994  1.0000
  H   H78       1.0  0.62931  0.84010  0.42811  1.0000
  N   N75       1.0  0.59408  0.75458  0.41556  1.0000
  H   H79       1.0  0.58343  0.73629  0.44061  1.0000
  H   H80       1.0  0.61374  0.76349  0.42309  1.0000
  N   N76       1.0  0.68239  0.87327  0.44737  1.0000
  O   O39       1.0  0.67639  0.86777  0.52905  1.0000
  O   O40       1.0  0.67652  0.89104  0.42341  1.0000
  C   C149      1.0  0.23858  0.81085  0.37745  1.0000
  C   C150      1.0  0.25235  0.79564  0.37489  1.0000
  H   H81       1.0  0.27167  0.80457  0.40106  1.0000
  C   C151      1.0  0.16520  0.84078  0.34317  1.0000
  C   C152      1.0  0.15655  0.81627  0.39257  1.0000
  C   C153      1.0  0.17230  0.80309  0.38991  1.0000
  H   H82       1.0  0.16608  0.78587  0.42805  1.0000
  N   N77       1.0  0.25159  0.83615  0.41562  1.0000
  H   H83       1.0  0.26988  0.84379  0.44069  1.0000
  H   H84       1.0  0.24269  0.84692  0.42314  1.0000
  N   N78       1.0  0.13290  0.80579  0.44732  1.0000
  O   O41       1.0  0.13839  0.80527  0.52901  1.0000
  O   O42       1.0  0.11514  0.78214  0.42334  1.0000
  C   C154      1.0  0.81515  0.57751  0.37746  1.0000
  C   C155      1.0  0.79995  0.54854  0.37491  1.0000
  H   H85       1.0  0.80889  0.53815  0.40106  1.0000
  C   C156      1.0  0.84506  0.68082  0.34319  1.0000
  C   C157      1.0  0.82055  0.66496  0.39260  1.0000
  C   C158      1.0  0.80737  0.63603  0.38995  1.0000
  H   H86       1.0  0.79016  0.62503  0.42812  1.0000
  N   N79       1.0  0.84046  0.58981  0.41559  1.0000
  H   H87       1.0  0.84811  0.57917  0.44064  1.0000
  H   H88       1.0  0.85122  0.60948  0.42312  1.0000
  N   N80       1.0  0.81008  0.67812  0.44737  1.0000
  O   O43       1.0  0.80957  0.67212  0.52906  1.0000
  O   O44       1.0  0.78644  0.67225  0.42342  1.0000
  C   C159      1.0  0.42868  0.23429  0.37748  1.0000
  C   C160      1.0  0.45765  0.24806  0.37494  1.0000
  H   H89       1.0  0.46804  0.26739  0.40111  1.0000
  C   C161      1.0  0.32537  0.16091  0.34317  1.0000
  C   C162      1.0  0.34123  0.15226  0.39257  1.0000
  C   C163      1.0  0.37016  0.16800  0.38992  1.0000
  H   H90       1.0  0.38115  0.16179  0.42807  1.0000
  N   N81       1.0  0.41637  0.24729  0.41563  1.0000
  H   H91       1.0  0.42702  0.26559  0.44070  1.0000
  H   H92       1.0  0.39671  0.23839  0.42314  1.0000
  N   N82       1.0  0.32806  0.12862  0.44734  1.0000
  O   O45       1.0  0.33407  0.13411  0.52903  1.0000
  O   O46       1.0  0.33393  0.11085  0.42338  1.0000
  C   C164      1.0  0.77187  0.19102  0.37746  1.0000
  C   C165      1.0  0.75809  0.20621  0.37491  1.0000
  H   H93       1.0  0.73876  0.19727  0.40105  1.0000
  C   C166      1.0  0.84527  0.16112  0.34319  1.0000
  C   C167      1.0  0.85391  0.18562  0.39261  1.0000
  C   C168      1.0  0.83817  0.19880  0.38996  1.0000
  H   H94       1.0  0.84438  0.21601  0.42814  1.0000
  N   N83       1.0  0.75887  0.16571  0.41558  1.0000
  H   H95       1.0  0.74057  0.15806  0.44062  1.0000
  H   H96       1.0  0.76777  0.15495  0.42310  1.0000
  N   N84       1.0  0.87755  0.19609  0.44739  1.0000
  O   O47       1.0  0.87205  0.19660  0.52907  1.0000
  O   O48       1.0  0.89532  0.21974  0.42344  1.0000
  C   C169      1.0  0.23907  0.16129  0.34826  1.0000
  C   C170      1.0  0.25057  0.18865  0.37970  1.0000
  C   C171      1.0  0.23472  0.20175  0.37932  1.0000
  C   C172      1.0  0.20750  0.18875  0.34748  1.0000
  C   C173      1.0  0.19290  0.20357  0.35036  1.0000
  C   C174      1.0  0.16900  0.19532  0.40338  1.0000
  C   C175      1.0  0.15535  0.21063  0.39861  1.0000
  H   H97       1.0  0.13820  0.20453  0.43705  1.0000
  H   H98       1.0  0.24333  0.22125  0.40399  1.0000
  N   N85       1.0  0.15893  0.17348  0.46007  1.0000
  H   H99       1.0  0.16816  0.16310  0.46932  1.0000
  H   H100      1.0  0.14280  0.16836  0.49674  1.0000
  N   N86       1.0  0.27760  0.20271  0.41377  1.0000
  O   O49       1.0  0.29266  0.22376  0.36849  1.0000
  O   O50       1.0  0.27836  0.20932  0.49492  1.0000
  C   C176      1.0  0.84488  0.07444  0.34826  1.0000
  C   C177      1.0  0.81752  0.05857  0.37971  1.0000
  C   C178      1.0  0.80442  0.02963  0.37934  1.0000
  C   C179      1.0  0.81742  0.01541  0.34750  1.0000
  C   C180      1.0  0.80260  0.98599  0.35037  1.0000
  C   C181      1.0  0.81084  0.97033  0.40338  1.0000
  C   C182      1.0  0.79555  0.94137  0.39857  1.0000
  H   H101      1.0  0.80163  0.93033  0.43706  1.0000
  H   H102      1.0  0.78492  0.01873  0.40400  1.0000
  N   N87       1.0  0.83268  0.98210  0.46008  1.0000
  H   H103      1.0  0.84306  0.00172  0.46934  1.0000
  H   H104      1.0  0.83781  0.97110  0.49673  1.0000
  N   N88       1.0  0.80346  0.07154  0.41376  1.0000
  O   O51       1.0  0.78241  0.06555  0.36847  1.0000
  O   O52       1.0  0.79685  0.06570  0.49492  1.0000
  C   C183      1.0  0.93174  0.76711  0.34826  1.0000
  C   C184      1.0  0.94761  0.75562  0.37971  1.0000
  C   C185      1.0  0.97655  0.77146  0.37933  1.0000
  C   C186      1.0  0.99077  0.79868  0.34749  1.0000
  C   C187      1.0  0.02019  0.81328  0.35036  1.0000
  C   C188      1.0  0.03584  0.83718  0.40338  1.0000
  C   C189      1.0  0.06480  0.85083  0.39862  1.0000
  H   H105      1.0  0.07585  0.86798  0.43705  1.0000
  H   H106      1.0  0.98744  0.76285  0.40401  1.0000
  N   N89       1.0  0.02408  0.84725  0.46006  1.0000
  H   H107      1.0  0.00445  0.83802  0.46931  1.0000
  H   H108      1.0  0.03508  0.86338  0.49673  1.0000
  N   N90       1.0  0.93463  0.72859  0.41378  1.0000
  O   O53       1.0  0.94062  0.71352  0.36851  1.0000
  O   O54       1.0  0.94048  0.72783  0.49494  1.0000
  C   C190      1.0  0.77139  0.84060  0.34826  1.0000
  C   C191      1.0  0.75989  0.81323  0.37970  1.0000
  C   C192      1.0  0.77574  0.80014  0.37934  1.0000
  C   C193      1.0  0.80295  0.81314  0.34749  1.0000
  C   C194      1.0  0.81755  0.79832  0.35036  1.0000
  C   C195      1.0  0.84146  0.80657  0.40337  1.0000
  C   C196      1.0  0.85513  0.79127  0.39856  1.0000
  H   H109      1.0  0.87225  0.79736  0.43705  1.0000
  H   H110      1.0  0.76713  0.78063  0.40399  1.0000
  N   N91       1.0  0.85153  0.82840  0.46007  1.0000
  H   H111      1.0  0.84229  0.83879  0.46934  1.0000
  H   H112      1.0  0.86766  0.83354  0.49673  1.0000
  N   N92       1.0  0.73285  0.79917  0.41375  1.0000
  O   O55       1.0  0.71780  0.77812  0.36846  1.0000
  O   O56       1.0  0.73209  0.79256  0.49490  1.0000
  C   C197      1.0  0.16557  0.92745  0.34826  1.0000
  C   C198      1.0  0.19294  0.94332  0.37971  1.0000
  C   C199      1.0  0.20604  0.97227  0.37933  1.0000
  C   C200      1.0  0.19304  0.98648  0.34749  1.0000
  C   C201      1.0  0.20786  0.01590  0.35036  1.0000
  C   C202      1.0  0.19962  0.03156  0.40339  1.0000
  C   C203      1.0  0.21492  0.06052  0.39862  1.0000
  H   H113      1.0  0.20882  0.07156  0.43705  1.0000
  H   H114      1.0  0.22554  0.98316  0.40399  1.0000
  N   N93       1.0  0.17778  0.01979  0.46007  1.0000
  H   H115      1.0  0.16739  0.00017  0.46932  1.0000
  H   H116      1.0  0.17265  0.03079  0.49674  1.0000
  N   N94       1.0  0.20700  0.93035  0.41377  1.0000
  O   O57       1.0  0.22805  0.93634  0.36849  1.0000
  O   O58       1.0  0.21361  0.93619  0.49493  1.0000
  C   C204      1.0  0.07872  0.23478  0.34826  1.0000
  C   C205      1.0  0.06285  0.24628  0.37970  1.0000
  C   C206      1.0  0.03391  0.23043  0.37934  1.0000
  C   C207      1.0  0.01969  0.20321  0.34749  1.0000
  C   C208      1.0  0.99027  0.18861  0.35037  1.0000
  C   C209      1.0  0.97462  0.16471  0.40338  1.0000
  C   C210      1.0  0.94566  0.15105  0.39858  1.0000
  H   H117      1.0  0.93461  0.13392  0.43707  1.0000
  H   H118      1.0  0.02302  0.23904  0.40399  1.0000
  N   N95       1.0  0.98638  0.15464  0.46008  1.0000
  H   H119      1.0  0.00600  0.16388  0.46935  1.0000
  H   H120      1.0  0.97538  0.13851  0.49674  1.0000
  N   N96       1.0  0.07583  0.27331  0.41375  1.0000
  O   O59       1.0  0.06983  0.28837  0.36846  1.0000
  O   O60       1.0  0.06999  0.27408  0.49490  1.0000
  C   C211      1.0  0.24793  0.68480  0.32432  1.0000
  C   C212      1.0  0.22388  0.66501  0.36871  1.0000
  C   C213      1.0  0.21769  0.63737  0.37153  1.0000
  C   C214      1.0  0.23508  0.62897  0.33218  1.0000
  C   C215      1.0  0.23081  0.60231  0.35057  1.0000
  C   C216      1.0  0.24209  0.59725  0.42896  1.0000
  C   C217      1.0  0.24437  0.57343  0.43196  1.0000
  H   H121      1.0  0.25435  0.57084  0.48538  1.0000
  H   H122      1.0  0.20108  0.62355  0.40782  1.0000
  N   N97       1.0  0.25245  0.61518  0.49890  1.0000
  H   H123      1.0  0.25172  0.63197  0.50021  1.0000
  H   H124      1.0  0.26042  0.61143  0.55127  1.0000
  N   N98       1.0  0.20741  0.67343  0.41473  1.0000
  O   O61       1.0  0.20662  0.66890  0.49781  1.0000
  O   O62       1.0  0.18343  0.66148  0.38461  1.0000
  C   C218      1.0  0.32136  0.55982  0.32455  1.0000
  C   C219      1.0  0.34117  0.55555  0.36874  1.0000
  C   C220      1.0  0.36880  0.57701  0.37151  1.0000
  C   C221      1.0  0.37719  0.60280  0.33212  1.0000
  C   C222      1.0  0.40387  0.62518  0.35031  1.0000
  C   C223      1.0  0.40897  0.64154  0.42872  1.0000
  C   C224      1.0  0.43283  0.66760  0.43183  1.0000
  H   H125      1.0  0.43540  0.68020  0.48511  1.0000
  H   H126      1.0  0.38264  0.57420  0.40762  1.0000
  N   N99       1.0  0.39104  0.63401  0.49865  1.0000
  H   H127      1.0  0.37422  0.61651  0.49996  1.0000
  H   H128      1.0  0.39481  0.64571  0.55103  1.0000
  N   N100      1.0  0.33278  0.53066  0.41470  1.0000
  O   O63       1.0  0.33733  0.53438  0.49776  1.0000
  O   O64       1.0  0.34471  0.51863  0.38441  1.0000
  C   C225      1.0  0.44635  0.75817  0.32442  1.0000
  C   C226      1.0  0.45060  0.78223  0.36876  1.0000
  C   C227      1.0  0.42915  0.78841  0.37158  1.0000
  C   C228      1.0  0.40335  0.77100  0.33226  1.0000
  C   C229      1.0  0.38095  0.77528  0.35059  1.0000
  C   C230      1.0  0.36461  0.76402  0.42902  1.0000
  C   C231      1.0  0.33853  0.76176  0.43204  1.0000
  H   H129      1.0  0.32595  0.75180  0.48546  1.0000
  H   H130      1.0  0.43194  0.80503  0.40782  1.0000
  N   N101      1.0  0.37218  0.75367  0.49898  1.0000
  H   H131      1.0  0.38970  0.75439  0.50030  1.0000
  H   H132      1.0  0.36048  0.74572  0.55137  1.0000
  N   N102      1.0  0.47549  0.79871  0.41474  1.0000
  O   O65       1.0  0.47177  0.79952  0.49781  1.0000
  O   O66       1.0  0.48751  0.82269  0.38455  1.0000
  C   C232      1.0  0.76238  0.31701  0.32456  1.0000
  C   C233      1.0  0.78648  0.33682  0.36869  1.0000
  C   C234      1.0  0.79267  0.36445  0.37147  1.0000
  C   C235      1.0  0.77527  0.37285  0.33214  1.0000
  C   C236      1.0  0.77959  0.39954  0.35030  1.0000
  C   C237      1.0  0.76836  0.40467  0.42873  1.0000
  C   C238      1.0  0.76619  0.42854  0.43180  1.0000
  H   H133      1.0  0.75619  0.43114  0.48513  1.0000
  H   H134      1.0  0.80933  0.37829  0.40752  1.0000
  N   N103      1.0  0.75797  0.38675  0.49869  1.0000
  H   H135      1.0  0.75862  0.36992  0.50001  1.0000
  H   H136      1.0  0.75005  0.39054  0.55108  1.0000
  N   N104      1.0  0.80299  0.32842  0.41455  1.0000
  O   O67       1.0  0.80386  0.33299  0.49762  1.0000
  O   O68       1.0  0.82695  0.34036  0.38420  1.0000
  C   C239      1.0  0.68914  0.44207  0.32451  1.0000
  C   C240      1.0  0.66934  0.44636  0.36869  1.0000
  C   C241      1.0  0.64170  0.42492  0.37150  1.0000
  C   C242      1.0  0.63330  0.39910  0.33228  1.0000
  C   C243      1.0  0.60663  0.37673  0.35062  1.0000
  C   C244      1.0  0.60152  0.36039  0.42905  1.0000
  C   C245      1.0  0.57770  0.33431  0.43202  1.0000
  H   H137      1.0  0.57508  0.32174  0.48548  1.0000
  H   H138      1.0  0.62788  0.42773  0.40764  1.0000
  N   N105      1.0  0.61943  0.36797  0.49907  1.0000
  H   H139      1.0  0.63622  0.38549  0.50042  1.0000
  H   H140      1.0  0.61566  0.35626  0.55147  1.0000
  N   N106      1.0  0.67775  0.47127  0.41454  1.0000
  O   O69       1.0  0.67320  0.46758  0.49762  1.0000
  O   O70       1.0  0.66581  0.48329  0.38420  1.0000
  C   C246      1.0  0.56411  0.24371  0.32457  1.0000
  C   C247      1.0  0.55982  0.21960  0.36868  1.0000
  C   C248      1.0  0.58127  0.21341  0.37144  1.0000
  C   C249      1.0  0.60707  0.23082  0.33212  1.0000
  C   C250      1.0  0.62944  0.22650  0.35028  1.0000
  C   C251      1.0  0.64578  0.23772  0.42875  1.0000
  C   C252      1.0  0.67184  0.23991  0.43185  1.0000
  H   H141      1.0  0.68444  0.24992  0.48517  1.0000
  H   H142      1.0  0.57845  0.19676  0.40749  1.0000
  N   N107      1.0  0.63825  0.24810  0.49873  1.0000
  H   H143      1.0  0.62075  0.24743  0.50004  1.0000
  H   H144      1.0  0.64995  0.25601  0.55114  1.0000
  N   N108      1.0  0.53492  0.20310  0.41456  1.0000
  O   O71       1.0  0.53862  0.20223  0.49762  1.0000
  O   O72       1.0  0.52289  0.17915  0.38419  1.0000
