data_image0
_chemical_formula_structural       C2NC2HC3NCHCH2CH2CHCHCHCHC5H2C5H2CH2CH2C2H2C2H2C2H2C4H3C2H2C2H2C2H2C3H3C2H2C2H2C2H2C3H3C4NC2NC2H2C4NC2NC2H2C3NCHC4NC2NC2H2C4NC2NC2H2C2NC2HC4NC2NC2H2C4NC2NC2H2C4NC2NC2H2C4NC2NC2H2C4NC2NC2H2C4NC2NC2H2C17H9C24H15C17H9C24H15C24H15C24H15C24H15C24H15C24H15C24H15C24H15C24H15C4NC2NC2H2C4NC2NHC4NC2NC2H2C4NC2NCHC4NC2NC2H2C4NC2NCHC2H2C2H2C2H2C2H2CHCHC2H2C2H2C2H2C2H2CHCHC2H2C2H2C2H2C2H2C2H2C2H2C2H2C2H2C2H2C2H2C2H2C2H2
_chemical_formula_sum              "C504 N36 H288"
_cell_length_a       75.9599
_cell_length_b       75.9599
_cell_length_c       14.9544
_cell_angle_alpha    90
_cell_angle_beta     90
_cell_angle_gamma    120

_space_group_name_H-M_alt    "P 1"
_space_group_IT_number       1

loop_
  _space_group_symop_operation_xyz
  'x, y, z'

loop_
  _atom_site_type_symbol
  _atom_site_label
  _atom_site_symmetry_multiplicity
  _atom_site_fract_x
  _atom_site_fract_y
  _atom_site_fract_z
  _atom_site_occupancy
  C   C1        1.0  0.00998  0.79999  0.25433  1.0000
  C   C2        1.0  0.02098  0.80953  0.33355  1.0000
  N   N1        1.0  0.01974  0.80099  0.17644  1.0000
  C   C3        1.0  0.01017  0.79209  0.09896  1.0000
  C   C4        1.0  0.02104  0.79296  0.02125  1.0000
  H   H1        1.0  0.03659  0.80059  0.02162  1.0000
  C   C5        1.0  0.02220  0.20052  0.31972  1.0000
  C   C6        1.0  0.01080  0.19903  0.24182  1.0000
  C   C7        1.0  0.01018  0.20675  0.08652  1.0000
  N   N2        1.0  0.02015  0.20749  0.16284  1.0000
  C   C8        1.0  0.02065  0.21646  0.00760  1.0000
  H   H2        1.0  0.03620  0.22424  0.00621  1.0000
  C   C9        1.0  0.04408  0.21154  0.32202  1.0000
  H   H3        1.0  0.04764  0.18948  0.39472  1.0000
  H   H4        1.0  0.04841  0.23792  0.25328  1.0000
  C   C10       1.0  0.04281  0.81982  0.33834  1.0000
  H   H5        1.0  0.04650  0.79709  0.27229  1.0000
  H   H6        1.0  0.04689  0.84590  0.40877  1.0000
  C   C11       1.0  0.00952  0.80838  0.41021  1.0000
  H   H7        1.0  0.01669  0.81482  0.46918  1.0000
  C   C12       1.0  0.01042  0.78281  0.60995  1.0000
  H   H8        1.0  0.01828  0.78314  0.55386  1.0000
  C   C13       1.0  0.01108  0.19065  0.39778  1.0000
  H   H9        1.0  0.01851  0.19146  0.45607  1.0000
  C   C14       1.0  0.00963  0.21593  0.59760  1.0000
  H   H10       1.0  0.01721  0.22327  0.54068  1.0000
  C   C15       1.0  0.08809  0.23373  0.32792  1.0000
  C   C16       1.0  0.07652  0.21441  0.36894  1.0000
  C   C17       1.0  0.05512  0.20352  0.36534  1.0000
  C   C18       1.0  0.05555  0.23104  0.28291  1.0000
  C   C19       1.0  0.07696  0.24168  0.28448  1.0000
  H   H11       1.0  0.08355  0.20802  0.40351  1.0000
  H   H12       1.0  0.08431  0.25538  0.25233  1.0000
  C   C20       1.0  0.08675  0.84075  0.34503  1.0000
  C   C21       1.0  0.07529  0.82150  0.30335  1.0000
  C   C22       1.0  0.05391  0.81115  0.30144  1.0000
  C   C23       1.0  0.05414  0.83893  0.38099  1.0000
  C   C24       1.0  0.07555  0.84906  0.38472  1.0000
  H   H13       1.0  0.08239  0.81481  0.27180  1.0000
  H   H14       1.0  0.08286  0.86269  0.41751  1.0000
  C   C25       1.0  0.11004  0.24484  0.33177  1.0000
  H   H15       1.0  0.11398  0.21920  0.32408  1.0000
  H   H16       1.0  0.11340  0.27409  0.33597  1.0000
  C   C26       1.0  0.10870  0.85145  0.34411  1.0000
  H   H17       1.0  0.11172  0.82550  0.35917  1.0000
  H   H18       1.0  0.11283  0.88096  0.33600  1.0000
  C   C27       1.0  0.19686  0.37686  0.27653  1.0000
  C   C28       1.0  0.20752  0.39824  0.27633  1.0000
  H   H19       1.0  0.21399  0.40551  0.21756  1.0000
  H   H20       1.0  0.19605  0.36957  0.21780  1.0000
  C   C29       1.0  0.17099  0.37713  0.07680  1.0000
  C   C30       1.0  0.18170  0.39854  0.07646  1.0000
  H   H21       1.0  0.16348  0.36943  0.13321  1.0000
  H   H22       1.0  0.18193  0.40634  0.13260  1.0000
  C   C31       1.0  0.61476  0.80786  0.27908  1.0000
  C   C32       1.0  0.59337  0.79722  0.27817  1.0000
  H   H23       1.0  0.58622  0.79651  0.21917  1.0000
  H   H24       1.0  0.62216  0.81437  0.22060  1.0000
  C   C33       1.0  0.62456  0.79165  0.00236  1.0000
  C   C34       1.0  0.61357  0.78132  0.07933  1.0000
  C   C35       1.0  0.59216  0.77070  0.07833  1.0000
  C   C36       1.0  0.58161  0.77036  0.00035  1.0000
  H   H25       1.0  0.64011  0.79918  0.00325  1.0000
  H   H26       1.0  0.62116  0.78143  0.13598  1.0000
  H   H27       1.0  0.58425  0.76315  0.13428  1.0000
  C   C37       1.0  0.18335  0.79405  0.27307  1.0000
  C   C38       1.0  0.19385  0.78316  0.27327  1.0000
  H   H28       1.0  0.19455  0.77658  0.21467  1.0000
  H   H29       1.0  0.17690  0.79490  0.21435  1.0000
  C   C39       1.0  0.20936  0.81990  0.07344  1.0000
  C   C40       1.0  0.21980  0.80892  0.07362  1.0000
  H   H30       1.0  0.20922  0.82747  0.12974  1.0000
  H   H31       1.0  0.22721  0.80855  0.13002  1.0000
  C   C41       1.0  0.81348  0.61051  0.27915  1.0000
  C   C42       1.0  0.80289  0.58912  0.27789  1.0000
  H   H32       1.0  0.80222  0.58202  0.21880  1.0000
  H   H33       1.0  0.82001  0.61798  0.22081  1.0000
  C   C43       1.0  0.79704  0.61992  0.00259  1.0000
  C   C44       1.0  0.78669  0.60885  0.07938  1.0000
  C   C45       1.0  0.77612  0.58744  0.07802  1.0000
  H   H34       1.0  0.80454  0.63547  0.00377  1.0000
  H   H35       1.0  0.78676  0.61638  0.13617  1.0000
  H   H36       1.0  0.76855  0.57947  0.13383  1.0000
  C   C46       1.0  0.38428  0.19186  0.26487  1.0000
  C   C47       1.0  0.40567  0.20266  0.26672  1.0000
  H   H37       1.0  0.41320  0.20931  0.20865  1.0000
  H   H38       1.0  0.37724  0.19115  0.20555  1.0000
  C   C48       1.0  0.38244  0.16506  0.06525  1.0000
  C   C49       1.0  0.40385  0.17588  0.06699  1.0000
  H   H39       1.0  0.37448  0.15742  0.12094  1.0000
  H   H40       1.0  0.41139  0.17604  0.12390  1.0000
  C   C50       1.0  0.81318  0.19072  0.27896  1.0000
  C   C51       1.0  0.80232  0.20124  0.27750  1.0000
  H   H41       1.0  0.80157  0.20761  0.21835  1.0000
  H   H42       1.0  0.81979  0.18989  0.22069  1.0000
  C   C52       1.0  0.79691  0.16488  0.00246  1.0000
  C   C53       1.0  0.78644  0.16544  0.07913  1.0000
  C   C54       1.0  0.77559  0.17600  0.07754  1.0000
  H   H43       1.0  0.80462  0.15704  0.00379  1.0000
  H   H44       1.0  0.78663  0.15806  0.13600  1.0000
  H   H45       1.0  0.76794  0.17629  0.13329  1.0000
  C   C55       1.0  0.20852  0.17997  0.33655  1.0000
  C   C56       1.0  0.19902  0.18151  0.25728  1.0000
  C   C57       1.0  0.18819  0.19236  0.25672  1.0000
  C   C58       1.0  0.18676  0.20204  0.33513  1.0000
  N   N3        1.0  0.17885  0.19274  0.17955  1.0000
  C   C59       1.0  0.17954  0.18363  0.10270  1.0000
  C   C60       1.0  0.19068  0.17326  0.10232  1.0000
  N   N4        1.0  0.19989  0.17275  0.17916  1.0000
  C   C61       1.0  0.16931  0.18406  0.02493  1.0000
  C   C62       1.0  0.19152  0.16333  0.02430  1.0000
  H   H46       1.0  0.16115  0.19145  0.02488  1.0000
  H   H47       1.0  0.19938  0.15564  0.02394  1.0000
  C   C63       1.0  0.81375  0.01589  0.31997  1.0000
  C   C64       1.0  0.80386  0.00455  0.24197  1.0000
  C   C65       1.0  0.79285  0.98285  0.24319  1.0000
  C   C66       1.0  0.79145  0.97189  0.32239  1.0000
  N   N5        1.0  0.78394  0.97302  0.16562  1.0000
  C   C67       1.0  0.78462  0.98255  0.08801  1.0000
  C   C68       1.0  0.79553  0.00406  0.08675  1.0000
  N   N6        1.0  0.80472  0.01397  0.16322  1.0000
  C   C69       1.0  0.77450  0.97163  0.01056  1.0000
  C   C70       1.0  0.79629  0.01459  0.00805  1.0000
  H   H48       1.0  0.76646  0.95609  0.01128  1.0000
  H   H49       1.0  0.80401  0.03014  0.00696  1.0000
  C   C71       1.0  0.97699  0.78762  0.33172  1.0000
  C   C72       1.0  0.98829  0.78916  0.25346  1.0000
  C   C73       1.0  0.98866  0.78132  0.09819  1.0000
  N   N7        1.0  0.97879  0.78052  0.17494  1.0000
  C   C74       1.0  0.97808  0.77147  0.01969  1.0000
  H   H50       1.0  0.96254  0.76352  0.01898  1.0000
  C   C75       1.0  0.78981  0.80712  0.31560  1.0000
  C   C76       1.0  0.79128  0.79737  0.23712  1.0000
  C   C77       1.0  0.80215  0.78654  0.23733  1.0000
  C   C78       1.0  0.81187  0.78513  0.31602  1.0000
  N   N8        1.0  0.80309  0.77781  0.15923  1.0000
  C   C79       1.0  0.79407  0.77847  0.08210  1.0000
  C   C80       1.0  0.78329  0.78920  0.08190  1.0000
  N   N9        1.0  0.78257  0.79824  0.15885  1.0000
  C   C81       1.0  0.79486  0.76849  0.00417  1.0000
  C   C82       1.0  0.77333  0.78991  0.00377  1.0000
  H   H51       1.0  0.80248  0.76056  0.00415  1.0000
  H   H52       1.0  0.76537  0.79751  0.00346  1.0000
  C   C83       1.0  0.18776  0.97150  0.31737  1.0000
  C   C84       1.0  0.18943  0.98290  0.23926  1.0000
  C   C85       1.0  0.20029  0.00460  0.24054  1.0000
  C   C86       1.0  0.20982  0.01551  0.31988  1.0000
  N   N10       1.0  0.20137  0.01449  0.16294  1.0000
  C   C87       1.0  0.19253  0.00501  0.08523  1.0000
  C   C88       1.0  0.18177  0.98350  0.08390  1.0000
  N   N11       1.0  0.18088  0.97353  0.16042  1.0000
  C   C89       1.0  0.19346  0.01598  0.00777  1.0000
  C   C90       1.0  0.17198  0.97303  0.00512  1.0000
  H   H53       1.0  0.20109  0.03153  0.00855  1.0000
  H   H54       1.0  0.16402  0.95748  0.00402  1.0000
  C   C91       1.0  0.98910  0.18842  0.24343  1.0000
  C   C92       1.0  0.97818  0.17897  0.32285  1.0000
  N   N12       1.0  0.97921  0.18748  0.16603  1.0000
  C   C93       1.0  0.98868  0.19625  0.08821  1.0000
  C   C94       1.0  0.97770  0.19545  0.01097  1.0000
  H   H55       1.0  0.96216  0.18801  0.01202  1.0000
  C   C95       1.0  0.22055  0.58410  0.32820  1.0000
  C   C96       1.0  0.21389  0.59044  0.25251  1.0000
  C   C97       1.0  0.21368  0.60907  0.25377  1.0000
  C   C98       1.0  0.22020  0.62172  0.33065  1.0000
  N   N13       1.0  0.20789  0.61472  0.17780  1.0000
  C   C99       1.0  0.20237  0.60365  0.10130  1.0000
  C   C100      1.0  0.20261  0.58513  0.10003  1.0000
  N   N14       1.0  0.20833  0.57939  0.17542  1.0000
  C   C101      1.0  0.19687  0.61033  0.02392  1.0000
  C   C102      1.0  0.19733  0.57337  0.02140  1.0000
  H   H56       1.0  0.19678  0.62375  0.02427  1.0000
  H   H57       1.0  0.19759  0.56004  0.01992  1.0000
  C   C103      1.0  0.40679  0.62428  0.32767  1.0000
  C   C104      1.0  0.40039  0.61126  0.25205  1.0000
  C   C105      1.0  0.38173  0.59245  0.25341  1.0000
  C   C106      1.0  0.36909  0.58634  0.33035  1.0000
  N   N15       1.0  0.37604  0.58098  0.17751  1.0000
  C   C107      1.0  0.38709  0.58648  0.10097  1.0000
  C   C108      1.0  0.40564  0.60521  0.09960  1.0000
  N   N16       1.0  0.41143  0.61669  0.17493  1.0000
  C   C109      1.0  0.38038  0.57428  0.02366  1.0000
  C   C110      1.0  0.41739  0.61165  0.02094  1.0000
  H   H58       1.0  0.36693  0.56080  0.02408  1.0000
  H   H59       1.0  0.43075  0.62521  0.01939  1.0000
  C   C111      1.0  0.36678  0.76973  0.32764  1.0000
  C   C112      1.0  0.37977  0.77642  0.25192  1.0000
  C   C113      1.0  0.39864  0.77668  0.25308  1.0000
  C   C114      1.0  0.40482  0.77019  0.32992  1.0000
  N   N17       1.0  0.41008  0.78251  0.17710  1.0000
  C   C115      1.0  0.40450  0.78803  0.10066  1.0000
  C   C116      1.0  0.38572  0.78774  0.09951  1.0000
  N   N18       1.0  0.37427  0.78199  0.17492  1.0000
  C   C117      1.0  0.41667  0.79357  0.02324  1.0000
  C   C118      1.0  0.37920  0.79301  0.02095  1.0000
  H   H60       1.0  0.43019  0.79369  0.02351  1.0000
  H   H61       1.0  0.36559  0.79272  0.01955  1.0000
  C   C119      1.0  0.77588  0.40053  0.33552  1.0000
  C   C120      1.0  0.78248  0.39422  0.25944  1.0000
  C   C121      1.0  0.78236  0.37543  0.25964  1.0000
  C   C122      1.0  0.77566  0.36259  0.33592  1.0000
  N   N19       1.0  0.78802  0.36980  0.18322  1.0000
  C   C123      1.0  0.79370  0.38103  0.10719  1.0000
  C   C124      1.0  0.79382  0.39973  0.10700  1.0000
  N   N20       1.0  0.78824  0.40545  0.18286  1.0000
  C   C125      1.0  0.79901  0.37435  0.02924  1.0000
  C   C126      1.0  0.79925  0.41167  0.02886  1.0000
  H   H62       1.0  0.79883  0.36080  0.02880  1.0000
  H   H63       1.0  0.79923  0.42512  0.02815  1.0000
  C   C127      1.0  0.59245  0.36431  0.33143  1.0000
  C   C128      1.0  0.59828  0.37684  0.25421  1.0000
  C   C129      1.0  0.61693  0.39565  0.25224  1.0000
  C   C130      1.0  0.63005  0.40228  0.32755  1.0000
  N   N21       1.0  0.62212  0.40658  0.17486  1.0000
  C   C131      1.0  0.61054  0.40056  0.09983  1.0000
  C   C132      1.0  0.59197  0.38186  0.10181  1.0000
  N   N22       1.0  0.58671  0.37090  0.17861  1.0000
  C   C133      1.0  0.61672  0.41222  0.02087  1.0000
  C   C134      1.0  0.57968  0.37490  0.02484  1.0000
  H   H64       1.0  0.63017  0.42569  0.01888  1.0000
  H   H65       1.0  0.56631  0.36134  0.02571  1.0000
  C   C135      1.0  0.62921  0.21549  0.32211  1.0000
  C   C136      1.0  0.61633  0.20911  0.24598  1.0000
  C   C137      1.0  0.59773  0.20938  0.24647  1.0000
  C   C138      1.0  0.59166  0.21602  0.32312  1.0000
  N   N23       1.0  0.58640  0.20383  0.17020  1.0000
  C   C139      1.0  0.59185  0.19808  0.09405  1.0000
  C   C140      1.0  0.61035  0.19780  0.09354  1.0000
  N   N24       1.0  0.62170  0.20330  0.16925  1.0000
  C   C141      1.0  0.57978  0.19278  0.01636  1.0000
  C   C142      1.0  0.61669  0.19222  0.01535  1.0000
  H   H66       1.0  0.56645  0.19306  0.01618  1.0000
  H   H67       1.0  0.63009  0.19209  0.01444  1.0000
  C   C143      1.0  0.14287  0.24517  0.33732  1.0000
  C   C144      1.0  0.15314  0.26662  0.34276  1.0000
  C   C145      1.0  0.14276  0.27778  0.34126  1.0000
  C   C146      1.0  0.12122  0.26640  0.33630  1.0000
  C   C147      1.0  0.12141  0.23466  0.33145  1.0000
  C   C148      1.0  0.15370  0.29972  0.34445  1.0000
  C   C149      1.0  0.17303  0.31134  0.30352  1.0000
  C   C150      1.0  0.18387  0.33273  0.30728  1.0000
  C   C151      1.0  0.17576  0.34369  0.35061  1.0000
  C   C152      1.0  0.15621  0.33219  0.38916  1.0000
  C   C153      1.0  0.14562  0.31078  0.38744  1.0000
  C   C154      1.0  0.15392  0.23445  0.33735  1.0000
  C   C155      1.0  0.17094  0.24050  0.28071  1.0000
  C   C156      1.0  0.18171  0.22987  0.27998  1.0000
  C   C157      1.0  0.17601  0.21297  0.33673  1.0000
  C   C158      1.0  0.15918  0.20704  0.39422  1.0000
  C   C159      1.0  0.14823  0.21750  0.39396  1.0000
  H   H68       1.0  0.19389  0.23466  0.23785  1.0000
  H   H69       1.0  0.17542  0.25251  0.23789  1.0000
  H   H70       1.0  0.15453  0.19478  0.43570  1.0000
  H   H71       1.0  0.13617  0.21277  0.43672  1.0000
  H   H72       1.0  0.13190  0.30338  0.41940  1.0000
  H   H73       1.0  0.14931  0.33930  0.41880  1.0000
  H   H74       1.0  0.19795  0.34025  0.27829  1.0000
  H   H75       1.0  0.17948  0.30435  0.26919  1.0000
  H   H76       1.0  0.16860  0.27422  0.35048  1.0000
  C   C160      1.0  0.74659  0.88424  0.33612  1.0000
  C   C161      1.0  0.72518  0.87318  0.34645  1.0000
  C   C162      1.0  0.71369  0.85166  0.34461  1.0000
  C   C163      1.0  0.72470  0.84117  0.33727  1.0000
  C   C164      1.0  0.74618  0.85128  0.32946  1.0000
  C   C165      1.0  0.75659  0.87282  0.32666  1.0000
  C   C166      1.0  0.69175  0.84099  0.34880  1.0000
  C   C167      1.0  0.68037  0.84901  0.30824  1.0000
  C   C168      1.0  0.65897  0.83868  0.31154  1.0000
  C   C169      1.0  0.64778  0.81956  0.35414  1.0000
  C   C170      1.0  0.65905  0.81123  0.39255  1.0000
  C   C171      1.0  0.68046  0.82180  0.39111  1.0000
  C   C172      1.0  0.75768  0.90616  0.33418  1.0000
  C   C173      1.0  0.74940  0.91736  0.29417  1.0000
  C   C174      1.0  0.76024  0.93876  0.29171  1.0000
  C   C175      1.0  0.78015  0.95006  0.32703  1.0000
  C   C176      1.0  0.78840  0.93897  0.36787  1.0000
  C   C177      1.0  0.77740  0.91757  0.37174  1.0000
  C   C178      1.0  0.75706  0.84022  0.32498  1.0000
  C   C179      1.0  0.77648  0.84792  0.36496  1.0000
  C   C180      1.0  0.78717  0.83721  0.36125  1.0000
  C   C181      1.0  0.77885  0.81804  0.31875  1.0000
  C   C182      1.0  0.75925  0.81006  0.28076  1.0000
  C   C183      1.0  0.74877  0.82099  0.28270  1.0000
  H   H77       1.0  0.75332  0.94602  0.26373  1.0000
  H   H78       1.0  0.73538  0.91003  0.26467  1.0000
  H   H79       1.0  0.80275  0.94640  0.39435  1.0000
  H   H80       1.0  0.78401  0.91039  0.40333  1.0000
  H   H81       1.0  0.78308  0.86143  0.39879  1.0000
  H   H82       1.0  0.80130  0.84373  0.38976  1.0000
  H   H83       1.0  0.73494  0.81467  0.25161  1.0000
  H   H84       1.0  0.75221  0.79599  0.25167  1.0000
  H   H85       1.0  0.68771  0.81524  0.42253  1.0000
  H   H86       1.0  0.65176  0.79716  0.42165  1.0000
  H   H87       1.0  0.65162  0.84543  0.28265  1.0000
  H   H88       1.0  0.68753  0.86250  0.27426  1.0000
  H   H89       1.0  0.71774  0.88108  0.35749  1.0000
  H   H90       1.0  0.77190  0.88044  0.31499  1.0000
  H   H91       1.0  0.71682  0.82566  0.33751  1.0000
  C   C184      1.0  0.11961  0.84083  0.34787  1.0000
  C   C185      1.0  0.14102  0.85058  0.33908  1.0000
  C   C186      1.0  0.15164  0.87200  0.32921  1.0000
  C   C187      1.0  0.14183  0.88372  0.33057  1.0000
  C   C188      1.0  0.12031  0.87293  0.33692  1.0000
  C   C189      1.0  0.15151  0.83916  0.34036  1.0000
  C   C190      1.0  0.14289  0.81949  0.30199  1.0000
  C   C191      1.0  0.15291  0.80813  0.30527  1.0000
  C   C192      1.0  0.17220  0.81598  0.34622  1.0000
  C   C193      1.0  0.18114  0.83586  0.38217  1.0000
  C   C194      1.0  0.17093  0.84704  0.38038  1.0000
  C   C195      1.0  0.15334  0.90565  0.32605  1.0000
  C   C196      1.0  0.14568  0.91709  0.28321  1.0000
  C   C197      1.0  0.15672  0.93850  0.28146  1.0000
  C   C198      1.0  0.17633  0.94963  0.31997  1.0000
  C   C199      1.0  0.18405  0.93828  0.36292  1.0000
  C   C200      1.0  0.17277  0.91689  0.36658  1.0000
  H   H92       1.0  0.13189  0.90997  0.25167  1.0000
  H   H93       1.0  0.15008  0.94590  0.25217  1.0000
  H   H94       1.0  0.17894  0.90963  0.40087  1.0000
  H   H95       1.0  0.19814  0.94552  0.39193  1.0000
  H   H96       1.0  0.17786  0.86103  0.41025  1.0000
  H   H97       1.0  0.19532  0.84251  0.41014  1.0000
  H   H98       1.0  0.14578  0.79383  0.27827  1.0000
  H   H99       1.0  0.12913  0.81316  0.27021  1.0000
  H   H100      1.0  0.16698  0.87927  0.31860  1.0000
  C   C201      1.0  0.85629  0.74176  0.33120  1.0000
  C   C202      1.0  0.84626  0.72027  0.33857  1.0000
  C   C203      1.0  0.85683  0.70935  0.34625  1.0000
  C   C204      1.0  0.87835  0.72093  0.34897  1.0000
  C   C205      1.0  0.88933  0.74235  0.33923  1.0000
  C   C206      1.0  0.87784  0.75226  0.32925  1.0000
  C   C207      1.0  0.84626  0.68742  0.35005  1.0000
  C   C208      1.0  0.82704  0.67602  0.39197  1.0000
  C   C209      1.0  0.81656  0.65461  0.39310  1.0000
  C   C210      1.0  0.82502  0.64344  0.35472  1.0000
  C   C211      1.0  0.84417  0.65475  0.31250  1.0000
  C   C212      1.0  0.85442  0.67615  0.30955  1.0000
  C   C213      1.0  0.84515  0.75256  0.32645  1.0000
  C   C214      1.0  0.82595  0.74421  0.28380  1.0000
  C   C215      1.0  0.81495  0.75463  0.28160  1.0000
  C   C216      1.0  0.82284  0.77422  0.31957  1.0000
  C   C217      1.0  0.84197  0.78259  0.36248  1.0000
  C   C218      1.0  0.85273  0.77195  0.36652  1.0000
  C   C219      1.0  0.91125  0.75357  0.33858  1.0000
  C   C220      1.0  0.92242  0.77323  0.37698  1.0000
  C   C221      1.0  0.94383  0.78434  0.37460  1.0000
  C   C222      1.0  0.95515  0.77626  0.33452  1.0000
  C   C223      1.0  0.94407  0.75642  0.29832  1.0000
  C   C224      1.0  0.92267  0.74548  0.29925  1.0000
  H   H101      1.0  0.80091  0.74755  0.25223  1.0000
  H   H102      1.0  0.81970  0.73040  0.25266  1.0000
  H   H103      1.0  0.84843  0.79671  0.39099  1.0000
  H   H104      1.0  0.86620  0.77859  0.40066  1.0000
  H   H105      1.0  0.91507  0.77970  0.40817  1.0000
  H   H106      1.0  0.95110  0.79863  0.40173  1.0000
  H   H107      1.0  0.91551  0.73150  0.26927  1.0000
  H   H108      1.0  0.95150  0.74961  0.27088  1.0000
  H   H109      1.0  0.86794  0.68340  0.27590  1.0000
  H   H110      1.0  0.85101  0.64748  0.28365  1.0000
  H   H111      1.0  0.80247  0.64723  0.42192  1.0000
  H   H112      1.0  0.82039  0.68318  0.42332  1.0000
  H   H113      1.0  0.83075  0.71231  0.33824  1.0000
  H   H114      1.0  0.88541  0.76759  0.31788  1.0000
  H   H115      1.0  0.88629  0.71354  0.36030  1.0000
  C   C225      1.0  0.25240  0.10315  0.33501  1.0000
  C   C226      1.0  0.27384  0.11457  0.32651  1.0000
  C   C227      1.0  0.28498  0.13611  0.33008  1.0000
  C   C228      1.0  0.27361  0.14623  0.33721  1.0000
  C   C229      1.0  0.25210  0.13575  0.34333  1.0000
  C   C230      1.0  0.24204  0.11421  0.34477  1.0000
  C   C231      1.0  0.30693  0.14717  0.32865  1.0000
  C   C232      1.0  0.31828  0.13925  0.37029  1.0000
  C   C233      1.0  0.33967  0.15019  0.37228  1.0000
  C   C234      1.0  0.35086  0.16996  0.33548  1.0000
  C   C235      1.0  0.33963  0.17781  0.29248  1.0000
  C   C236      1.0  0.31823  0.16663  0.28864  1.0000
  C   C237      1.0  0.24161  0.08123  0.33281  1.0000
  C   C238      1.0  0.24991  0.06983  0.37055  1.0000
  C   C239      1.0  0.23959  0.04844  0.36623  1.0000
  C   C240      1.0  0.22031  0.03733  0.32480  1.0000
  C   C241      1.0  0.21171  0.04863  0.28940  1.0000
  C   C242      1.0  0.22220  0.07002  0.29226  1.0000
  C   C243      1.0  0.24088  0.14649  0.34561  1.0000
  C   C244      1.0  0.22164  0.13846  0.30350  1.0000
  C   C245      1.0  0.21089  0.14911  0.30247  1.0000
  C   C246      1.0  0.21911  0.16871  0.34074  1.0000
  C   C247      1.0  0.23817  0.17668  0.38401  1.0000
  C   C248      1.0  0.24869  0.16579  0.38694  1.0000
  H   H116      1.0  0.24650  0.04102  0.39290  1.0000
  H   H117      1.0  0.26364  0.07700  0.40260  1.0000
  H   H118      1.0  0.19756  0.04136  0.26105  1.0000
  H   H119      1.0  0.21551  0.07734  0.26263  1.0000
  H   H120      1.0  0.21528  0.12480  0.27092  1.0000
  H   H121      1.0  0.19687  0.14230  0.27285  1.0000
  H   H122      1.0  0.26226  0.17225  0.42022  1.0000
  H   H123      1.0  0.24484  0.19079  0.41272  1.0000
  H   H124      1.0  0.31100  0.17302  0.25575  1.0000
  H   H125      1.0  0.34695  0.19203  0.26476  1.0000
  H   H126      1.0  0.34701  0.14349  0.40168  1.0000
  H   H127      1.0  0.31110  0.12548  0.40196  1.0000
  H   H128      1.0  0.28156  0.10697  0.31522  1.0000
  H   H129      1.0  0.22667  0.10632  0.35499  1.0000
  H   H130      1.0  0.28126  0.16174  0.33788  1.0000
  C   C249      1.0  0.89055  0.13633  0.33743  1.0000
  C   C250      1.0  0.87941  0.14662  0.34748  1.0000
  C   C251      1.0  0.85788  0.13648  0.34601  1.0000
  C   C252      1.0  0.84748  0.11498  0.33896  1.0000
  C   C253      1.0  0.85767  0.10369  0.33123  1.0000
  C   C254      1.0  0.87920  0.11490  0.32823  1.0000
  C   C255      1.0  0.84708  0.14762  0.35023  1.0000
  C   C256      1.0  0.85493  0.16699  0.30950  1.0000
  C   C257      1.0  0.84439  0.17786  0.31246  1.0000
  C   C258      1.0  0.82523  0.16978  0.35489  1.0000
  C   C259      1.0  0.81710  0.15023  0.39366  1.0000
  C   C260      1.0  0.82787  0.13959  0.39258  1.0000
  C   C261      1.0  0.91247  0.14718  0.33555  1.0000
  C   C262      1.0  0.92367  0.16662  0.29530  1.0000
  C   C263      1.0  0.94507  0.17714  0.29258  1.0000
  C   C264      1.0  0.95636  0.16852  0.32786  1.0000
  C   C265      1.0  0.94526  0.14922  0.36906  1.0000
  C   C266      1.0  0.92387  0.13888  0.37325  1.0000
  C   C267      1.0  0.84670  0.08175  0.32723  1.0000
  C   C268      1.0  0.85450  0.07014  0.36749  1.0000
  C   C269      1.0  0.84386  0.04874  0.36440  1.0000
  C   C270      1.0  0.82465  0.03777  0.32231  1.0000
  C   C271      1.0  0.81657  0.04928  0.28405  1.0000
  C   C272      1.0  0.82744  0.07069  0.28530  1.0000
  H   H131      1.0  0.95234  0.19130  0.26435  1.0000
  H   H132      1.0  0.91634  0.17332  0.26582  1.0000
  H   H133      1.0  0.95268  0.14230  0.39556  1.0000
  H   H134      1.0  0.91670  0.12512  0.40506  1.0000
  H   H135      1.0  0.86804  0.07715  0.40109  1.0000
  H   H136      1.0  0.85045  0.04122  0.39310  1.0000
  H   H137      1.0  0.82104  0.07811  0.25407  1.0000
  H   H138      1.0  0.80246  0.04216  0.25526  1.0000
  H   H139      1.0  0.82143  0.12582  0.42418  1.0000
  H   H140      1.0  0.80302  0.14333  0.42263  1.0000
  H   H141      1.0  0.85101  0.19193  0.28333  1.0000
  H   H142      1.0  0.86842  0.17341  0.27554  1.0000
  H   H143      1.0  0.88726  0.16196  0.35822  1.0000
  H   H144      1.0  0.88686  0.10725  0.31658  1.0000
  H   H145      1.0  0.83196  0.10728  0.33935  1.0000
  C   C273      1.0  0.25125  0.52958  0.33101  1.0000
  C   C274      1.0  0.24105  0.50815  0.33592  1.0000
  C   C275      1.0  0.25174  0.49726  0.34258  1.0000
  C   C276      1.0  0.27335  0.50882  0.34415  1.0000
  C   C277      1.0  0.28402  0.53024  0.33695  1.0000
  C   C278      1.0  0.27267  0.54030  0.33252  1.0000
  C   C279      1.0  0.24101  0.47534  0.34509  1.0000
  C   C280      1.0  0.22173  0.46410  0.38674  1.0000
  C   C281      1.0  0.21105  0.44271  0.38780  1.0000
  C   C282      1.0  0.21939  0.43140  0.35004  1.0000
  C   C283      1.0  0.23858  0.44252  0.30792  1.0000
  C   C284      1.0  0.24903  0.46392  0.30488  1.0000
  C   C285      1.0  0.24076  0.54068  0.32308  1.0000
  C   C286      1.0  0.22676  0.53930  0.38893  1.0000
  C   C287      1.0  0.21935  0.55302  0.38916  1.0000
  C   C288      1.0  0.22547  0.56827  0.32281  1.0000
  C   C289      1.0  0.23896  0.56913  0.25544  1.0000
  C   C290      1.0  0.24637  0.55551  0.25523  1.0000
  C   C291      1.0  0.30561  0.54198  0.33038  1.0000
  C   C292      1.0  0.31452  0.55631  0.26039  1.0000
  C   C293      1.0  0.33545  0.57030  0.25946  1.0000
  C   C294      1.0  0.34839  0.57026  0.32743  1.0000
  C   C295      1.0  0.33959  0.55549  0.39600  1.0000
  C   C296      1.0  0.31852  0.54144  0.39716  1.0000
  H   H146      1.0  0.20998  0.55224  0.44007  1.0000
  H   H147      1.0  0.22292  0.52919  0.44064  1.0000
  H   H148      1.0  0.24450  0.58046  0.20849  1.0000
  H   H149      1.0  0.25675  0.55721  0.20736  1.0000
  H   H150      1.0  0.30567  0.55736  0.21140  1.0000
  H   H151      1.0  0.34093  0.58125  0.21081  1.0000
  H   H152      1.0  0.31252  0.53163  0.45000  1.0000
  H   H153      1.0  0.34839  0.55527  0.44729  1.0000
  H   H154      1.0  0.26258  0.47104  0.27147  1.0000
  H   H155      1.0  0.24532  0.43510  0.27953  1.0000
  H   H156      1.0  0.19694  0.43546  0.41655  1.0000
  H   H157      1.0  0.21519  0.47138  0.41806  1.0000
  H   H158      1.0  0.22554  0.50043  0.33085  1.0000
  H   H159      1.0  0.28024  0.55588  0.33036  1.0000
  H   H160      1.0  0.28163  0.50160  0.34899  1.0000
  C   C297      1.0  0.46180  0.70942  0.33041  1.0000
  C   C298      1.0  0.48324  0.72064  0.33534  1.0000
  C   C299      1.0  0.49416  0.74222  0.34189  1.0000
  C   C300      1.0  0.48262  0.75230  0.34337  1.0000
  C   C301      1.0  0.46119  0.74156  0.33622  1.0000
  C   C302      1.0  0.45111  0.72015  0.33188  1.0000
  C   C303      1.0  0.51609  0.75342  0.34459  1.0000
  C   C304      1.0  0.52730  0.74536  0.38641  1.0000
  C   C305      1.0  0.54870  0.75610  0.38801  1.0000
  C   C306      1.0  0.56004  0.77580  0.35063  1.0000
  C   C307      1.0  0.54895  0.78386  0.30814  1.0000
  C   C308      1.0  0.52755  0.77288  0.30461  1.0000
  C   C309      1.0  0.45064  0.68784  0.32239  1.0000
  C   C310      1.0  0.45181  0.67518  0.38865  1.0000
  C   C311      1.0  0.43795  0.65407  0.38894  1.0000
  C   C312      1.0  0.42274  0.64499  0.32235  1.0000
  C   C313      1.0  0.42209  0.65767  0.25464  1.0000
  C   C314      1.0  0.43586  0.67867  0.25430  1.0000
  C   C315      1.0  0.44946  0.75142  0.32954  1.0000
  C   C316      1.0  0.43515  0.74600  0.25946  1.0000
  C   C317      1.0  0.42109  0.75285  0.25860  1.0000
  C   C318      1.0  0.42101  0.76572  0.32681  1.0000
  C   C319      1.0  0.43576  0.77169  0.39546  1.0000
  C   C320      1.0  0.44990  0.76478  0.39650  1.0000
  H   H161      1.0  0.43857  0.64546  0.44015  1.0000
  H   H162      1.0  0.46185  0.68139  0.44058  1.0000
  H   H163      1.0  0.41080  0.65195  0.20749  1.0000
  H   H164      1.0  0.43429  0.68739  0.20620  1.0000
  H   H165      1.0  0.43417  0.73615  0.21033  1.0000
  H   H166      1.0  0.41014  0.74735  0.20994  1.0000
  H   H167      1.0  0.45966  0.76855  0.44951  1.0000
  H   H168      1.0  0.43590  0.78063  0.44697  1.0000
  H   H169      1.0  0.52045  0.77932  0.27109  1.0000
  H   H170      1.0  0.55639  0.79803  0.27996  1.0000
  H   H171      1.0  0.55592  0.74924  0.41697  1.0000
  H   H172      1.0  0.52001  0.73154  0.41757  1.0000
  H   H173      1.0  0.49094  0.71283  0.33039  1.0000
  H   H174      1.0  0.43553  0.71216  0.32969  1.0000
  H   H175      1.0  0.48985  0.76780  0.34817  1.0000
  C   C321      1.0  0.28163  0.73955  0.33051  1.0000
  C   C322      1.0  0.27042  0.74978  0.33472  1.0000
  C   C323      1.0  0.24884  0.73913  0.34098  1.0000
  C   C324      1.0  0.23875  0.71752  0.34301  1.0000
  C   C325      1.0  0.24948  0.70682  0.33658  1.0000
  C   C326      1.0  0.27089  0.71812  0.33239  1.0000
  C   C327      1.0  0.23762  0.74984  0.34280  1.0000
  C   C328      1.0  0.24561  0.76914  0.38418  1.0000
  C   C329      1.0  0.23484  0.77976  0.38497  1.0000
  C   C330      1.0  0.21518  0.77133  0.34722  1.0000
  C   C331      1.0  0.20717  0.75214  0.30518  1.0000
  C   C332      1.0  0.21819  0.74176  0.30240  1.0000
  C   C333      1.0  0.30321  0.74995  0.32252  1.0000
  C   C334      1.0  0.31588  0.76383  0.38862  1.0000
  C   C335      1.0  0.33698  0.77106  0.38895  1.0000
  C   C336      1.0  0.34605  0.76490  0.32245  1.0000
  C   C337      1.0  0.33337  0.75155  0.25483  1.0000
  C   C338      1.0  0.31237  0.74430  0.25453  1.0000
  C   C339      1.0  0.23957  0.68522  0.33016  1.0000
  C   C340      1.0  0.24500  0.67626  0.26045  1.0000
  C   C341      1.0  0.23794  0.65531  0.25958  1.0000
  C   C342      1.0  0.22486  0.64242  0.32740  1.0000
  C   C343      1.0  0.21890  0.65128  0.39571  1.0000
  C   C344      1.0  0.22600  0.67236  0.39668  1.0000
  H   H176      1.0  0.34559  0.78033  0.44007  1.0000
  H   H177      1.0  0.30966  0.76765  0.44057  1.0000
  H   H178      1.0  0.33909  0.74598  0.20773  1.0000
  H   H179      1.0  0.30364  0.73399  0.20652  1.0000
  H   H180      1.0  0.25494  0.68508  0.21150  1.0000
  H   H181      1.0  0.24340  0.64978  0.21111  1.0000
  H   H182      1.0  0.22222  0.67841  0.44946  1.0000
  H   H183      1.0  0.20982  0.64251  0.44695  1.0000
  H   H184      1.0  0.21180  0.72819  0.26911  1.0000
  H   H185      1.0  0.19303  0.74537  0.27669  1.0000
  H   H186      1.0  0.24166  0.79388  0.41360  1.0000
  H   H187      1.0  0.25942  0.77572  0.41558  1.0000
  H   H188      1.0  0.27823  0.76528  0.32942  1.0000
  H   H189      1.0  0.27888  0.71052  0.33060  1.0000
  H   H190      1.0  0.22325  0.70926  0.34768  1.0000
  C   C345      1.0  0.74718  0.45688  0.33609  1.0000
  C   C346      1.0  0.75792  0.47831  0.34291  1.0000
  C   C347      1.0  0.74786  0.48986  0.34072  1.0000
  C   C348      1.0  0.72629  0.47896  0.33368  1.0000
  C   C349      1.0  0.71506  0.45753  0.32897  1.0000
  C   C350      1.0  0.72578  0.44682  0.33118  1.0000
  C   C351      1.0  0.75905  0.51179  0.34346  1.0000
  C   C352      1.0  0.77855  0.52326  0.30382  1.0000
  C   C353      1.0  0.78952  0.54466  0.30747  1.0000
  C   C354      1.0  0.78142  0.55573  0.34978  1.0000
  C   C355      1.0  0.76169  0.54438  0.38680  1.0000
  C   C356      1.0  0.75095  0.52299  0.38505  1.0000
  C   C357      1.0  0.75702  0.44510  0.33077  1.0000
  C   C358      1.0  0.77037  0.44575  0.39826  1.0000
  C   C359      1.0  0.77727  0.43160  0.39874  1.0000
  C   C360      1.0  0.77130  0.41663  0.33108  1.0000
  C   C361      1.0  0.75844  0.41650  0.26230  1.0000
  C   C362      1.0  0.75161  0.43057  0.26167  1.0000
  C   C363      1.0  0.69349  0.44637  0.32088  1.0000
  C   C364      1.0  0.68433  0.43157  0.25290  1.0000
  C   C365      1.0  0.66335  0.41773  0.25362  1.0000
  C   C366      1.0  0.65068  0.41836  0.32146  1.0000
  C   C367      1.0  0.65975  0.43366  0.38772  1.0000
  C   C368      1.0  0.68084  0.44756  0.38715  1.0000
  H   H191      1.0  0.78620  0.43189  0.45062  1.0000
  H   H192      1.0  0.77411  0.45565  0.45071  1.0000
  H   H193      1.0  0.75299  0.40542  0.21419  1.0000
  H   H194      1.0  0.74179  0.42946  0.21212  1.0000
  H   H195      1.0  0.69305  0.42996  0.20495  1.0000
  H   H196      1.0  0.65763  0.40638  0.20675  1.0000
  H   H197      1.0  0.68706  0.45762  0.43906  1.0000
  H   H198      1.0  0.65117  0.43425  0.43911  1.0000
  H   H199      1.0  0.73710  0.51568  0.41601  1.0000
  H   H200      1.0  0.75481  0.55159  0.41565  1.0000
  H   H201      1.0  0.80372  0.55211  0.27954  1.0000
  H   H202      1.0  0.78502  0.51616  0.27052  1.0000
  H   H203      1.0  0.77341  0.48554  0.34823  1.0000
  H   H204      1.0  0.71776  0.43123  0.32934  1.0000
  H   H205      1.0  0.71849  0.48667  0.32831  1.0000
  C   C369      1.0  0.53731  0.27901  0.33880  1.0000
  C   C370      1.0  0.51587  0.26826  0.34458  1.0000
  C   C371      1.0  0.50438  0.24666  0.34169  1.0000
  C   C372      1.0  0.51535  0.23604  0.33540  1.0000
  C   C373      1.0  0.53680  0.24632  0.33176  1.0000
  C   C374      1.0  0.54745  0.26774  0.33442  1.0000
  C   C375      1.0  0.48245  0.23592  0.34221  1.0000
  C   C376      1.0  0.47123  0.24406  0.30106  1.0000
  C   C377      1.0  0.44982  0.23363  0.30225  1.0000
  C   C378      1.0  0.43850  0.21435  0.34337  1.0000
  C   C379      1.0  0.44963  0.20589  0.38201  1.0000
  C   C380      1.0  0.47103  0.21654  0.38274  1.0000
  C   C381      1.0  0.54894  0.30061  0.33244  1.0000
  C   C382      1.0  0.54804  0.31345  0.39858  1.0000
  C   C383      1.0  0.56186  0.33457  0.39726  1.0000
  C   C384      1.0  0.57664  0.34350  0.32886  1.0000
  C   C385      1.0  0.57703  0.33062  0.26150  1.0000
  C   C386      1.0  0.56332  0.30963  0.26273  1.0000
  C   C387      1.0  0.54800  0.23598  0.32266  1.0000
  C   C388      1.0  0.56267  0.24171  0.25402  1.0000
  C   C389      1.0  0.57637  0.23439  0.25274  1.0000
  C   C390      1.0  0.57581  0.22093  0.31957  1.0000
  C   C391      1.0  0.56073  0.21471  0.38684  1.0000
  C   C392      1.0  0.54692  0.22201  0.38805  1.0000
  H   H206      1.0  0.56140  0.34335  0.44814  1.0000
  H   H207      1.0  0.53820  0.30737  0.45126  1.0000
  H   H208      1.0  0.58801  0.33622  0.21297  1.0000
  H   H209      1.0  0.56458  0.30084  0.21404  1.0000
  H   H210      1.0  0.56417  0.25207  0.20649  1.0000
  H   H211      1.0  0.58757  0.24001  0.20521  1.0000
  H   H212      1.0  0.53692  0.21806  0.44026  1.0000
  H   H213      1.0  0.56015  0.20535  0.43735  1.0000
  H   H214      1.0  0.47815  0.20991  0.41452  1.0000
  H   H215      1.0  0.44223  0.19171  0.41007  1.0000
  H   H216      1.0  0.44255  0.24045  0.27324  1.0000
  H   H217      1.0  0.47851  0.25768  0.26828  1.0000
  H   H218      1.0  0.50859  0.27649  0.34910  1.0000
  H   H219      1.0  0.56304  0.27537  0.33274  1.0000
  H   H220      1.0  0.50768  0.22055  0.32932  1.0000
  C   C393      1.0  0.71412  0.24465  0.32906  1.0000
  C   C394      1.0  0.72530  0.23440  0.33376  1.0000
  C   C395      1.0  0.74687  0.24504  0.34106  1.0000
  C   C396      1.0  0.75696  0.26665  0.34385  1.0000
  C   C397      1.0  0.74625  0.27738  0.33722  1.0000
  C   C398      1.0  0.72486  0.26607  0.33188  1.0000
  C   C399      1.0  0.75808  0.23431  0.34330  1.0000
  C   C400      1.0  0.75002  0.21498  0.38450  1.0000
  C   C401      1.0  0.76085  0.20441  0.38615  1.0000
  C   C402      1.0  0.78060  0.21288  0.34923  1.0000
  C   C403      1.0  0.78863  0.23206  0.30710  1.0000
  C   C404      1.0  0.77758  0.24242  0.30362  1.0000
  C   C405      1.0  0.69257  0.23431  0.31978  1.0000
  C   C406      1.0  0.67967  0.22062  0.38586  1.0000
  C   C407      1.0  0.65861  0.21363  0.38509  1.0000
  C   C408      1.0  0.64983  0.21988  0.31767  1.0000
  C   C409      1.0  0.66275  0.23304  0.25007  1.0000
  C   C410      1.0  0.68370  0.24003  0.25079  1.0000
  C   C411      1.0  0.75615  0.29901  0.33204  1.0000
  C   C412      1.0  0.75080  0.30819  0.26297  1.0000
  C   C413      1.0  0.75783  0.32913  0.26339  1.0000
  C   C414      1.0  0.77084  0.34184  0.33184  1.0000
  C   C415      1.0  0.77671  0.33276  0.39956  1.0000
  C   C416      1.0  0.76962  0.31168  0.39930  1.0000
  H   H221      1.0  0.64983  0.20449  0.43619  1.0000
  H   H222      1.0  0.68568  0.21673  0.43841  1.0000
  H   H223      1.0  0.65727  0.23877  0.20256  1.0000
  H   H224      1.0  0.69262  0.25030  0.20303  1.0000
  H   H225      1.0  0.74095  0.29952  0.21346  1.0000
  H   H226      1.0  0.75247  0.33482  0.21517  1.0000
  H   H227      1.0  0.77337  0.30549  0.45159  1.0000
  H   H228      1.0  0.78577  0.34139  0.45115  1.0000
  H   H229      1.0  0.78402  0.25601  0.27054  1.0000
  H   H230      1.0  0.80284  0.23889  0.27928  1.0000
  H   H231      1.0  0.75402  0.19030  0.41491  1.0000
  H   H232      1.0  0.73616  0.20837  0.41540  1.0000
  H   H233      1.0  0.71750  0.21890  0.32787  1.0000
  H   H234      1.0  0.71686  0.27366  0.32992  1.0000
  H   H235      1.0  0.77244  0.27488  0.34934  1.0000
  C   C417      1.0  0.20878  0.40956  0.35361  1.0000
  C   C418      1.0  0.19919  0.39843  0.43243  1.0000
  C   C419      1.0  0.18837  0.37674  0.43266  1.0000
  C   C420      1.0  0.18686  0.36556  0.35400  1.0000
  N   N25       1.0  0.17971  0.36717  0.51105  1.0000
  C   C421      1.0  0.18045  0.37695  0.58801  1.0000
  C   C422      1.0  0.19119  0.39845  0.58771  1.0000
  N   N26       1.0  0.20014  0.40811  0.51051  1.0000
  C   C423      1.0  0.17049  0.36629  0.66621  1.0000
  C   C424      1.0  0.19196  0.40925  0.66553  1.0000
  H   H236      1.0  0.16255  0.35074  0.66663  1.0000
  H   H237      1.0  0.19955  0.42480  0.66538  1.0000
  C   C425      1.0  0.58189  0.78706  0.35497  1.0000
  C   C426      1.0  0.59287  0.78850  0.43415  1.0000
  C   C427      1.0  0.61456  0.79928  0.43510  1.0000
  C   C428      1.0  0.62590  0.80897  0.35683  1.0000
  N   N27       1.0  0.62398  0.80009  0.51378  1.0000
  C   C429      1.0  0.61406  0.79104  0.59046  1.0000
  C   C430      1.0  0.59256  0.78037  0.58949  1.0000
  N   N28       1.0  0.58305  0.77977  0.51196  1.0000
  H   H238      1.0  0.56606  0.76248  0.66641  1.0000
  C   C431      1.0  0.20391  0.78191  0.35059  1.0000
  C   C432      1.0  0.20247  0.79160  0.42927  1.0000
  C   C433      1.0  0.19188  0.80270  0.42904  1.0000
  C   C434      1.0  0.18238  0.80435  0.35012  1.0000
  N   N29       1.0  0.19105  0.81149  0.50716  1.0000
  C   C435      1.0  0.19989  0.81058  0.58442  1.0000
  C   C436      1.0  0.21037  0.79955  0.58466  1.0000
  N   N30       1.0  0.21101  0.79050  0.50762  1.0000
  C   C437      1.0  0.19926  0.82062  0.66246  1.0000
  C   C438      1.0  0.22017  0.79858  0.66284  1.0000
  H   H239      1.0  0.19184  0.82875  0.66251  1.0000
  H   H240      1.0  0.22793  0.79078  0.66310  1.0000
  C   C439      1.0  0.79269  0.57757  0.35448  1.0000
  C   C440      1.0  0.79406  0.58847  0.43385  1.0000
  C   C441      1.0  0.80480  0.61016  0.43516  1.0000
  C   C442      1.0  0.81451  0.62157  0.35707  1.0000
  N   N31       1.0  0.80555  0.61950  0.51400  1.0000
  C   C443      1.0  0.79648  0.60950  0.59050  1.0000
  C   C444      1.0  0.78586  0.58800  0.58917  1.0000
  N   N32       1.0  0.78530  0.57857  0.51147  1.0000
  C   C445      1.0  0.77582  0.57697  0.66650  1.0000
  H   H241      1.0  0.76797  0.56142  0.66563  1.0000
  C   C446      1.0  0.41665  0.20374  0.34496  1.0000
  C   C447      1.0  0.40518  0.19394  0.42278  1.0000
  C   C448      1.0  0.38350  0.18297  0.42089  1.0000
  C   C449      1.0  0.37267  0.18149  0.34108  1.0000
  N   N33       1.0  0.37357  0.17411  0.49836  1.0000
  C   C450      1.0  0.38298  0.17478  0.57634  1.0000
  C   C451      1.0  0.40448  0.18566  0.57814  1.0000
  N   N34       1.0  0.41449  0.19481  0.50183  1.0000
  C   C452      1.0  0.37196  0.16463  0.65353  1.0000
  C   C453      1.0  0.41491  0.18635  0.65707  1.0000
  H   H242      1.0  0.35641  0.15661  0.65242  1.0000
  H   H243      1.0  0.43046  0.19402  0.65846  1.0000
  C   C454      1.0  0.79200  0.20244  0.35398  1.0000
  C   C455      1.0  0.79350  0.19301  0.43341  1.0000
  C   C456      1.0  0.80453  0.18235  0.43495  1.0000
  C   C457      1.0  0.81439  0.18082  0.35701  1.0000
  N   N35       1.0  0.80540  0.17386  0.51388  1.0000
  C   C458      1.0  0.79621  0.17464  0.59026  1.0000
  C   C459      1.0  0.78529  0.18523  0.58869  1.0000
  N   N36       1.0  0.78462  0.19401  0.51091  1.0000
  C   C460      1.0  0.77513  0.18606  0.66591  1.0000
  H   H244      1.0  0.76708  0.19355  0.66488  1.0000
  C   C461      1.0  0.19637  0.20063  0.41346  1.0000
  C   C462      1.0  0.20705  0.18992  0.41394  1.0000
  H   H245      1.0  0.21348  0.18914  0.47286  1.0000
  H   H246      1.0  0.19579  0.20757  0.47120  1.0000
  C   C463      1.0  0.16997  0.17390  0.61405  1.0000
  C   C464      1.0  0.18103  0.16355  0.61375  1.0000
  H   H247      1.0  0.16231  0.17393  0.55792  1.0000
  H   H248      1.0  0.18137  0.15609  0.55742  1.0000
  C   C465      1.0  0.80175  0.98336  0.39899  1.0000
  C   C466      1.0  0.81256  0.00474  0.39784  1.0000
  H   H249      1.0  0.81920  0.01215  0.45614  1.0000
  H   H250      1.0  0.80104  0.97620  0.45798  1.0000
  C   C467      1.0  0.77503  0.98222  0.59905  1.0000
  C   C468      1.0  0.78588  0.00363  0.59781  1.0000
  H   H251      1.0  0.76743  0.97433  0.54312  1.0000
  H   H252      1.0  0.78613  0.01124  0.54101  1.0000
  C   C469      1.0  0.98813  0.79773  0.40932  1.0000
  H   H253      1.0  0.98071  0.79693  0.46765  1.0000
  C   C470      1.0  0.98900  0.77209  0.60919  1.0000
  H   H254      1.0  0.98136  0.76466  0.55255  1.0000
  C   C471      1.0  0.81051  0.79515  0.39329  1.0000
  C   C472      1.0  0.79980  0.80582  0.39309  1.0000
  H   H255      1.0  0.79902  0.81234  0.45174  1.0000
  H   H256      1.0  0.81701  0.79441  0.45209  1.0000
  C   C473      1.0  0.78459  0.76894  0.59327  1.0000
  C   C474      1.0  0.77385  0.77962  0.59307  1.0000
  H   H257      1.0  0.78485  0.76142  0.53703  1.0000
  H   H258      1.0  0.76634  0.77983  0.53669  1.0000
  C   C475      1.0  0.20856  0.00398  0.39640  1.0000
  C   C476      1.0  0.19780  0.98259  0.39521  1.0000
  H   H259      1.0  0.19691  0.97515  0.45355  1.0000
  H   H260      1.0  0.21502  0.01110  0.45545  1.0000
  C   C477      1.0  0.18337  0.00546  0.59621  1.0000
  C   C478      1.0  0.17264  0.98405  0.59492  1.0000
  H   H261      1.0  0.18374  0.01339  0.54031  1.0000
  H   H262      1.0  0.16524  0.97648  0.53811  1.0000
  C   C479      1.0  0.98970  0.18014  0.39927  1.0000
  H   H263      1.0  0.98258  0.17375  0.45841  1.0000
  C   C480      1.0  0.98822  0.20545  0.59926  1.0000
  H   H264      1.0  0.98029  0.20518  0.54351  1.0000
  C   C481      1.0  0.22557  0.61461  0.40757  1.0000
  C   C482      1.0  0.22576  0.59619  0.40631  1.0000
  H   H265      1.0  0.23144  0.59259  0.46104  1.0000
  H   H266      1.0  0.23119  0.62365  0.46304  1.0000
  C   C483      1.0  0.19163  0.59854  0.61205  1.0000
  C   C484      1.0  0.19186  0.58012  0.61079  1.0000
  H   H267      1.0  0.18770  0.60340  0.55568  1.0000
  H   H268      1.0  0.18810  0.57164  0.55352  1.0000
  C   C485      1.0  0.37624  0.59886  0.40714  1.0000
  C   C486      1.0  0.39469  0.61744  0.40581  1.0000
  H   H269      1.0  0.39830  0.62675  0.46045  1.0000
  H   H270      1.0  0.36721  0.59548  0.46261  1.0000
  C   C487      1.0  0.39216  0.58078  0.61175  1.0000
  C   C488      1.0  0.41061  0.59942  0.61039  1.0000
  H   H271      1.0  0.38727  0.57199  0.55542  1.0000
  H   H272      1.0  0.41908  0.60410  0.55309  1.0000
  C   C489      1.0  0.39233  0.76477  0.40683  1.0000
  C   C490      1.0  0.37370  0.76452  0.40566  1.0000
  H   H273      1.0  0.36443  0.75885  0.46045  1.0000
  H   H274      1.0  0.39579  0.75918  0.46231  1.0000
  C   C491      1.0  0.41008  0.79879  0.61144  1.0000
  C   C492      1.0  0.39140  0.79851  0.61030  1.0000
  H   H275      1.0  0.41886  0.80274  0.55504  1.0000
  H   H276      1.0  0.38666  0.80226  0.55308  1.0000
  C   C493      1.0  0.77038  0.36966  0.41326  1.0000
  C   C494      1.0  0.77047  0.38822  0.41303  1.0000
  H   H277      1.0  0.76479  0.39176  0.46796  1.0000
  H   H278      1.0  0.76461  0.36048  0.46827  1.0000
  C   C495      1.0  0.80438  0.38631  0.61785  1.0000
  C   C496      1.0  0.80450  0.40491  0.61766  1.0000
  H   H279      1.0  0.80815  0.38144  0.56105  1.0000
  H   H280      1.0  0.80835  0.41350  0.56072  1.0000
  C   C497      1.0  0.62344  0.39031  0.40608  1.0000
  C   C498      1.0  0.60503  0.37168  0.40793  1.0000
  H   H281      1.0  0.60179  0.36275  0.46369  1.0000
  H   H282      1.0  0.63282  0.39410  0.46052  1.0000
  C   C499      1.0  0.60440  0.40520  0.61066  1.0000
  C   C500      1.0  0.58593  0.38659  0.61264  1.0000
  H   H283      1.0  0.60889  0.41360  0.55316  1.0000
  H   H284      1.0  0.57706  0.38153  0.55656  1.0000
  C   C501      1.0  0.60400  0.22114  0.40043  1.0000
  C   C502      1.0  0.62240  0.22090  0.39988  1.0000
  H   H285      1.0  0.63161  0.22644  0.45489  1.0000
  H   H286      1.0  0.60064  0.22686  0.45571  1.0000
  C   C503      1.0  0.58618  0.18723  0.60494  1.0000
  C   C504      1.0  0.60459  0.18696  0.60444  1.0000
  H   H287      1.0  0.57748  0.18345  0.54836  1.0000
  H   H288      1.0  0.60920  0.18297  0.54749  1.0000
