data_image0
_chemical_formula_structural       C2HCH2C2HCH2C4H2C4H2C8H4C4H2C4H4C2HC2HC2HC2HC2HC2HC2H3C2HC2HC2H4C2HC2HC2H4C4HC2H4C2HC2HC2H4C2HC2HC2H4C2HC2HC2H4C8H4C8H4C8H4C8H4C8H4C2HCH2C2HC2HC2H4C2HC2HC2H4C2HCH2C2HC2HC2H4C2HC2HC2H4C6H3C6H3C6H3C6H3C6H3C6H3C6H3C6H3C6H3C6H3C6H3C8H4C6H3C8H4C8H4C8H4C2HC2HC2H4C2HC2HC2H4C2HC2HC2H4C2HC2HC2H4C2HC2HC2H4C4H2C8H4C8H4C4H2C8H4C8H4
_chemical_formula_sum              "C324 H216"
_cell_length_a       60.2438
_cell_length_b       60.2439
_cell_length_c       14.9098
_cell_angle_alpha    90
_cell_angle_beta     90
_cell_angle_gamma    120

_space_group_name_H-M_alt    "P 1"
_space_group_IT_number       1

loop_
  _space_group_symop_operation_xyz
  'x, y, z'

loop_
  _atom_site_type_symbol
  _atom_site_label
  _atom_site_symmetry_multiplicity
  _atom_site_fract_x
  _atom_site_fract_y
  _atom_site_fract_z
  _atom_site_occupancy
  C   C1        1.0  0.03711  0.40091  0.25949  1.0000
  C   C2        1.0  0.06407  0.41689  0.26176  1.0000
  H   H1        1.0  0.07367  0.42595  0.20431  1.0000
  C   C3        1.0  0.02305  0.39687  0.17354  1.0000
  H   H2        1.0  0.03474  0.41100  0.12265  1.0000
  H   H3        1.0  0.01796  0.37791  0.14781  1.0000
  C   C4        1.0  0.06117  0.65085  0.26538  1.0000
  C   C5        1.0  0.03442  0.64121  0.26408  1.0000
  H   H4        1.0  0.06940  0.64616  0.21410  1.0000
  C   C6        1.0  0.01901  0.62431  0.18862  1.0000
  H   H5        1.0  0.01408  0.60462  0.20407  1.0000
  H   H6        1.0  0.03001  0.62994  0.12615  1.0000
  C   C7        1.0  0.07789  0.42196  0.34278  1.0000
  C   C8        1.0  0.06414  0.41043  0.42203  1.0000
  C   C9        1.0  0.03727  0.39453  0.42034  1.0000
  C   C10       1.0  0.02302  0.38962  0.33966  1.0000
  H   H7        1.0  0.07337  0.41502  0.48266  1.0000
  H   H8        1.0  0.02819  0.38828  0.48060  1.0000
  C   C11       1.0  0.02206  0.64568  0.33779  1.0000
  C   C12       1.0  0.03801  0.66198  0.40731  1.0000
  C   C13       1.0  0.06478  0.67201  0.40698  1.0000
  C   C14       1.0  0.07668  0.66597  0.33718  1.0000
  H   H9        1.0  0.03032  0.66645  0.46057  1.0000
  H   H10       1.0  0.07529  0.68246  0.46101  1.0000
  C   C15       1.0  0.13740  0.63470  0.33507  1.0000
  C   C16       1.0  0.13136  0.62043  0.25495  1.0000
  C   C17       1.0  0.13266  0.59782  0.25051  1.0000
  C   C18       1.0  0.13944  0.58828  0.32644  1.0000
  C   C19       1.0  0.13894  0.56405  0.32617  1.0000
  C   C20       1.0  0.12425  0.54433  0.26372  1.0000
  C   C21       1.0  0.12245  0.52021  0.26910  1.0000
  C   C22       1.0  0.13521  0.51467  0.33729  1.0000
  H   H11       1.0  0.11360  0.54667  0.21536  1.0000
  H   H12       1.0  0.11138  0.50653  0.22287  1.0000
  H   H13       1.0  0.12553  0.62618  0.19945  1.0000
  H   H14       1.0  0.12831  0.58839  0.19055  1.0000
  C   C23       1.0  0.13208  0.48964  0.34454  1.0000
  C   C24       1.0  0.10729  0.46787  0.34394  1.0000
  C   C25       1.0  0.10349  0.44280  0.34730  1.0000
  C   C26       1.0  0.12517  0.43953  0.35042  1.0000
  H   H15       1.0  0.12241  0.42134  0.34925  1.0000
  H   H16       1.0  0.09164  0.47034  0.34143  1.0000
  C   C27       1.0  0.13319  0.65579  0.34179  1.0000
  C   C28       1.0  0.10793  0.65143  0.33972  1.0000
  C   C29       1.0  0.10274  0.67185  0.34339  1.0000
  C   C30       1.0  0.12371  0.69724  0.34992  1.0000
  H   H17       1.0  0.12028  0.71226  0.34964  1.0000
  H   H18       1.0  0.09300  0.63292  0.33602  1.0000
  H   H19       1.0  0.13654  0.58241  0.52678  1.0000
  H   H20       1.0  0.18553  0.72245  0.22443  1.0000
  C   C31       1.0  0.15049  0.46092  0.35011  1.0000
  C   C32       1.0  0.15335  0.48580  0.34909  1.0000
  H   H21       1.0  0.17135  0.50158  0.34942  1.0000
  C   C33       1.0  0.14939  0.70226  0.34931  1.0000
  C   C34       1.0  0.15373  0.68122  0.34646  1.0000
  H   H22       1.0  0.17212  0.68443  0.34590  1.0000
  C   C35       1.0  0.17493  0.43975  0.40091  1.0000
  C   C36       1.0  0.17275  0.45795  0.34740  1.0000
  H   H23       1.0  0.16033  0.42802  0.44310  1.0000
  C   C37       1.0  0.17082  0.72773  0.34602  1.0000
  C   C38       1.0  0.17574  0.74569  0.41486  1.0000
  H   H24       1.0  0.16348  0.74080  0.46822  1.0000
  C   C39       1.0  0.14677  0.60345  0.40605  1.0000
  C   C40       1.0  0.14540  0.62623  0.41002  1.0000
  H   H25       1.0  0.14936  0.63620  0.46906  1.0000
  C   C41       1.0  0.15009  0.53420  0.39958  1.0000
  C   C42       1.0  0.15172  0.55846  0.39544  1.0000
  H   H26       1.0  0.15915  0.53043  0.45045  1.0000
  C   C43       1.0  0.16690  0.57843  0.46360  1.0000
  C   C44       1.0  0.15392  0.59428  0.48788  1.0000
  H   H27       1.0  0.18590  0.59120  0.43563  1.0000
  H   H28       1.0  0.16943  0.57001  0.52504  1.0000
  H   H29       1.0  0.16711  0.61039  0.53001  1.0000
  C   C45       1.0  0.26056  0.46597  0.27452  1.0000
  C   C46       1.0  0.28484  0.46765  0.27571  1.0000
  H   H30       1.0  0.29746  0.47695  0.22448  1.0000
  C   C47       1.0  0.19379  0.47363  0.29116  1.0000
  C   C48       1.0  0.21634  0.47187  0.28958  1.0000
  H   H31       1.0  0.19271  0.48664  0.24984  1.0000
  C   C49       1.0  0.23814  0.48982  0.23171  1.0000
  C   C50       1.0  0.25364  0.47732  0.19840  1.0000
  H   H32       1.0  0.25063  0.50698  0.27080  1.0000
  H   H33       1.0  0.23146  0.49575  0.17312  1.0000
  H   H34       1.0  0.27059  0.49176  0.16256  1.0000
  H   H35       1.0  0.24199  0.46200  0.15102  1.0000
  C   C51       1.0  0.55392  0.80842  0.27456  1.0000
  C   C52       1.0  0.55223  0.83101  0.27575  1.0000
  H   H36       1.0  0.54294  0.83434  0.22451  1.0000
  C   C53       1.0  0.54627  0.73399  0.29121  1.0000
  C   C54       1.0  0.54802  0.75830  0.28962  1.0000
  H   H37       1.0  0.53326  0.71991  0.24988  1.0000
  C   C55       1.0  0.53008  0.76216  0.23174  1.0000
  C   C56       1.0  0.54258  0.79016  0.19843  1.0000
  H   H38       1.0  0.51292  0.75748  0.27080  1.0000
  H   H39       1.0  0.52415  0.74954  0.17314  1.0000
  H   H40       1.0  0.52813  0.79266  0.16259  1.0000
  H   H41       1.0  0.55790  0.79383  0.15106  1.0000
  C   C57       1.0  0.21146  0.75935  0.27451  1.0000
  C   C58       1.0  0.18886  0.73507  0.27568  1.0000
  C   C59       1.0  0.28589  0.82612  0.29115  1.0000
  C   C60       1.0  0.26158  0.80356  0.28957  1.0000
  H   H42       1.0  0.29997  0.82720  0.24980  1.0000
  C   C61       1.0  0.25772  0.78177  0.23167  1.0000
  C   C62       1.0  0.22971  0.76627  0.19837  1.0000
  H   H43       1.0  0.26239  0.76928  0.27071  1.0000
  H   H44       1.0  0.27033  0.78846  0.17306  1.0000
  H   H45       1.0  0.22721  0.74932  0.16250  1.0000
  H   H46       1.0  0.22604  0.77793  0.15102  1.0000
  C   C63       1.0  0.75676  0.55654  0.27448  1.0000
  C   C64       1.0  0.73248  0.55486  0.27565  1.0000
  H   H47       1.0  0.71986  0.54558  0.22439  1.0000
  C   C65       1.0  0.82353  0.54888  0.29112  1.0000
  C   C66       1.0  0.80097  0.55064  0.28954  1.0000
  H   H48       1.0  0.82461  0.53589  0.24976  1.0000
  C   C67       1.0  0.77918  0.53271  0.23161  1.0000
  C   C68       1.0  0.76369  0.54522  0.19833  1.0000
  H   H49       1.0  0.76669  0.51554  0.27063  1.0000
  H   H50       1.0  0.78588  0.52679  0.17300  1.0000
  H   H51       1.0  0.74674  0.53078  0.16244  1.0000
  H   H52       1.0  0.77535  0.56055  0.15100  1.0000
  C   C69       1.0  0.46338  0.21407  0.27452  1.0000
  C   C70       1.0  0.46506  0.19147  0.27569  1.0000
  H   H53       1.0  0.47435  0.18814  0.22444  1.0000
  C   C71       1.0  0.47103  0.28850  0.29115  1.0000
  C   C72       1.0  0.46927  0.26419  0.28957  1.0000
  H   H54       1.0  0.48403  0.30257  0.24981  1.0000
  C   C73       1.0  0.48721  0.26033  0.23167  1.0000
  C   C74       1.0  0.47471  0.23232  0.19837  1.0000
  H   H55       1.0  0.50437  0.26501  0.27071  1.0000
  H   H56       1.0  0.49313  0.27294  0.17306  1.0000
  H   H57       1.0  0.48915  0.22982  0.16251  1.0000
  H   H58       1.0  0.45938  0.22865  0.15103  1.0000
  C   C75       1.0  0.80583  0.26315  0.27453  1.0000
  C   C76       1.0  0.82843  0.28743  0.27570  1.0000
  H   H59       1.0  0.83176  0.30005  0.22445  1.0000
  C   C77       1.0  0.73140  0.19638  0.29117  1.0000
  C   C78       1.0  0.75571  0.21894  0.28960  1.0000
  H   H60       1.0  0.71732  0.19530  0.24984  1.0000
  C   C79       1.0  0.75957  0.24073  0.23170  1.0000
  C   C80       1.0  0.78757  0.25623  0.19839  1.0000
  H   H61       1.0  0.75490  0.25322  0.27076  1.0000
  H   H62       1.0  0.74695  0.23405  0.17310  1.0000
  H   H63       1.0  0.79007  0.27318  0.16254  1.0000
  H   H64       1.0  0.79124  0.24457  0.15104  1.0000
  C   C81       1.0  0.38520  0.51652  0.33502  1.0000
  C   C82       1.0  0.39949  0.52475  0.25493  1.0000
  C   C83       1.0  0.42209  0.54866  0.25050  1.0000
  C   C84       1.0  0.43162  0.56498  0.32640  1.0000
  C   C85       1.0  0.45585  0.58872  0.32614  1.0000
  C   C86       1.0  0.47558  0.59375  0.26374  1.0000
  C   C87       1.0  0.49970  0.61607  0.26913  1.0000
  C   C88       1.0  0.50523  0.63438  0.33730  1.0000
  H   H65       1.0  0.47325  0.58076  0.21540  1.0000
  H   H66       1.0  0.51338  0.61868  0.22295  1.0000
  H   H67       1.0  0.39375  0.51317  0.19944  1.0000
  H   H68       1.0  0.43154  0.55373  0.19055  1.0000
  C   C89       1.0  0.50336  0.88250  0.33496  1.0000
  C   C90       1.0  0.49513  0.88857  0.25487  1.0000
  C   C91       1.0  0.47122  0.88727  0.25044  1.0000
  C   C92       1.0  0.45489  0.88047  0.32634  1.0000
  C   C93       1.0  0.43116  0.88096  0.32608  1.0000
  C   C94       1.0  0.42613  0.89567  0.26369  1.0000
  C   C95       1.0  0.40382  0.89748  0.26909  1.0000
  C   C96       1.0  0.38551  0.88469  0.33724  1.0000
  H   H69       1.0  0.43913  0.90634  0.21536  1.0000
  H   H70       1.0  0.40121  0.90855  0.22291  1.0000
  H   H71       1.0  0.50671  0.89442  0.19939  1.0000
  H   H72       1.0  0.46616  0.89165  0.19050  1.0000
  C   C97       1.0  0.87992  0.38779  0.33494  1.0000
  C   C98       1.0  0.88598  0.40209  0.25485  1.0000
  C   C99       1.0  0.88467  0.42469  0.25042  1.0000
  C   C100      1.0  0.87788  0.43422  0.32634  1.0000
  C   C101      1.0  0.87837  0.45845  0.32607  1.0000
  C   C102      1.0  0.89307  0.47818  0.26367  1.0000
  C   C103      1.0  0.89487  0.50230  0.26906  1.0000
  C   C104      1.0  0.88209  0.50783  0.33724  1.0000
  H   H73       1.0  0.90373  0.47585  0.21532  1.0000
  H   H74       1.0  0.90594  0.51598  0.22287  1.0000
  H   H75       1.0  0.89181  0.39634  0.19935  1.0000
  H   H76       1.0  0.88904  0.43413  0.19047  1.0000
  C   C105      1.0  0.63211  0.50596  0.33495  1.0000
  C   C106      1.0  0.61782  0.49773  0.25486  1.0000
  C   C107      1.0  0.59521  0.47382  0.25045  1.0000
  C   C108      1.0  0.58568  0.45750  0.32636  1.0000
  C   C109      1.0  0.56146  0.43377  0.32611  1.0000
  C   C110      1.0  0.54172  0.42873  0.26371  1.0000
  C   C111      1.0  0.51760  0.40642  0.26911  1.0000
  C   C112      1.0  0.51207  0.38811  0.33728  1.0000
  H   H77       1.0  0.54405  0.44172  0.21536  1.0000
  H   H78       1.0  0.50392  0.40381  0.22292  1.0000
  H   H79       1.0  0.62356  0.50931  0.19937  1.0000
  H   H80       1.0  0.58577  0.46875  0.19050  1.0000
  C   C113      1.0  0.51393  0.13997  0.33498  1.0000
  C   C114      1.0  0.52216  0.13392  0.25489  1.0000
  C   C115      1.0  0.54607  0.13522  0.25047  1.0000
  C   C116      1.0  0.56240  0.14202  0.32640  1.0000
  C   C117      1.0  0.58613  0.14153  0.32614  1.0000
  C   C118      1.0  0.59116  0.12682  0.26376  1.0000
  C   C119      1.0  0.61347  0.12502  0.26917  1.0000
  C   C120      1.0  0.63178  0.13780  0.33734  1.0000
  H   H81       1.0  0.57817  0.11616  0.21542  1.0000
  H   H82       1.0  0.61609  0.11394  0.22299  1.0000
  H   H83       1.0  0.51059  0.12808  0.19939  1.0000
  H   H84       1.0  0.55115  0.13085  0.19053  1.0000
  C   C121      1.0  0.95613  0.37161  0.26524  1.0000
  C   C122      1.0  0.98288  0.38125  0.26398  1.0000
  H   H85       1.0  0.94790  0.37628  0.21389  1.0000
  C   C123      1.0  0.99829  0.39812  0.18846  1.0000
  H   H86       1.0  0.00322  0.41782  0.20379  1.0000
  H   H87       1.0  0.98729  0.39246  0.12599  1.0000
  C   C124      1.0  0.61897  0.65003  0.25949  1.0000
  C   C125      1.0  0.60299  0.66101  0.26177  1.0000
  H   H88       1.0  0.59392  0.66153  0.20434  1.0000
  C   C126      1.0  0.64828  0.59835  0.26526  1.0000
  C   C127      1.0  0.63864  0.61546  0.26399  1.0000
  H   H89       1.0  0.64360  0.58545  0.21394  1.0000
  C   C128      1.0  0.62175  0.61398  0.18851  1.0000
  C   C129      1.0  0.62300  0.63999  0.17355  1.0000
  H   H90       1.0  0.60205  0.59922  0.20389  1.0000
  H   H91       1.0  0.62740  0.60863  0.12603  1.0000
  H   H92       1.0  0.60886  0.63755  0.12269  1.0000
  H   H93       1.0  0.64196  0.65386  0.14777  1.0000
  C   C130      1.0  0.36985  0.98279  0.25948  1.0000
  C   C131      1.0  0.35887  0.95583  0.26176  1.0000
  H   H94       1.0  0.35834  0.94623  0.20432  1.0000
  C   C132      1.0  0.42153  0.06377  0.26526  1.0000
  C   C133      1.0  0.40442  0.03702  0.26398  1.0000
  H   H95       1.0  0.43443  0.07200  0.21392  1.0000
  C   C134      1.0  0.40589  0.02161  0.18847  1.0000
  C   C135      1.0  0.37987  0.99685  0.17354  1.0000
  H   H96       1.0  0.42065  0.01668  0.20383  1.0000
  H   H97       1.0  0.41123  0.03261  0.12601  1.0000
  H   H98       1.0  0.38231  0.98516  0.12266  1.0000
  H   H99       1.0  0.36600  0.00194  0.14780  1.0000
  C   C136      1.0  0.98019  0.62155  0.25952  1.0000
  C   C137      1.0  0.95323  0.60557  0.26180  1.0000
  H   H100      1.0  0.94363  0.59648  0.20439  1.0000
  C   C138      1.0  0.99426  0.62556  0.17361  1.0000
  H   H101      1.0  0.98256  0.61141  0.12276  1.0000
  H   H102      1.0  0.99934  0.64451  0.14776  1.0000
  C   C139      1.0  0.39834  0.37246  0.25956  1.0000
  C   C140      1.0  0.41433  0.36149  0.26186  1.0000
  H   H103      1.0  0.42341  0.36097  0.20444  1.0000
  C   C141      1.0  0.36902  0.42413  0.26530  1.0000
  C   C142      1.0  0.37867  0.40703  0.26404  1.0000
  H   H104      1.0  0.37371  0.43704  0.21399  1.0000
  C   C143      1.0  0.39556  0.40851  0.18858  1.0000
  C   C144      1.0  0.39432  0.38250  0.17362  1.0000
  H   H105      1.0  0.41525  0.42328  0.20399  1.0000
  H   H106      1.0  0.38992  0.41386  0.12609  1.0000
  H   H107      1.0  0.40846  0.38495  0.12277  1.0000
  H   H108      1.0  0.37537  0.36863  0.14780  1.0000
  C   C145      1.0  0.64743  0.03971  0.25962  1.0000
  C   C146      1.0  0.65841  0.06667  0.26192  1.0000
  H   H109      1.0  0.65894  0.07626  0.20449  1.0000
  C   C147      1.0  0.59575  0.95872  0.26532  1.0000
  C   C148      1.0  0.61286  0.98547  0.26406  1.0000
  H   H110      1.0  0.58285  0.95050  0.21398  1.0000
  C   C149      1.0  0.61138  0.00088  0.18858  1.0000
  C   C150      1.0  0.63740  0.02565  0.17366  1.0000
  H   H111      1.0  0.59662  0.00581  0.20397  1.0000
  H   H112      1.0  0.60604  0.98989  0.12610  1.0000
  H   H113      1.0  0.63495  0.03735  0.12281  1.0000
  H   H114      1.0  0.65127  0.02056  0.14787  1.0000
  C   C151      1.0  0.53026  0.65627  0.34459  1.0000
  C   C152      1.0  0.55203  0.65326  0.34397  1.0000
  C   C153      1.0  0.57710  0.67453  0.34734  1.0000
  C   C154      1.0  0.58036  0.69948  0.35058  1.0000
  C   C155      1.0  0.55898  0.70341  0.35019  1.0000
  C   C156      1.0  0.53410  0.68139  0.34913  1.0000
  H   H115      1.0  0.59856  0.71492  0.34927  1.0000
  H   H116      1.0  0.51832  0.68361  0.34944  1.0000
  H   H117      1.0  0.54957  0.63514  0.34142  1.0000
  C   C157      1.0  0.36361  0.88783  0.34452  1.0000
  C   C158      1.0  0.36663  0.91261  0.34391  1.0000
  C   C159      1.0  0.34535  0.91641  0.34730  1.0000
  C   C160      1.0  0.32041  0.89473  0.35054  1.0000
  C   C161      1.0  0.31648  0.86941  0.35012  1.0000
  C   C162      1.0  0.33850  0.86655  0.34907  1.0000
  H   H118      1.0  0.30497  0.89749  0.34925  1.0000
  H   H119      1.0  0.33628  0.84856  0.34936  1.0000
  H   H120      1.0  0.38474  0.92827  0.34138  1.0000
  C   C163      1.0  0.88523  0.53285  0.34452  1.0000
  C   C164      1.0  0.91002  0.55462  0.34394  1.0000
  C   C165      1.0  0.91382  0.57970  0.34734  1.0000
  C   C166      1.0  0.89214  0.58296  0.35053  1.0000
  C   C167      1.0  0.86682  0.56158  0.35012  1.0000
  C   C168      1.0  0.86396  0.53670  0.34904  1.0000
  H   H121      1.0  0.89490  0.60116  0.34931  1.0000
  H   H122      1.0  0.84596  0.52092  0.34936  1.0000
  H   H123      1.0  0.92567  0.55216  0.34143  1.0000
  C   C169      1.0  0.48705  0.36622  0.34457  1.0000
  C   C170      1.0  0.46528  0.36924  0.34400  1.0000
  C   C171      1.0  0.44020  0.34796  0.34744  1.0000
  C   C172      1.0  0.43694  0.32302  0.35056  1.0000
  C   C173      1.0  0.45832  0.31908  0.35015  1.0000
  C   C174      1.0  0.48320  0.34110  0.34907  1.0000
  H   H124      1.0  0.41874  0.30758  0.34934  1.0000
  H   H125      1.0  0.49898  0.33888  0.34938  1.0000
  H   H126      1.0  0.46774  0.38735  0.34150  1.0000
  C   C175      1.0  0.65368  0.13467  0.34463  1.0000
  C   C176      1.0  0.65066  0.10988  0.34406  1.0000
  C   C177      1.0  0.67194  0.10608  0.34746  1.0000
  C   C178      1.0  0.69688  0.12777  0.35051  1.0000
  C   C179      1.0  0.70082  0.15308  0.35015  1.0000
  C   C180      1.0  0.67879  0.15594  0.34910  1.0000
  H   H127      1.0  0.71233  0.12501  0.34934  1.0000
  H   H128      1.0  0.68101  0.17394  0.34942  1.0000
  H   H129      1.0  0.63255  0.09423  0.34158  1.0000
  C   C181      1.0  0.48864  0.13578  0.34168  1.0000
  C   C182      1.0  0.46774  0.11052  0.33961  1.0000
  C   C183      1.0  0.44213  0.10534  0.34328  1.0000
  C   C184      1.0  0.43772  0.12632  0.34980  1.0000
  C   C185      1.0  0.45839  0.15199  0.34929  1.0000
  C   C186      1.0  0.48377  0.15633  0.34642  1.0000
  H   H130      1.0  0.41927  0.12290  0.34964  1.0000
  H   H131      1.0  0.49896  0.17471  0.34590  1.0000
  H   H132      1.0  0.47131  0.09559  0.33588  1.0000
  C   C187      1.0  0.65319  0.53125  0.34167  1.0000
  C   C188      1.0  0.64884  0.55215  0.33960  1.0000
  C   C189      1.0  0.66927  0.57777  0.34327  1.0000
  C   C190      1.0  0.69465  0.58218  0.34979  1.0000
  C   C191      1.0  0.69967  0.56152  0.34927  1.0000
  C   C192      1.0  0.67862  0.53613  0.34638  1.0000
  H   H133      1.0  0.70968  0.60063  0.34964  1.0000
  H   H134      1.0  0.68183  0.52095  0.34587  1.0000
  H   H135      1.0  0.63033  0.54858  0.33588  1.0000
  C   C193      1.0  0.88412  0.36671  0.34166  1.0000
  C   C194      1.0  0.90938  0.37106  0.33959  1.0000
  C   C195      1.0  0.91456  0.35063  0.34327  1.0000
  C   C196      1.0  0.89358  0.32525  0.34979  1.0000
  C   C197      1.0  0.86791  0.32024  0.34932  1.0000
  C   C198      1.0  0.86357  0.34128  0.34644  1.0000
  H   H136      1.0  0.89701  0.31022  0.34964  1.0000
  H   H137      1.0  0.84518  0.33808  0.34588  1.0000
  H   H138      1.0  0.92431  0.38957  0.33583  1.0000
  C   C199      1.0  0.52864  0.88670  0.34170  1.0000
  C   C200      1.0  0.54955  0.91196  0.33962  1.0000
  C   C201      1.0  0.57516  0.91714  0.34331  1.0000
  C   C202      1.0  0.57957  0.89617  0.34999  1.0000
  C   C203      1.0  0.55891  0.87050  0.34937  1.0000
  C   C204      1.0  0.53352  0.86616  0.34647  1.0000
  H   H139      1.0  0.59802  0.89959  0.34964  1.0000
  H   H140      1.0  0.51834  0.84777  0.34588  1.0000
  H   H141      1.0  0.54597  0.92689  0.33583  1.0000
  C   C205      1.0  0.36411  0.49123  0.34174  1.0000
  C   C206      1.0  0.36846  0.47033  0.33964  1.0000
  C   C207      1.0  0.34803  0.44472  0.34331  1.0000
  C   C208      1.0  0.32265  0.44031  0.34996  1.0000
  C   C209      1.0  0.31764  0.46097  0.34931  1.0000
  C   C210      1.0  0.33869  0.48636  0.34648  1.0000
  H   H142      1.0  0.30762  0.42186  0.34959  1.0000
  H   H143      1.0  0.33548  0.50154  0.34589  1.0000
  H   H144      1.0  0.38697  0.47390  0.33589  1.0000
  C   C211      1.0  0.29217  0.45694  0.34604  1.0000
  C   C212      1.0  0.27420  0.44388  0.41482  1.0000
  C   C213      1.0  0.25007  0.44241  0.41478  1.0000
  C   C214      1.0  0.24260  0.45345  0.34524  1.0000
  C   C215      1.0  0.21886  0.45418  0.34624  1.0000
  C   C216      1.0  0.19740  0.43795  0.40042  1.0000
  H   H145      1.0  0.19767  0.42433  0.44041  1.0000
  H   H146      1.0  0.27908  0.43649  0.46816  1.0000
  H   H147      1.0  0.23851  0.43404  0.46899  1.0000
  C   C217      1.0  0.56294  0.84906  0.34609  1.0000
  C   C218      1.0  0.57600  0.84415  0.41488  1.0000
  C   C219      1.0  0.57747  0.82149  0.41484  1.0000
  C   C220      1.0  0.56644  0.80299  0.34528  1.0000
  C   C221      1.0  0.56571  0.77851  0.34628  1.0000
  C   C222      1.0  0.58195  0.77329  0.40048  1.0000
  C   C223      1.0  0.58014  0.74902  0.40097  1.0000
  C   C224      1.0  0.56195  0.72864  0.34746  1.0000
  H   H148      1.0  0.59556  0.78718  0.44047  1.0000
  H   H149      1.0  0.59187  0.74615  0.44317  1.0000
  H   H150      1.0  0.58339  0.85642  0.46822  1.0000
  H   H151      1.0  0.58585  0.81831  0.46905  1.0000
  C   C225      1.0  0.19840  0.76982  0.41484  1.0000
  C   C226      1.0  0.21690  0.77729  0.34526  1.0000
  C   C227      1.0  0.24137  0.80104  0.34626  1.0000
  C   C228      1.0  0.24660  0.82249  0.40048  1.0000
  C   C229      1.0  0.27087  0.84496  0.40096  1.0000
  C   C230      1.0  0.29124  0.84715  0.34742  1.0000
  H   H152      1.0  0.23271  0.82222  0.44049  1.0000
  H   H153      1.0  0.27374  0.85956  0.44317  1.0000
  H   H154      1.0  0.20159  0.78137  0.46908  1.0000
  C   C231      1.0  0.72514  0.56555  0.34602  1.0000
  C   C232      1.0  0.74310  0.57859  0.41486  1.0000
  C   C233      1.0  0.76722  0.58006  0.41483  1.0000
  C   C234      1.0  0.77470  0.56904  0.34524  1.0000
  C   C235      1.0  0.79845  0.56832  0.34625  1.0000
  C   C236      1.0  0.81990  0.58454  0.40049  1.0000
  C   C237      1.0  0.84237  0.58274  0.40097  1.0000
  C   C238      1.0  0.84455  0.56455  0.34740  1.0000
  H   H155      1.0  0.81963  0.59815  0.44052  1.0000
  H   H156      1.0  0.85696  0.59446  0.44320  1.0000
  H   H157      1.0  0.73821  0.58597  0.46821  1.0000
  H   H158      1.0  0.77878  0.58842  0.46908  1.0000
  C   C239      1.0  0.45436  0.17343  0.34604  1.0000
  C   C240      1.0  0.44131  0.17835  0.41486  1.0000
  C   C241      1.0  0.43984  0.20100  0.41483  1.0000
  C   C242      1.0  0.45087  0.21950  0.34526  1.0000
  C   C243      1.0  0.45159  0.24398  0.34627  1.0000
  C   C244      1.0  0.43536  0.24920  0.40048  1.0000
  C   C245      1.0  0.43717  0.27347  0.40097  1.0000
  C   C246      1.0  0.45535  0.29385  0.34742  1.0000
  H   H159      1.0  0.42175  0.23532  0.44050  1.0000
  H   H160      1.0  0.42544  0.27634  0.44319  1.0000
  H   H161      1.0  0.43393  0.16608  0.46820  1.0000
  H   H162      1.0  0.43147  0.20419  0.46906  1.0000
  C   C247      1.0  0.84647  0.29477  0.34604  1.0000
  C   C248      1.0  0.84155  0.27680  0.41486  1.0000
  C   C249      1.0  0.81890  0.25268  0.41483  1.0000
  C   C250      1.0  0.80039  0.24521  0.34526  1.0000
  C   C251      1.0  0.77592  0.22146  0.34628  1.0000
  C   C252      1.0  0.77070  0.20000  0.40048  1.0000
  C   C253      1.0  0.74642  0.17754  0.40097  1.0000
  C   C254      1.0  0.72605  0.17535  0.34743  1.0000
  H   H163      1.0  0.78458  0.20027  0.44048  1.0000
  H   H164      1.0  0.74356  0.16294  0.44317  1.0000
  H   H165      1.0  0.85382  0.28169  0.46820  1.0000
  H   H166      1.0  0.81571  0.24112  0.46906  1.0000
  C   C255      1.0  0.41643  0.55715  0.40598  1.0000
  C   C256      1.0  0.39366  0.53302  0.40995  1.0000
  H   H167      1.0  0.38368  0.52701  0.46897  1.0000
  C   C257      1.0  0.48569  0.62973  0.39954  1.0000
  C   C258      1.0  0.46143  0.60710  0.39538  1.0000
  H   H168      1.0  0.48945  0.64256  0.45039  1.0000
  C   C259      1.0  0.44145  0.60232  0.46348  1.0000
  C   C260      1.0  0.42560  0.57349  0.48778  1.0000
  H   H169      1.0  0.42868  0.60854  0.43544  1.0000
  H   H170      1.0  0.44986  0.61327  0.52491  1.0000
  H   H171      1.0  0.40948  0.57058  0.52987  1.0000
  H   H172      1.0  0.43746  0.56799  0.52676  1.0000
  C   C261      1.0  0.46272  0.87311  0.40591  1.0000
  C   C262      1.0  0.48685  0.87446  0.40987  1.0000
  H   H173      1.0  0.49286  0.87048  0.46889  1.0000
  C   C263      1.0  0.39015  0.86979  0.39946  1.0000
  C   C264      1.0  0.41278  0.86816  0.39531  1.0000
  H   H174      1.0  0.37731  0.86072  0.45030  1.0000
  C   C265      1.0  0.41755  0.85295  0.46339  1.0000
  C   C266      1.0  0.44638  0.86592  0.48771  1.0000
  H   H175      1.0  0.41133  0.83396  0.43534  1.0000
  H   H176      1.0  0.40660  0.85041  0.52482  1.0000
  H   H177      1.0  0.44929  0.85272  0.52977  1.0000
  H   H178      1.0  0.45189  0.88329  0.52670  1.0000
  C   C267      1.0  0.87053  0.41903  0.40592  1.0000
  C   C268      1.0  0.87189  0.39626  0.40987  1.0000
  H   H179      1.0  0.86792  0.38628  0.46890  1.0000
  C   C269      1.0  0.86720  0.48829  0.39948  1.0000
  C   C270      1.0  0.86557  0.46403  0.39533  1.0000
  H   H180      1.0  0.85813  0.49205  0.45034  1.0000
  C   C271      1.0  0.85038  0.44405  0.46343  1.0000
  C   C272      1.0  0.86336  0.42820  0.48773  1.0000
  H   H181      1.0  0.83139  0.43128  0.43542  1.0000
  H   H182      1.0  0.84784  0.45246  0.52488  1.0000
  H   H183      1.0  0.85016  0.41209  0.52983  1.0000
  H   H184      1.0  0.88073  0.44007  0.52669  1.0000
  C   C273      1.0  0.60087  0.46534  0.40594  1.0000
  C   C274      1.0  0.62364  0.48947  0.40989  1.0000
  H   H185      1.0  0.63363  0.49549  0.46891  1.0000
  C   C275      1.0  0.53161  0.39276  0.39952  1.0000
  C   C276      1.0  0.55587  0.41539  0.39536  1.0000
  H   H186      1.0  0.52785  0.37993  0.45038  1.0000
  C   C277      1.0  0.57585  0.42017  0.46346  1.0000
  C   C278      1.0  0.59171  0.44900  0.48775  1.0000
  H   H187      1.0  0.58862  0.41395  0.43545  1.0000
  H   H188      1.0  0.56744  0.40922  0.52490  1.0000
  H   H189      1.0  0.60782  0.45191  0.52984  1.0000
  H   H190      1.0  0.57984  0.45451  0.52672  1.0000
  C   C279      1.0  0.55456  0.14937  0.40596  1.0000
  C   C280      1.0  0.53043  0.14801  0.40991  1.0000
  H   H191      1.0  0.52441  0.15198  0.46893  1.0000
  C   C281      1.0  0.62714  0.15269  0.39956  1.0000
  C   C282      1.0  0.60451  0.15432  0.39539  1.0000
  H   H192      1.0  0.63997  0.16177  0.45041  1.0000
  C   C283      1.0  0.59973  0.16953  0.46348  1.0000
  C   C284      1.0  0.57090  0.15655  0.48777  1.0000
  H   H193      1.0  0.60595  0.18852  0.43543  1.0000
  H   H194      1.0  0.61068  0.17207  0.52492  1.0000
  H   H195      1.0  0.56799  0.16976  0.52984  1.0000
  H   H196      1.0  0.56539  0.13918  0.52676  1.0000
  C   C285      1.0  0.99524  0.37681  0.33777  1.0000
  C   C286      1.0  0.97929  0.36055  0.40735  1.0000
  C   C287      1.0  0.95252  0.35051  0.40698  1.0000
  C   C288      1.0  0.94061  0.35651  0.33707  1.0000
  H   H197      1.0  0.98698  0.35611  0.46068  1.0000
  H   H198      1.0  0.94201  0.34009  0.46106  1.0000
  C   C289      1.0  0.59794  0.66978  0.34279  1.0000
  C   C290      1.0  0.60949  0.66758  0.42201  1.0000
  C   C291      1.0  0.62539  0.65660  0.42032  1.0000
  C   C292      1.0  0.63029  0.64725  0.33965  1.0000
  C   C293      1.0  0.64309  0.63227  0.33776  1.0000
  C   C294      1.0  0.65936  0.63259  0.40731  1.0000
  C   C295      1.0  0.66940  0.61586  0.40695  1.0000
  C   C296      1.0  0.66339  0.59794  0.33707  1.0000
  H   H199      1.0  0.66381  0.64473  0.46062  1.0000
  H   H200      1.0  0.67984  0.61578  0.46101  1.0000
  H   H201      1.0  0.60491  0.67222  0.48265  1.0000
  H   H202      1.0  0.63165  0.65378  0.48058  1.0000
  C   C297      1.0  0.35011  0.94201  0.34278  1.0000
  C   C298      1.0  0.35232  0.95576  0.42201  1.0000
  C   C299      1.0  0.36329  0.98263  0.42033  1.0000
  C   C300      1.0  0.37264  0.99688  0.33966  1.0000
  C   C301      1.0  0.38762  0.02466  0.33777  1.0000
  C   C302      1.0  0.38731  0.04061  0.40734  1.0000
  C   C303      1.0  0.40404  0.06738  0.40698  1.0000
  C   C304      1.0  0.42195  0.07929  0.33707  1.0000
  H   H203      1.0  0.37517  0.03292  0.46066  1.0000
  H   H204      1.0  0.40412  0.07789  0.46105  1.0000
  H   H205      1.0  0.34769  0.94653  0.48264  1.0000
  H   H206      1.0  0.36612  0.99171  0.48059  1.0000
  C   C305      1.0  0.93943  0.60054  0.34284  1.0000
  C   C306      1.0  0.95316  0.61211  0.42205  1.0000
  C   C307      1.0  0.98003  0.62801  0.42033  1.0000
  C   C308      1.0  0.99428  0.63289  0.33967  1.0000
  H   H207      1.0  0.94393  0.60754  0.48267  1.0000
  H   H208      1.0  0.98911  0.63429  0.48058  1.0000
  C   C309      1.0  0.41936  0.35272  0.34291  1.0000
  C   C310      1.0  0.40779  0.35490  0.42211  1.0000
  C   C311      1.0  0.39189  0.36587  0.42038  1.0000
  C   C312      1.0  0.38701  0.37523  0.33970  1.0000
  C   C313      1.0  0.37421  0.39021  0.33779  1.0000
  C   C314      1.0  0.35792  0.38988  0.40732  1.0000
  C   C315      1.0  0.34789  0.40661  0.40695  1.0000
  C   C316      1.0  0.35391  0.42454  0.33709  1.0000
  H   H209      1.0  0.35346  0.37773  0.46061  1.0000
  H   H210      1.0  0.33744  0.40668  0.46099  1.0000
  H   H211      1.0  0.41237  0.35026  0.48275  1.0000
  H   H212      1.0  0.38562  0.36868  0.48062  1.0000
  C   C317      1.0  0.66719  0.08049  0.34294  1.0000
  C   C318      1.0  0.66497  0.06672  0.42215  1.0000
  C   C319      1.0  0.65399  0.03985  0.42044  1.0000
  C   C320      1.0  0.64464  0.02560  0.33976  1.0000
  C   C321      1.0  0.62966  0.99782  0.33784  1.0000
  C   C322      1.0  0.62998  0.98187  0.40738  1.0000
  C   C323      1.0  0.61325  0.95510  0.40700  1.0000
  C   C324      1.0  0.59534  0.94320  0.33712  1.0000
  H   H213      1.0  0.64212  0.98955  0.46070  1.0000
  H   H214      1.0  0.61317  0.94458  0.46105  1.0000
  H   H215      1.0  0.66960  0.07594  0.48279  1.0000
  H   H216      1.0  0.65116  0.03076  0.48069  1.0000
