data_image0
_chemical_formula_structural       N8C4HC2H3OC4HC2H3ON4C4HC2H3OC4HC2H3ON8C4HC2H3OC4HC2H3OC4HC2H3OC4HC2H3OC6H3C6H3C6H3C6H3C6H3C6H3C6H3C6H3C6H3C6H3C6H3C6H3C4HC2H3OC4HC2H3OC4HC2H3OC4HC2H3ON4C4HC2H3OC4HC2H3ON4C4HC2H3OC4HC2H3OC4HC2H3OC4HC2H3ON16C4HC2H3OC4HC2H3ON4C4HC2H3OC4HC2H3ON8C4HC2H3OC4HC2H3OC4HC2H3OC4HC2H3OC6H3C6H3C6H3C6H3C6H3C6H3C6H3C6H3C6H3C6H3C6H3C6H3C4HC2H3OC4HC2H3OC4HC2H3OC4HC2H3ON4C4HC2H3OC4HC2H3ON4C4HC2H3OC4HC2H3OC4HC2H3OC4HC2H3ON8
_chemical_formula_sum              "N72 C360 H216 O36"
_cell_length_a       42.6074
_cell_length_b       55.2389
_cell_length_c       14.8558
_cell_angle_alpha    90
_cell_angle_beta     90
_cell_angle_gamma    90

_space_group_name_H-M_alt    "P 1"
_space_group_IT_number       1

loop_
  _space_group_symop_operation_xyz
  'x, y, z'

loop_
  _atom_site_type_symbol
  _atom_site_label
  _atom_site_symmetry_multiplicity
  _atom_site_fract_x
  _atom_site_fract_y
  _atom_site_fract_z
  _atom_site_occupancy
  N   N1        1.0  0.26801  0.15480  0.34217  1.0000
  N   N2        1.0  0.23704  0.15463  0.34055  1.0000
  N   N3        1.0  0.23736  0.85715  0.34768  1.0000
  N   N4        1.0  0.26831  0.85719  0.34658  1.0000
  N   N5        1.0  0.02131  0.65834  0.32640  1.0000
  N   N6        1.0  0.49037  0.65854  0.32366  1.0000
  N   N7        1.0  0.48439  0.35462  0.32851  1.0000
  N   N8        1.0  0.01538  0.35452  0.32746  1.0000
  C   C1        1.0  0.05999  0.11066  0.29839  1.0000
  C   C2        1.0  0.05829  0.13212  0.24671  1.0000
  C   C3        1.0  0.08300  0.14912  0.24544  1.0000
  C   C4        1.0  0.11012  0.14460  0.29909  1.0000
  H   H1        1.0  0.03894  0.13518  0.20728  1.0000
  C   C5        1.0  0.08169  0.16802  0.18332  1.0000
  C   C6        1.0  0.09433  0.16406  0.09402  1.0000
  H   H2        1.0  0.11764  0.15588  0.09771  1.0000
  H   H3        1.0  0.09654  0.18126  0.05830  1.0000
  H   H4        1.0  0.07893  0.15213  0.05541  1.0000
  O   O1        1.0  0.05846  0.18106  0.18757  1.0000
  C   C7        1.0  0.44445  0.90106  0.30481  1.0000
  C   C8        1.0  0.44624  0.87972  0.25230  1.0000
  C   C9        1.0  0.42187  0.86243  0.25142  1.0000
  C   C10       1.0  0.39482  0.86664  0.30563  1.0000
  H   H5        1.0  0.46557  0.87688  0.21254  1.0000
  C   C11       1.0  0.42357  0.84351  0.18953  1.0000
  C   C12       1.0  0.41106  0.84758  0.09999  1.0000
  H   H6        1.0  0.38766  0.85561  0.10345  1.0000
  H   H7        1.0  0.40909  0.83044  0.06377  1.0000
  H   H8        1.0  0.42642  0.85966  0.06189  1.0000
  O   O2        1.0  0.44704  0.83071  0.19273  1.0000
  N   N9        1.0  0.39464  0.12142  0.33138  1.0000
  N   N10       1.0  0.41800  0.10570  0.32716  1.0000
  N   N11       1.0  0.11020  0.88976  0.33304  1.0000
  N   N12       1.0  0.08658  0.90524  0.32949  1.0000
  C   C13       1.0  0.31209  0.60879  0.33183  1.0000
  C   C14       1.0  0.34215  0.60106  0.30292  1.0000
  C   C15       1.0  0.36810  0.61747  0.29887  1.0000
  C   C16       1.0  0.36385  0.64218  0.32562  1.0000
  H   H9        1.0  0.34484  0.58377  0.27951  1.0000
  C   C17       1.0  0.39548  0.60982  0.25681  1.0000
  C   C18       1.0  0.39751  0.61261  0.15989  1.0000
  H   H10       1.0  0.38227  0.59955  0.12612  1.0000
  H   H11       1.0  0.42161  0.60965  0.13743  1.0000
  H   H12       1.0  0.39065  0.63086  0.13949  1.0000
  O   O3        1.0  0.40792  0.59175  0.28847  1.0000
  C   C19       1.0  0.19228  0.40075  0.30438  1.0000
  C   C20       1.0  0.19470  0.37933  0.25272  1.0000
  C   C21       1.0  0.17048  0.36197  0.25051  1.0000
  C   C22       1.0  0.14280  0.36624  0.30203  1.0000
  H   H13       1.0  0.21442  0.37644  0.21456  1.0000
  C   C23       1.0  0.17310  0.34287  0.18966  1.0000
  C   C24       1.0  0.16212  0.34651  0.09847  1.0000
  H   H14       1.0  0.13838  0.35398  0.09830  1.0000
  H   H15       1.0  0.16153  0.32926  0.06273  1.0000
  H   H16       1.0  0.17768  0.35885  0.06231  1.0000
  O   O4        1.0  0.19640  0.33005  0.19803  1.0000
  N   N13       1.0  0.14693  0.62319  0.32996  1.0000
  N   N14       1.0  0.16971  0.60698  0.32925  1.0000
  N   N15       1.0  0.35718  0.38836  0.32681  1.0000
  N   N16       1.0  0.33395  0.40420  0.32395  1.0000
  N   N17       1.0  0.10797  0.26322  0.29714  1.0000
  N   N18       1.0  0.11581  0.24027  0.29891  1.0000
  N   N19       1.0  0.39405  0.74769  0.29321  1.0000
  N   N20       1.0  0.38682  0.77072  0.29714  1.0000
  C   C25       1.0  0.36743  0.23025  0.33431  1.0000
  C   C26       1.0  0.38845  0.23839  0.26742  1.0000
  C   C27       1.0  0.39662  0.26321  0.26166  1.0000
  C   C28       1.0  0.38345  0.27964  0.32501  1.0000
  H   H17       1.0  0.39705  0.22635  0.22110  1.0000
  C   C29       1.0  0.41480  0.27146  0.19040  1.0000
  C   C30       1.0  0.39905  0.27686  0.10637  1.0000
  H   H18       1.0  0.39137  0.26021  0.07337  1.0000
  H   H19       1.0  0.41492  0.28646  0.06121  1.0000
  H   H20       1.0  0.37865  0.28843  0.11782  1.0000
  O   O5        1.0  0.44089  0.26230  0.18408  1.0000
  C   C31       1.0  0.13940  0.78139  0.33317  1.0000
  C   C32       1.0  0.12012  0.77309  0.26242  1.0000
  C   C33       1.0  0.11241  0.74820  0.25557  1.0000
  C   C34       1.0  0.12427  0.73198  0.32174  1.0000
  H   H21       1.0  0.11232  0.78505  0.21471  1.0000
  C   C35       1.0  0.09562  0.73974  0.18186  1.0000
  C   C36       1.0  0.11275  0.73443  0.09998  1.0000
  H   H22       1.0  0.12009  0.75115  0.06687  1.0000
  H   H23       1.0  0.09799  0.72416  0.05370  1.0000
  H   H24       1.0  0.13354  0.72351  0.11441  1.0000
  O   O6        1.0  0.06946  0.74853  0.17204  1.0000
  C   C37       1.0  0.00264  0.97976  0.32487  1.0000
  C   C38       1.0  0.02144  0.99180  0.26068  1.0000
  C   C39       1.0  0.02206  0.01746  0.25598  1.0000
  C   C40       1.0  0.00404  0.03109  0.31909  1.0000
  H   H25       1.0  0.03386  0.98177  0.21483  1.0000
  C   C41       1.0  0.03789  0.02866  0.18536  1.0000
  C   C42       1.0  0.52089  0.03213  0.10180  1.0000
  H   H26       1.0  0.01761  0.01486  0.06725  1.0000
  H   H27       1.0  0.03390  0.04431  0.05751  1.0000
  H   H28       1.0  0.49790  0.04024  0.11429  1.0000
  O   O7        1.0  0.06581  0.02377  0.17828  1.0000
  C   C43       1.0  0.25041  0.47951  0.31765  1.0000
  C   C44       1.0  0.26944  0.49154  0.25394  1.0000
  C   C45       1.0  0.27006  0.51722  0.24920  1.0000
  C   C46       1.0  0.25165  0.53085  0.31130  1.0000
  H   H29       1.0  0.28221  0.48150  0.20893  1.0000
  C   C47       1.0  0.28645  0.52847  0.17994  1.0000
  C   C48       1.0  0.27085  0.53173  0.09415  1.0000
  H   H30       1.0  0.26863  0.51443  0.05911  1.0000
  H   H31       1.0  0.28426  0.54416  0.05182  1.0000
  H   H32       1.0  0.24746  0.53944  0.10358  1.0000
  O   O8        1.0  0.31457  0.52395  0.17647  1.0000
  C   C49       1.0  0.14498  0.20571  0.35570  1.0000
  C   C50       1.0  0.17593  0.19875  0.37593  1.0000
  C   C51       1.0  0.18676  0.17447  0.37150  1.0000
  C   C52       1.0  0.16495  0.15665  0.34218  1.0000
  C   C53       1.0  0.13324  0.16249  0.32039  1.0000
  C   C54       1.0  0.12420  0.18725  0.32855  1.0000
  H   H33       1.0  0.17225  0.13904  0.33777  1.0000
  H   H34       1.0  0.10116  0.19202  0.32206  1.0000
  H   H35       1.0  0.19171  0.21234  0.38791  1.0000
  C   C55       1.0  0.35915  0.80541  0.35855  1.0000
  C   C56       1.0  0.32847  0.81265  0.38067  1.0000
  C   C57       1.0  0.31815  0.83706  0.37782  1.0000
  C   C58       1.0  0.34013  0.85475  0.34877  1.0000
  C   C59       1.0  0.37166  0.84870  0.32605  1.0000
  C   C60       1.0  0.38022  0.82376  0.33192  1.0000
  H   H36       1.0  0.33310  0.87245  0.34561  1.0000
  H   H37       1.0  0.40311  0.81875  0.32424  1.0000
  H   H38       1.0  0.31244  0.79923  0.39260  1.0000
  C   C61       1.0  0.35856  0.20542  0.34399  1.0000
  C   C62       1.0  0.32732  0.19902  0.36276  1.0000
  C   C63       1.0  0.31742  0.17461  0.37280  1.0000
  C   C64       1.0  0.34020  0.15601  0.36158  1.0000
  C   C65       1.0  0.37271  0.16178  0.35558  1.0000
  C   C66       1.0  0.38069  0.18649  0.34079  1.0000
  H   H39       1.0  0.33371  0.13845  0.37319  1.0000
  H   H40       1.0  0.40350  0.19101  0.32756  1.0000
  H   H41       1.0  0.31095  0.21261  0.36326  1.0000
  C   C67       1.0  0.14772  0.80623  0.34413  1.0000
  C   C68       1.0  0.17869  0.81284  0.36512  1.0000
  C   C69       1.0  0.18807  0.83731  0.37663  1.0000
  C   C70       1.0  0.16510  0.85572  0.36478  1.0000
  C   C71       1.0  0.13277  0.84964  0.35656  1.0000
  C   C72       1.0  0.12525  0.82491  0.34041  1.0000
  H   H42       1.0  0.17129  0.87330  0.37740  1.0000
  H   H43       1.0  0.10257  0.82019  0.32616  1.0000
  H   H44       1.0  0.19526  0.79940  0.36625  1.0000
  C   C73       1.0  0.39429  0.70649  0.34353  1.0000
  C   C74       1.0  0.42664  0.70226  0.35070  1.0000
  C   C75       1.0  0.43975  0.67867  0.34928  1.0000
  C   C76       1.0  0.41908  0.65898  0.33303  1.0000
  C   C77       1.0  0.38581  0.66190  0.32941  1.0000
  C   C78       1.0  0.37442  0.68620  0.33550  1.0000
  H   H45       1.0  0.42847  0.64204  0.33668  1.0000
  H   H46       1.0  0.35087  0.68964  0.33093  1.0000
  H   H47       1.0  0.44099  0.71706  0.35620  1.0000
  C   C79       1.0  0.10878  0.30438  0.34801  1.0000
  C   C80       1.0  0.07709  0.31018  0.36113  1.0000
  C   C81       1.0  0.06566  0.33436  0.35847  1.0000
  C   C82       1.0  0.08744  0.35294  0.33571  1.0000
  C   C83       1.0  0.11985  0.34798  0.32034  1.0000
  C   C84       1.0  0.12972  0.32350  0.33055  1.0000
  H   H48       1.0  0.07963  0.37042  0.33149  1.0000
  H   H49       1.0  0.15305  0.31925  0.32894  1.0000
  H   H50       1.0  0.06196  0.29603  0.37128  1.0000
  C   C85       1.0  0.11467  0.70731  0.33067  1.0000
  C   C86       1.0  0.08260  0.70183  0.33841  1.0000
  C   C87       1.0  0.07127  0.67804  0.35335  1.0000
  C   C88       1.0  0.09336  0.65877  0.35163  1.0000
  C   C89       1.0  0.12617  0.66367  0.35413  1.0000
  C   C90       1.0  0.13602  0.68811  0.34212  1.0000
  H   H51       1.0  0.08568  0.64153  0.36390  1.0000
  H   H52       1.0  0.15941  0.69207  0.33643  1.0000
  H   H53       1.0  0.06694  0.71583  0.33295  1.0000
  C   C91       1.0  0.39237  0.30453  0.33345  1.0000
  C   C92       1.0  0.42412  0.31077  0.34419  1.0000
  C   C93       1.0  0.43443  0.33494  0.35709  1.0000
  C   C94       1.0  0.41159  0.35367  0.35209  1.0000
  C   C95       1.0  0.37893  0.34808  0.35194  1.0000
  C   C96       1.0  0.37025  0.32336  0.34007  1.0000
  H   H54       1.0  0.41850  0.37115  0.36353  1.0000
  H   H55       1.0  0.34715  0.31887  0.33141  1.0000
  H   H56       1.0  0.44032  0.29707  0.34217  1.0000
  C   C97       1.0  0.03273  0.09612  0.31250  1.0000
  C   C98       1.0  0.50353  0.10791  0.32345  1.0000
  C   C99       1.0  0.47461  0.09599  0.33968  1.0000
  C   C100      1.0  0.47509  0.07036  0.33307  1.0000
  C   C101      1.0  0.00379  0.05721  0.32457  1.0000
  C   C102      1.0  0.03243  0.07062  0.32131  1.0000
  H   H57       1.0  0.45440  0.06110  0.33935  1.0000
  H   H58       1.0  0.05336  0.06162  0.31705  1.0000
  H   H59       1.0  0.50343  0.12640  0.32096  1.0000
  C   C103      1.0  0.47177  0.91549  0.31982  1.0000
  C   C104      1.0  0.00071  0.90325  0.33091  1.0000
  C   C105      1.0  0.03008  0.91473  0.34386  1.0000
  C   C106      1.0  0.03015  0.94027  0.33544  1.0000
  C   C107      1.0  0.50167  0.95383  0.33078  1.0000
  C   C108      1.0  0.47259  0.94106  0.32852  1.0000
  H   H60       1.0  0.05107  0.94925  0.34115  1.0000
  H   H61       1.0  0.45212  0.95056  0.32128  1.0000
  H   H62       1.0  0.00035  0.88476  0.32947  1.0000
  C   C109      1.0  0.28366  0.59494  0.33484  1.0000
  C   C110      1.0  0.25490  0.60695  0.35167  1.0000
  C   C111      1.0  0.22500  0.59569  0.35383  1.0000
  C   C112      1.0  0.22431  0.57054  0.33435  1.0000
  C   C113      1.0  0.25230  0.55690  0.32063  1.0000
  C   C114      1.0  0.28144  0.56957  0.32156  1.0000
  H   H63       1.0  0.20313  0.56179  0.33474  1.0000
  H   H64       1.0  0.30174  0.55989  0.31563  1.0000
  H   H65       1.0  0.25540  0.62540  0.35513  1.0000
  C   C115      1.0  0.21952  0.41526  0.31952  1.0000
  C   C116      1.0  0.24839  0.40309  0.33307  1.0000
  C   C117      1.0  0.27789  0.41459  0.34298  1.0000
  C   C118      1.0  0.27801  0.44003  0.33074  1.0000
  C   C119      1.0  0.24955  0.45361  0.32506  1.0000
  C   C120      1.0  0.22042  0.44089  0.32450  1.0000
  H   H66       1.0  0.29899  0.44899  0.33463  1.0000
  H   H67       1.0  0.19995  0.45032  0.31606  1.0000
  H   H68       1.0  0.24790  0.38460  0.33477  1.0000
  C   C121      1.0  0.21906  0.17009  0.39024  1.0000
  C   C122      1.0  0.23542  0.18449  0.45343  1.0000
  C   C123      1.0  0.26843  0.18511  0.45555  1.0000
  C   C124      1.0  0.28531  0.17033  0.39373  1.0000
  H   H69       1.0  0.22312  0.19507  0.49782  1.0000
  C   C125      1.0  0.28351  0.19881  0.52165  1.0000
  C   C126      1.0  0.28962  0.18725  0.60746  1.0000
  H   H70       1.0  0.26779  0.18485  0.64501  1.0000
  H   H71       1.0  0.30558  0.19835  0.64753  1.0000
  H   H72       1.0  0.30064  0.16958  0.59783  1.0000
  O   O9        1.0  0.27665  0.22032  0.52449  1.0000
  C   C127      1.0  0.28603  0.84177  0.39712  1.0000
  C   C128      1.0  0.26954  0.82754  0.46050  1.0000
  C   C129      1.0  0.23653  0.82706  0.46203  1.0000
  C   C130      1.0  0.21992  0.84181  0.39959  1.0000
  H   H73       1.0  0.28172  0.81686  0.50482  1.0000
  C   C131      1.0  0.22118  0.81343  0.52767  1.0000
  C   C132      1.0  0.21498  0.82456  0.61410  1.0000
  H   H74       1.0  0.23671  0.82647  0.65247  1.0000
  H   H75       1.0  0.19860  0.81346  0.65281  1.0000
  H   H76       1.0  0.20441  0.84242  0.60538  1.0000
  O   O10       1.0  0.22765  0.79182  0.52940  1.0000
  C   C133      1.0  0.47254  0.67593  0.36415  1.0000
  C   C134      1.0  0.48887  0.69223  0.42049  1.0000
  C   C135      1.0  0.02182  0.69209  0.42540  1.0000
  C   C136      1.0  0.03868  0.67525  0.37123  1.0000
  H   H77       1.0  0.47665  0.70395  0.46088  1.0000
  C   C137      1.0  0.03661  0.70666  0.48931  1.0000
  C   C138      1.0  0.04118  0.69667  0.57863  1.0000
  H   H78       1.0  0.51879  0.69530  0.61414  1.0000
  H   H79       1.0  0.05688  0.70824  0.61758  1.0000
  H   H80       1.0  0.55181  0.67870  0.57490  1.0000
  O   O11       1.0  0.03059  0.72834  0.48703  1.0000
  C   C139      1.0  0.03307  0.33819  0.37418  1.0000
  C   C140      1.0  0.01639  0.32307  0.43415  1.0000
  C   C141      1.0  0.48339  0.32294  0.43641  1.0000
  C   C142      1.0  0.46677  0.33861  0.37706  1.0000
  H   H81       1.0  0.02842  0.31205  0.47766  1.0000
  C   C143      1.0  0.46815  0.30929  0.50224  1.0000
  C   C144      1.0  0.46380  0.32055  0.58946  1.0000
  H   H82       1.0  0.98612  0.32179  0.62533  1.0000
  H   H83       1.0  0.44753  0.30986  0.62981  1.0000
  H   H84       1.0  0.95390  0.33869  0.58242  1.0000
  O   O12       1.0  0.47396  0.28758  0.50270  1.0000
  N   N21       1.0  0.11132  0.12229  0.33915  1.0000
  N   N22       1.0  0.08819  0.10639  0.33868  1.0000
  N   N23       1.0  0.39346  0.88887  0.34634  1.0000
  N   N24       1.0  0.41635  0.90498  0.34608  1.0000
  C   C145      1.0  0.44762  0.11066  0.35686  1.0000
  C   C146      1.0  0.45081  0.13278  0.40402  1.0000
  C   C147      1.0  0.42624  0.14978  0.40919  1.0000
  C   C148      1.0  0.39724  0.14433  0.36570  1.0000
  H   H85       1.0  0.47127  0.13637  0.43787  1.0000
  C   C149      1.0  0.42996  0.16958  0.46660  1.0000
  C   C150      1.0  0.42136  0.16696  0.56044  1.0000
  H   H86       1.0  0.39824  0.15859  0.56686  1.0000
  H   H87       1.0  0.42036  0.18469  0.59291  1.0000
  H   H88       1.0  0.43856  0.15578  0.59573  1.0000
  O   O13       1.0  0.45252  0.18271  0.45116  1.0000
  C   C151      1.0  0.05707  0.89995  0.35929  1.0000
  C   C152      1.0  0.05422  0.87769  0.40572  1.0000
  C   C153      1.0  0.07909  0.86094  0.41028  1.0000
  C   C154      1.0  0.10795  0.86678  0.36684  1.0000
  H   H89       1.0  0.03393  0.87388  0.44001  1.0000
  C   C155      1.0  0.07589  0.84106  0.46757  1.0000
  C   C156      1.0  0.08495  0.84368  0.56107  1.0000
  H   H90       1.0  0.10802  0.85218  0.56661  1.0000
  H   H91       1.0  0.08628  0.82595  0.59338  1.0000
  H   H92       1.0  0.06783  0.85475  0.59715  1.0000
  O   O14       1.0  0.05344  0.82777  0.45291  1.0000
  N   N25       1.0  0.33424  0.64752  0.35311  1.0000
  N   N26       1.0  0.31086  0.63249  0.35577  1.0000
  N   N27       1.0  0.14077  0.38860  0.34152  1.0000
  N   N28       1.0  0.16365  0.40476  0.34261  1.0000
  C   C157      1.0  0.19813  0.61061  0.36934  1.0000
  C   C158      1.0  0.20034  0.63181  0.42257  1.0000
  C   C159      1.0  0.17647  0.64946  0.42332  1.0000
  C   C160      1.0  0.14913  0.64539  0.37031  1.0000
  H   H93       1.0  0.21960  0.63439  0.46279  1.0000
  C   C161      1.0  0.17884  0.66871  0.48374  1.0000
  C   C162      1.0  0.16611  0.66548  0.57353  1.0000
  H   H94       1.0  0.14243  0.65794  0.57059  1.0000
  H   H95       1.0  0.16474  0.68288  0.60826  1.0000
  H   H96       1.0  0.18099  0.65330  0.61275  1.0000
  O   O15       1.0  0.20266  0.68107  0.47942  1.0000
  C   C163      1.0  0.30485  0.39977  0.35862  1.0000
  C   C164      1.0  0.30222  0.37811  0.40896  1.0000
  C   C165      1.0  0.32673  0.36101  0.41298  1.0000
  C   C166      1.0  0.35496  0.36584  0.36471  1.0000
  H   H97       1.0  0.28235  0.37499  0.44610  1.0000
  C   C167      1.0  0.32402  0.34175  0.47343  1.0000
  C   C168      1.0  0.33507  0.34552  0.56469  1.0000
  H   H98       1.0  0.35855  0.35346  0.56484  1.0000
  H   H99       1.0  0.33632  0.32825  0.60036  1.0000
  H   H100      1.0  0.31916  0.35753  0.60116  1.0000
  O   O16       1.0  0.30082  0.32887  0.46498  1.0000
  C   C169      1.0  0.13577  0.23064  0.36079  1.0000
  C   C170      1.0  0.14764  0.24676  0.42657  1.0000
  C   C171      1.0  0.13958  0.27161  0.42517  1.0000
  C   C172      1.0  0.11914  0.27993  0.35641  1.0000
  H   H101      1.0  0.16178  0.24031  0.47695  1.0000
  C   C173      1.0  0.14945  0.28691  0.49370  1.0000
  C   C174      1.0  0.13182  0.28698  0.57705  1.0000
  H   H102      1.0  0.10663  0.28801  0.56392  1.0000
  H   H103      1.0  0.13826  0.30271  0.61732  1.0000
  H   H104      1.0  0.13667  0.27061  0.61593  1.0000
  O   O17       1.0  0.17793  0.28919  0.50085  1.0000
  C   C175      1.0  0.36765  0.78028  0.36112  1.0000
  C   C176      1.0  0.35582  0.76393  0.42621  1.0000
  C   C177      1.0  0.36331  0.73896  0.42260  1.0000
  C   C178      1.0  0.38290  0.73072  0.35159  1.0000
  H   H105      1.0  0.34229  0.77031  0.47805  1.0000
  C   C179      1.0  0.35353  0.72347  0.49074  1.0000
  C   C180      1.0  0.37224  0.72250  0.57230  1.0000
  H   H106      1.0  0.39710  0.72026  0.55630  1.0000
  H   H107      1.0  0.36509  0.70710  0.61363  1.0000
  H   H108      1.0  0.36930  0.73907  0.61159  1.0000
  O   O18       1.0  0.32514  0.72199  0.50222  1.0000
  N   N29       1.0  0.36313  0.27035  0.38664  1.0000
  N   N30       1.0  0.35550  0.24738  0.39058  1.0000
  N   N31       1.0  0.14294  0.74146  0.38713  1.0000
  N   N32       1.0  0.15022  0.76446  0.39201  1.0000
  N   N33       1.0  0.98602  0.01795  0.37726  1.0000
  N   N34       1.0  0.98518  0.99416  0.37990  1.0000
  N   N35       1.0  0.23353  0.51771  0.36919  1.0000
  N   N36       1.0  0.23272  0.49393  0.37197  1.0000
  N   N37       1.0  0.76801  0.15480  0.34217  1.0000
  N   N38       1.0  0.73704  0.15463  0.34055  1.0000
  N   N39       1.0  0.73736  0.85715  0.34768  1.0000
  N   N40       1.0  0.76831  0.85719  0.34658  1.0000
  N   N41       1.0  0.52131  0.65834  0.32640  1.0000
  N   N42       1.0  0.99037  0.65854  0.32366  1.0000
  N   N43       1.0  0.98439  0.35462  0.32851  1.0000
  N   N44       1.0  0.51538  0.35452  0.32746  1.0000
  C   C181      1.0  0.55999  0.11066  0.29839  1.0000
  C   C182      1.0  0.55829  0.13212  0.24671  1.0000
  C   C183      1.0  0.58300  0.14912  0.24544  1.0000
  C   C184      1.0  0.61012  0.14460  0.29909  1.0000
  H   H109      1.0  0.53894  0.13518  0.20728  1.0000
  C   C185      1.0  0.58169  0.16802  0.18332  1.0000
  C   C186      1.0  0.59433  0.16406  0.09402  1.0000
  H   H110      1.0  0.61764  0.15588  0.09771  1.0000
  H   H111      1.0  0.59654  0.18126  0.05830  1.0000
  H   H112      1.0  0.57893  0.15213  0.05541  1.0000
  O   O19       1.0  0.55846  0.18106  0.18757  1.0000
  C   C187      1.0  0.94446  0.90106  0.30481  1.0000
  C   C188      1.0  0.94624  0.87972  0.25230  1.0000
  C   C189      1.0  0.92187  0.86243  0.25142  1.0000
  C   C190      1.0  0.89482  0.86664  0.30563  1.0000
  H   H113      1.0  0.96557  0.87688  0.21254  1.0000
  C   C191      1.0  0.92357  0.84351  0.18953  1.0000
  C   C192      1.0  0.91106  0.84758  0.09999  1.0000
  H   H114      1.0  0.88766  0.85561  0.10345  1.0000
  H   H115      1.0  0.90909  0.83044  0.06377  1.0000
  H   H116      1.0  0.92642  0.85966  0.06189  1.0000
  O   O20       1.0  0.94703  0.83071  0.19273  1.0000
  N   N45       1.0  0.89464  0.12142  0.33138  1.0000
  N   N46       1.0  0.91800  0.10570  0.32716  1.0000
  N   N47       1.0  0.61020  0.88976  0.33304  1.0000
  N   N48       1.0  0.58658  0.90524  0.32949  1.0000
  C   C193      1.0  0.81209  0.60879  0.33183  1.0000
  C   C194      1.0  0.84215  0.60106  0.30292  1.0000
  C   C195      1.0  0.86810  0.61747  0.29887  1.0000
  C   C196      1.0  0.86385  0.64218  0.32562  1.0000
  H   H117      1.0  0.84484  0.58377  0.27951  1.0000
  C   C197      1.0  0.89548  0.60982  0.25681  1.0000
  C   C198      1.0  0.89751  0.61261  0.15989  1.0000
  H   H118      1.0  0.88227  0.59955  0.12612  1.0000
  H   H119      1.0  0.92162  0.60965  0.13743  1.0000
  H   H120      1.0  0.89065  0.63086  0.13949  1.0000
  O   O21       1.0  0.90792  0.59175  0.28847  1.0000
  C   C199      1.0  0.69228  0.40075  0.30438  1.0000
  C   C200      1.0  0.69470  0.37933  0.25272  1.0000
  C   C201      1.0  0.67048  0.36197  0.25051  1.0000
  C   C202      1.0  0.64280  0.36624  0.30203  1.0000
  H   H121      1.0  0.71442  0.37644  0.21456  1.0000
  C   C203      1.0  0.67310  0.34287  0.18966  1.0000
  C   C204      1.0  0.66212  0.34651  0.09847  1.0000
  H   H122      1.0  0.63838  0.35398  0.09830  1.0000
  H   H123      1.0  0.66153  0.32926  0.06273  1.0000
  H   H124      1.0  0.67768  0.35885  0.06231  1.0000
  O   O22       1.0  0.69640  0.33005  0.19803  1.0000
  N   N49       1.0  0.64693  0.62319  0.32996  1.0000
  N   N50       1.0  0.66971  0.60698  0.32925  1.0000
  N   N51       1.0  0.85718  0.38836  0.32681  1.0000
  N   N52       1.0  0.83395  0.40420  0.32395  1.0000
  N   N53       1.0  0.60797  0.26322  0.29714  1.0000
  N   N54       1.0  0.61581  0.24027  0.29891  1.0000
  N   N55       1.0  0.89405  0.74769  0.29321  1.0000
  N   N56       1.0  0.88682  0.77072  0.29714  1.0000
  C   C205      1.0  0.86743  0.23025  0.33431  1.0000
  C   C206      1.0  0.88845  0.23839  0.26742  1.0000
  C   C207      1.0  0.89662  0.26321  0.26166  1.0000
  C   C208      1.0  0.88346  0.27964  0.32501  1.0000
  H   H125      1.0  0.89706  0.22635  0.22110  1.0000
  C   C209      1.0  0.91480  0.27146  0.19040  1.0000
  C   C210      1.0  0.89905  0.27686  0.10637  1.0000
  H   H126      1.0  0.89137  0.26021  0.07337  1.0000
  H   H127      1.0  0.91492  0.28646  0.06121  1.0000
  H   H128      1.0  0.87864  0.28843  0.11782  1.0000
  O   O23       1.0  0.94089  0.26230  0.18408  1.0000
  C   C211      1.0  0.63940  0.78139  0.33317  1.0000
  C   C212      1.0  0.62012  0.77309  0.26242  1.0000
  C   C213      1.0  0.61241  0.74820  0.25557  1.0000
  C   C214      1.0  0.62427  0.73198  0.32174  1.0000
  H   H129      1.0  0.61232  0.78505  0.21471  1.0000
  C   C215      1.0  0.59562  0.73974  0.18186  1.0000
  C   C216      1.0  0.61276  0.73443  0.09998  1.0000
  H   H130      1.0  0.62009  0.75115  0.06687  1.0000
  H   H131      1.0  0.59799  0.72416  0.05370  1.0000
  H   H132      1.0  0.63354  0.72351  0.11441  1.0000
  O   O24       1.0  0.56946  0.74853  0.17204  1.0000
  C   C217      1.0  0.50263  0.97976  0.32487  1.0000
  C   C218      1.0  0.52144  0.99180  0.26068  1.0000
  C   C219      1.0  0.52206  0.01746  0.25598  1.0000
  C   C220      1.0  0.50405  0.03109  0.31909  1.0000
  H   H133      1.0  0.53386  0.98177  0.21483  1.0000
  C   C221      1.0  0.53789  0.02866  0.18536  1.0000
  C   C222      1.0  0.02089  0.03213  0.10180  1.0000
  H   H134      1.0  0.51761  0.01486  0.06725  1.0000
  H   H135      1.0  0.53390  0.04431  0.05751  1.0000
  H   H136      1.0  0.99790  0.04024  0.11429  1.0000
  O   O25       1.0  0.56581  0.02377  0.17828  1.0000
  C   C223      1.0  0.75041  0.47951  0.31765  1.0000
  C   C224      1.0  0.76944  0.49154  0.25394  1.0000
  C   C225      1.0  0.77006  0.51722  0.24920  1.0000
  C   C226      1.0  0.75165  0.53085  0.31130  1.0000
  H   H137      1.0  0.78222  0.48150  0.20893  1.0000
  C   C227      1.0  0.78645  0.52847  0.17994  1.0000
  C   C228      1.0  0.77085  0.53173  0.09415  1.0000
  H   H138      1.0  0.76863  0.51443  0.05911  1.0000
  H   H139      1.0  0.78426  0.54416  0.05182  1.0000
  H   H140      1.0  0.74747  0.53944  0.10358  1.0000
  O   O26       1.0  0.81457  0.52395  0.17647  1.0000
  C   C229      1.0  0.64498  0.20571  0.35570  1.0000
  C   C230      1.0  0.67593  0.19875  0.37593  1.0000
  C   C231      1.0  0.68676  0.17447  0.37150  1.0000
  C   C232      1.0  0.66495  0.15665  0.34218  1.0000
  C   C233      1.0  0.63324  0.16249  0.32039  1.0000
  C   C234      1.0  0.62420  0.18725  0.32855  1.0000
  H   H141      1.0  0.67225  0.13904  0.33777  1.0000
  H   H142      1.0  0.60116  0.19202  0.32206  1.0000
  H   H143      1.0  0.69171  0.21234  0.38791  1.0000
  C   C235      1.0  0.85915  0.80541  0.35855  1.0000
  C   C236      1.0  0.82847  0.81265  0.38067  1.0000
  C   C237      1.0  0.81815  0.83706  0.37782  1.0000
  C   C238      1.0  0.84013  0.85475  0.34877  1.0000
  C   C239      1.0  0.87166  0.84870  0.32605  1.0000
  C   C240      1.0  0.88021  0.82376  0.33192  1.0000
  H   H144      1.0  0.83310  0.87245  0.34561  1.0000
  H   H145      1.0  0.90312  0.81875  0.32424  1.0000
  H   H146      1.0  0.81244  0.79923  0.39260  1.0000
  C   C241      1.0  0.85856  0.20542  0.34399  1.0000
  C   C242      1.0  0.82732  0.19902  0.36276  1.0000
  C   C243      1.0  0.81742  0.17461  0.37280  1.0000
  C   C244      1.0  0.84020  0.15601  0.36158  1.0000
  C   C245      1.0  0.87271  0.16178  0.35558  1.0000
  C   C246      1.0  0.88069  0.18649  0.34079  1.0000
  H   H147      1.0  0.83371  0.13845  0.37319  1.0000
  H   H148      1.0  0.90350  0.19101  0.32756  1.0000
  H   H149      1.0  0.81095  0.21261  0.36326  1.0000
  C   C247      1.0  0.64772  0.80623  0.34413  1.0000
  C   C248      1.0  0.67869  0.81284  0.36512  1.0000
  C   C249      1.0  0.68807  0.83731  0.37663  1.0000
  C   C250      1.0  0.66510  0.85572  0.36478  1.0000
  C   C251      1.0  0.63277  0.84964  0.35656  1.0000
  C   C252      1.0  0.62526  0.82491  0.34041  1.0000
  H   H150      1.0  0.67129  0.87330  0.37740  1.0000
  H   H151      1.0  0.60257  0.82019  0.32616  1.0000
  H   H152      1.0  0.69526  0.79940  0.36625  1.0000
  C   C253      1.0  0.89429  0.70649  0.34353  1.0000
  C   C254      1.0  0.92664  0.70226  0.35070  1.0000
  C   C255      1.0  0.93975  0.67867  0.34928  1.0000
  C   C256      1.0  0.91908  0.65898  0.33303  1.0000
  C   C257      1.0  0.88580  0.66190  0.32941  1.0000
  C   C258      1.0  0.87442  0.68620  0.33550  1.0000
  H   H153      1.0  0.92847  0.64204  0.33668  1.0000
  H   H154      1.0  0.85087  0.68964  0.33093  1.0000
  H   H155      1.0  0.94099  0.71706  0.35620  1.0000
  C   C259      1.0  0.60878  0.30438  0.34801  1.0000
  C   C260      1.0  0.57708  0.31018  0.36113  1.0000
  C   C261      1.0  0.56566  0.33436  0.35847  1.0000
  C   C262      1.0  0.58744  0.35294  0.33571  1.0000
  C   C263      1.0  0.61985  0.34798  0.32034  1.0000
  C   C264      1.0  0.62972  0.32350  0.33055  1.0000
  H   H156      1.0  0.57963  0.37042  0.33149  1.0000
  H   H157      1.0  0.65305  0.31925  0.32894  1.0000
  H   H158      1.0  0.56196  0.29603  0.37128  1.0000
  C   C265      1.0  0.61467  0.70731  0.33067  1.0000
  C   C266      1.0  0.58260  0.70183  0.33841  1.0000
  C   C267      1.0  0.57127  0.67804  0.35335  1.0000
  C   C268      1.0  0.59336  0.65877  0.35163  1.0000
  C   C269      1.0  0.62617  0.66367  0.35413  1.0000
  C   C270      1.0  0.63602  0.68811  0.34212  1.0000
  H   H159      1.0  0.58568  0.64153  0.36390  1.0000
  H   H160      1.0  0.65941  0.69207  0.33643  1.0000
  H   H161      1.0  0.56694  0.71583  0.33295  1.0000
  C   C271      1.0  0.89237  0.30453  0.33345  1.0000
  C   C272      1.0  0.92412  0.31077  0.34419  1.0000
  C   C273      1.0  0.93444  0.33494  0.35709  1.0000
  C   C274      1.0  0.91160  0.35367  0.35209  1.0000
  C   C275      1.0  0.87893  0.34808  0.35194  1.0000
  C   C276      1.0  0.87025  0.32336  0.34007  1.0000
  H   H162      1.0  0.91850  0.37115  0.36353  1.0000
  H   H163      1.0  0.84715  0.31887  0.33141  1.0000
  H   H164      1.0  0.94032  0.29707  0.34217  1.0000
  C   C277      1.0  0.53273  0.09612  0.31250  1.0000
  C   C278      1.0  0.00353  0.10791  0.32345  1.0000
  C   C279      1.0  0.97461  0.09599  0.33968  1.0000
  C   C280      1.0  0.97509  0.07036  0.33307  1.0000
  C   C281      1.0  0.50379  0.05721  0.32457  1.0000
  C   C282      1.0  0.53243  0.07062  0.32131  1.0000
  H   H165      1.0  0.95440  0.06110  0.33935  1.0000
  H   H166      1.0  0.55336  0.06162  0.31705  1.0000
  H   H167      1.0  0.00343  0.12640  0.32096  1.0000
  C   C283      1.0  0.97177  0.91549  0.31982  1.0000
  C   C284      1.0  0.50071  0.90325  0.33091  1.0000
  C   C285      1.0  0.53008  0.91473  0.34386  1.0000
  C   C286      1.0  0.53015  0.94027  0.33544  1.0000
  C   C287      1.0  0.00168  0.95383  0.33078  1.0000
  C   C288      1.0  0.97259  0.94106  0.32852  1.0000
  H   H168      1.0  0.55107  0.94925  0.34115  1.0000
  H   H169      1.0  0.95212  0.95056  0.32128  1.0000
  H   H170      1.0  0.50035  0.88476  0.32947  1.0000
  C   C289      1.0  0.78367  0.59494  0.33484  1.0000
  C   C290      1.0  0.75490  0.60695  0.35167  1.0000
  C   C291      1.0  0.72500  0.59569  0.35383  1.0000
  C   C292      1.0  0.72430  0.57054  0.33435  1.0000
  C   C293      1.0  0.75230  0.55690  0.32063  1.0000
  C   C294      1.0  0.78144  0.56957  0.32156  1.0000
  H   H171      1.0  0.70313  0.56179  0.33474  1.0000
  H   H172      1.0  0.80174  0.55989  0.31563  1.0000
  H   H173      1.0  0.75540  0.62540  0.35513  1.0000
  C   C295      1.0  0.71952  0.41526  0.31952  1.0000
  C   C296      1.0  0.74839  0.40309  0.33307  1.0000
  C   C297      1.0  0.77789  0.41459  0.34298  1.0000
  C   C298      1.0  0.77801  0.44003  0.33074  1.0000
  C   C299      1.0  0.74955  0.45361  0.32506  1.0000
  C   C300      1.0  0.72042  0.44089  0.32450  1.0000
  H   H174      1.0  0.79899  0.44899  0.33463  1.0000
  H   H175      1.0  0.69995  0.45032  0.31606  1.0000
  H   H176      1.0  0.74791  0.38460  0.33477  1.0000
  C   C301      1.0  0.71906  0.17009  0.39024  1.0000
  C   C302      1.0  0.73542  0.18449  0.45343  1.0000
  C   C303      1.0  0.76844  0.18511  0.45555  1.0000
  C   C304      1.0  0.78532  0.17033  0.39373  1.0000
  H   H177      1.0  0.72312  0.19507  0.49782  1.0000
  C   C305      1.0  0.78351  0.19881  0.52165  1.0000
  C   C306      1.0  0.78962  0.18725  0.60746  1.0000
  H   H178      1.0  0.76780  0.18485  0.64501  1.0000
  H   H179      1.0  0.80559  0.19835  0.64753  1.0000
  H   H180      1.0  0.80064  0.16958  0.59783  1.0000
  O   O27       1.0  0.77665  0.22032  0.52449  1.0000
  C   C307      1.0  0.78603  0.84177  0.39712  1.0000
  C   C308      1.0  0.76954  0.82754  0.46050  1.0000
  C   C309      1.0  0.73653  0.82706  0.46203  1.0000
  C   C310      1.0  0.71992  0.84181  0.39959  1.0000
  H   H181      1.0  0.78173  0.81686  0.50482  1.0000
  C   C311      1.0  0.72119  0.81343  0.52767  1.0000
  C   C312      1.0  0.71498  0.82456  0.61410  1.0000
  H   H182      1.0  0.73671  0.82647  0.65247  1.0000
  H   H183      1.0  0.69860  0.81346  0.65281  1.0000
  H   H184      1.0  0.70441  0.84242  0.60538  1.0000
  O   O28       1.0  0.72765  0.79182  0.52940  1.0000
  C   C313      1.0  0.97254  0.67593  0.36415  1.0000
  C   C314      1.0  0.98887  0.69223  0.42049  1.0000
  C   C315      1.0  0.52182  0.69209  0.42540  1.0000
  C   C316      1.0  0.53868  0.67525  0.37123  1.0000
  H   H185      1.0  0.97665  0.70395  0.46088  1.0000
  C   C317      1.0  0.53661  0.70666  0.48931  1.0000
  C   C318      1.0  0.54118  0.69667  0.57863  1.0000
  H   H186      1.0  0.01879  0.69530  0.61414  1.0000
  H   H187      1.0  0.55688  0.70824  0.61758  1.0000
  H   H188      1.0  0.05181  0.67870  0.57490  1.0000
  O   O29       1.0  0.53059  0.72834  0.48703  1.0000
  C   C319      1.0  0.53307  0.33819  0.37418  1.0000
  C   C320      1.0  0.51639  0.32307  0.43415  1.0000
  C   C321      1.0  0.98340  0.32294  0.43641  1.0000
  C   C322      1.0  0.96677  0.33861  0.37706  1.0000
  H   H189      1.0  0.52842  0.31205  0.47766  1.0000
  C   C323      1.0  0.96815  0.30929  0.50224  1.0000
  C   C324      1.0  0.96380  0.32055  0.58946  1.0000
  H   H190      1.0  0.48612  0.32179  0.62533  1.0000
  H   H191      1.0  0.94753  0.30986  0.62981  1.0000
  H   H192      1.0  0.45390  0.33869  0.58242  1.0000
  O   O30       1.0  0.97396  0.28758  0.50270  1.0000
  N   N57       1.0  0.61132  0.12229  0.33915  1.0000
  N   N58       1.0  0.58819  0.10639  0.33868  1.0000
  N   N59       1.0  0.89346  0.88887  0.34634  1.0000
  N   N60       1.0  0.91636  0.90498  0.34608  1.0000
  C   C325      1.0  0.94762  0.11066  0.35686  1.0000
  C   C326      1.0  0.95081  0.13278  0.40402  1.0000
  C   C327      1.0  0.92624  0.14978  0.40919  1.0000
  C   C328      1.0  0.89724  0.14433  0.36570  1.0000
  H   H193      1.0  0.97127  0.13637  0.43787  1.0000
  C   C329      1.0  0.92996  0.16958  0.46660  1.0000
  C   C330      1.0  0.92136  0.16696  0.56044  1.0000
  H   H194      1.0  0.89824  0.15859  0.56686  1.0000
  H   H195      1.0  0.92036  0.18469  0.59291  1.0000
  H   H196      1.0  0.93856  0.15578  0.59573  1.0000
  O   O31       1.0  0.95252  0.18271  0.45116  1.0000
  C   C331      1.0  0.55707  0.89995  0.35929  1.0000
  C   C332      1.0  0.55422  0.87769  0.40572  1.0000
  C   C333      1.0  0.57909  0.86094  0.41028  1.0000
  C   C334      1.0  0.60795  0.86678  0.36684  1.0000
  H   H197      1.0  0.53393  0.87388  0.44001  1.0000
  C   C335      1.0  0.57590  0.84106  0.46757  1.0000
  C   C336      1.0  0.58495  0.84368  0.56107  1.0000
  H   H198      1.0  0.60802  0.85218  0.56661  1.0000
  H   H199      1.0  0.58628  0.82595  0.59338  1.0000
  H   H200      1.0  0.56783  0.85475  0.59715  1.0000
  O   O32       1.0  0.55344  0.82777  0.45291  1.0000
  N   N61       1.0  0.83423  0.64752  0.35311  1.0000
  N   N62       1.0  0.81086  0.63249  0.35577  1.0000
  N   N63       1.0  0.64077  0.38860  0.34152  1.0000
  N   N64       1.0  0.66365  0.40476  0.34261  1.0000
  C   C337      1.0  0.69813  0.61061  0.36934  1.0000
  C   C338      1.0  0.70034  0.63181  0.42257  1.0000
  C   C339      1.0  0.67647  0.64946  0.42332  1.0000
  C   C340      1.0  0.64913  0.64539  0.37031  1.0000
  H   H201      1.0  0.71959  0.63439  0.46279  1.0000
  C   C341      1.0  0.67884  0.66871  0.48374  1.0000
  C   C342      1.0  0.66611  0.66548  0.57353  1.0000
  H   H202      1.0  0.64243  0.65794  0.57059  1.0000
  H   H203      1.0  0.66474  0.68288  0.60826  1.0000
  H   H204      1.0  0.68099  0.65330  0.61275  1.0000
  O   O33       1.0  0.70267  0.68107  0.47942  1.0000
  C   C343      1.0  0.80485  0.39977  0.35862  1.0000
  C   C344      1.0  0.80222  0.37811  0.40896  1.0000
  C   C345      1.0  0.82673  0.36101  0.41298  1.0000
  C   C346      1.0  0.85496  0.36584  0.36471  1.0000
  H   H205      1.0  0.78235  0.37499  0.44610  1.0000
  C   C347      1.0  0.82402  0.34175  0.47343  1.0000
  C   C348      1.0  0.83506  0.34552  0.56469  1.0000
  H   H206      1.0  0.85855  0.35346  0.56484  1.0000
  H   H207      1.0  0.83632  0.32825  0.60036  1.0000
  H   H208      1.0  0.81915  0.35753  0.60116  1.0000
  O   O34       1.0  0.80082  0.32887  0.46498  1.0000
  C   C349      1.0  0.63577  0.23064  0.36079  1.0000
  C   C350      1.0  0.64765  0.24676  0.42657  1.0000
  C   C351      1.0  0.63958  0.27161  0.42517  1.0000
  C   C352      1.0  0.61914  0.27993  0.35641  1.0000
  H   H209      1.0  0.66178  0.24031  0.47695  1.0000
  C   C353      1.0  0.64945  0.28691  0.49370  1.0000
  C   C354      1.0  0.63182  0.28698  0.57705  1.0000
  H   H210      1.0  0.60663  0.28801  0.56392  1.0000
  H   H211      1.0  0.63826  0.30271  0.61732  1.0000
  H   H212      1.0  0.63667  0.27061  0.61593  1.0000
  O   O35       1.0  0.67793  0.28919  0.50085  1.0000
  C   C355      1.0  0.86765  0.78028  0.36112  1.0000
  C   C356      1.0  0.85582  0.76393  0.42621  1.0000
  C   C357      1.0  0.86331  0.73896  0.42260  1.0000
  C   C358      1.0  0.88289  0.73072  0.35159  1.0000
  H   H213      1.0  0.84229  0.77031  0.47805  1.0000
  C   C359      1.0  0.85353  0.72347  0.49074  1.0000
  C   C360      1.0  0.87224  0.72250  0.57230  1.0000
  H   H214      1.0  0.89711  0.72026  0.55630  1.0000
  H   H215      1.0  0.86509  0.70710  0.61363  1.0000
  H   H216      1.0  0.86930  0.73907  0.61159  1.0000
  O   O36       1.0  0.82514  0.72199  0.50222  1.0000
  N   N65       1.0  0.86313  0.27035  0.38664  1.0000
  N   N66       1.0  0.85550  0.24738  0.39058  1.0000
  N   N67       1.0  0.64294  0.74146  0.38713  1.0000
  N   N68       1.0  0.65022  0.76446  0.39201  1.0000
  N   N69       1.0  0.48602  0.01795  0.37726  1.0000
  N   N70       1.0  0.48518  0.99416  0.37990  1.0000
  N   N71       1.0  0.73353  0.51771  0.36919  1.0000
  N   N72       1.0  0.73272  0.49393  0.37197  1.0000
