data_image0
_chemical_formula_structural       NCHNCH2CHNCHNCH2CHNCHNCH2CHNCHNCH2CHNCHNCH2CHNCHNCH2CHC2NCNCNHCHCH2C2NCNCNHCHCH2C2NCNCNHCHCH2C2NCNCNHCHCH2C2NCNCNHCHCH2C2NCNCNHCHCH2C2NCNCNH2CH2C2NCNCNH2CH2C2NCNCNH2CH2C2NCNCNH2CH2C2NCNCNH2CH2C2NCNCNH2CH2NC18H12NC18H12NC18H12NC18H12NC18H12NC18H12NC18H12NC18H12NC18H12NC18H12NC18H12NC18H12C2NCNCH4C2NCNCH4C2NCNCH4C2NCNCH4C2NCNCH4C2NCNCH4NCH4NCH4NCH4NCH4NCH4NCH4NCHCH3NCHCH3NCHCH3NCHCH3NCHCH3NCHCH3
_chemical_formula_sum              "N84 C342 H288"
_cell_length_a       64.0361
_cell_length_b       64.0362
_cell_length_c       14.7584
_cell_angle_alpha    90
_cell_angle_beta     90
_cell_angle_gamma    120

_space_group_name_H-M_alt    "P 1"
_space_group_IT_number       1

loop_
  _space_group_symop_operation_xyz
  'x, y, z'

loop_
  _atom_site_type_symbol
  _atom_site_label
  _atom_site_symmetry_multiplicity
  _atom_site_fract_x
  _atom_site_fract_y
  _atom_site_fract_z
  _atom_site_occupancy
  N   N1        1.0  0.21089  0.40432  0.27909  1.0000
  C   C1        1.0  0.19855  0.37985  0.27023  1.0000
  H   H1        1.0  0.19610  0.37281  0.20659  1.0000
  N   N2        1.0  0.20468  0.41628  0.00665  1.0000
  C   C2        1.0  0.22900  0.42255  0.04095  1.0000
  H   H2        1.0  0.23022  0.40627  0.05073  1.0000
  H   H3        1.0  0.23237  0.43157  0.10640  1.0000
  C   C3        1.0  0.20034  0.43705  0.00175  1.0000
  H   H4        1.0  0.20290  0.44540  0.06828  1.0000
  N   N3        1.0  0.60340  0.79790  0.27907  1.0000
  C   C4        1.0  0.62787  0.81003  0.27021  1.0000
  H   H5        1.0  0.63491  0.81463  0.20658  1.0000
  N   N4        1.0  0.59144  0.77972  0.00662  1.0000
  C   C5        1.0  0.58518  0.79779  0.04095  1.0000
  H   H6        1.0  0.60147  0.81527  0.05075  1.0000
  H   H7        1.0  0.57616  0.79214  0.10640  1.0000
  C   C6        1.0  0.57066  0.75462  0.00169  1.0000
  H   H8        1.0  0.56230  0.74883  0.06823  1.0000
  N   N5        1.0  0.20980  0.79685  0.27910  1.0000
  C   C7        1.0  0.19767  0.80919  0.27024  1.0000
  H   H9        1.0  0.19309  0.81165  0.20659  1.0000
  N   N6        1.0  0.22796  0.80305  0.00667  1.0000
  C   C8        1.0  0.20992  0.77871  0.04095  1.0000
  H   H10       1.0  0.19242  0.77749  0.05073  1.0000
  H   H11       1.0  0.21557  0.77535  0.10641  1.0000
  C   C9        1.0  0.25308  0.80740  0.00177  1.0000
  H   H12       1.0  0.25887  0.80485  0.06831  1.0000
  N   N7        1.0  0.80515  0.59505  0.27912  1.0000
  C   C10       1.0  0.81749  0.61952  0.27025  1.0000
  H   H13       1.0  0.81992  0.62656  0.20661  1.0000
  N   N8        1.0  0.81139  0.58310  0.00667  1.0000
  C   C11       1.0  0.78704  0.57681  0.04085  1.0000
  H   H14       1.0  0.78581  0.59308  0.05057  1.0000
  H   H15       1.0  0.78367  0.56780  0.10631  1.0000
  C   C12       1.0  0.81575  0.56235  0.00184  1.0000
  H   H16       1.0  0.81318  0.55400  0.06839  1.0000
  N   N9        1.0  0.41268  0.20148  0.27905  1.0000
  C   C13       1.0  0.38821  0.18935  0.27020  1.0000
  H   H17       1.0  0.38117  0.18475  0.20656  1.0000
  N   N10       1.0  0.42466  0.21967  0.00659  1.0000
  C   C14       1.0  0.43088  0.20158  0.04096  1.0000
  H   H18       1.0  0.41458  0.18411  0.05079  1.0000
  H   H19       1.0  0.43990  0.20723  0.10640  1.0000
  C   C15       1.0  0.44546  0.24475  0.00164  1.0000
  H   H20       1.0  0.45381  0.25054  0.06817  1.0000
  N   N11       1.0  0.80625  0.20254  0.27908  1.0000
  C   C16       1.0  0.81839  0.19020  0.27023  1.0000
  H   H21       1.0  0.82298  0.18775  0.20659  1.0000
  N   N12       1.0  0.78805  0.19632  0.00661  1.0000
  C   C17       1.0  0.80615  0.22062  0.04099  1.0000
  H   H22       1.0  0.82362  0.22178  0.05083  1.0000
  H   H23       1.0  0.80051  0.22401  0.10643  1.0000
  C   C18       1.0  0.76297  0.19205  0.00165  1.0000
  H   H24       1.0  0.75719  0.19462  0.06819  1.0000
  C   C19       1.0  0.18956  0.20906  0.34923  1.0000
  C   C20       1.0  0.21595  0.18377  0.36124  1.0000
  N   N13       1.0  0.21173  0.19191  0.28175  1.0000
  C   C21       1.0  0.19936  0.20405  0.27121  1.0000
  N   N14       1.0  0.19722  0.21147  0.18981  1.0000
  C   C22       1.0  0.20674  0.21163  0.11293  1.0000
  N   N15       1.0  0.20076  0.21955  0.03483  1.0000
  H   H25       1.0  0.21784  0.20509  0.10700  1.0000
  C   C23       1.0  0.17619  0.20216  0.00068  1.0000
  H   H26       1.0  0.16224  0.20060  0.04745  1.0000
  C   C24       1.0  0.20611  0.24500  0.03930  1.0000
  H   H27       1.0  0.22479  0.25696  0.05993  1.0000
  H   H28       1.0  0.19418  0.24699  0.08718  1.0000
  C   C25       1.0  0.79867  0.97184  0.34923  1.0000
  C   C26       1.0  0.82396  0.02352  0.36125  1.0000
  N   N16       1.0  0.81582  0.01117  0.28175  1.0000
  C   C27       1.0  0.80369  0.98666  0.27120  1.0000
  N   N17       1.0  0.79626  0.97709  0.18980  1.0000
  C   C28       1.0  0.79610  0.98645  0.11292  1.0000
  N   N18       1.0  0.78818  0.97256  0.03482  1.0000
  H   H29       1.0  0.80266  0.00411  0.10698  1.0000
  C   C29       1.0  0.80558  0.96537  0.00068  1.0000
  H   H30       1.0  0.80713  0.95298  0.04744  1.0000
  C   C30       1.0  0.76273  0.95246  0.03928  1.0000
  H   H31       1.0  0.75077  0.95918  0.05991  1.0000
  H   H32       1.0  0.76074  0.93855  0.08716  1.0000
  C   C31       1.0  0.03588  0.81818  0.34920  1.0000
  C   C32       1.0  0.98420  0.79179  0.36121  1.0000
  N   N19       1.0  0.99656  0.79600  0.28172  1.0000
  C   C33       1.0  0.02106  0.80837  0.27118  1.0000
  N   N20       1.0  0.03063  0.81052  0.18979  1.0000
  C   C34       1.0  0.02128  0.80099  0.11291  1.0000
  N   N21       1.0  0.03517  0.80697  0.03481  1.0000
  H   H33       1.0  0.00363  0.78989  0.10698  1.0000
  C   C35       1.0  0.04234  0.83154  0.00064  1.0000
  H   H34       1.0  0.05472  0.84549  0.04741  1.0000
  C   C36       1.0  0.05528  0.80164  0.03928  1.0000
  H   H35       1.0  0.04857  0.78296  0.05992  1.0000
  H   H36       1.0  0.06919  0.81356  0.08715  1.0000
  C   C37       1.0  0.82651  0.79032  0.34921  1.0000
  C   C38       1.0  0.80013  0.81561  0.36122  1.0000
  N   N22       1.0  0.80434  0.80747  0.28173  1.0000
  C   C39       1.0  0.81670  0.79533  0.27120  1.0000
  N   N23       1.0  0.81885  0.78790  0.18980  1.0000
  C   C40       1.0  0.80932  0.78774  0.11291  1.0000
  N   N24       1.0  0.81530  0.77982  0.03481  1.0000
  H   H37       1.0  0.79822  0.79428  0.10700  1.0000
  C   C41       1.0  0.83988  0.79722  0.00066  1.0000
  H   H38       1.0  0.85382  0.79878  0.04743  1.0000
  C   C42       1.0  0.80996  0.75437  0.03929  1.0000
  H   H39       1.0  0.79128  0.74241  0.05993  1.0000
  H   H40       1.0  0.82189  0.75239  0.08716  1.0000
  C   C43       1.0  0.21740  0.02755  0.34921  1.0000
  C   C44       1.0  0.19211  0.97587  0.36122  1.0000
  N   N25       1.0  0.20025  0.98823  0.28172  1.0000
  C   C45       1.0  0.21238  0.01273  0.27119  1.0000
  N   N26       1.0  0.21981  0.02230  0.18980  1.0000
  C   C46       1.0  0.21997  0.01294  0.11291  1.0000
  N   N27       1.0  0.22789  0.02684  0.03481  1.0000
  H   H41       1.0  0.21342  0.99529  0.10698  1.0000
  C   C47       1.0  0.21050  0.03402  0.00066  1.0000
  H   H42       1.0  0.20894  0.04641  0.04743  1.0000
  C   C48       1.0  0.25335  0.04694  0.03928  1.0000
  H   H43       1.0  0.26531  0.04022  0.05992  1.0000
  H   H44       1.0  0.25533  0.06085  0.08716  1.0000
  C   C49       1.0  0.98019  0.18120  0.34925  1.0000
  C   C50       1.0  0.03186  0.20759  0.36125  1.0000
  N   N28       1.0  0.01951  0.20340  0.28178  1.0000
  C   C51       1.0  0.99500  0.19102  0.27124  1.0000
  N   N29       1.0  0.98543  0.18891  0.18988  1.0000
  C   C52       1.0  0.99479  0.19842  0.11297  1.0000
  N   N30       1.0  0.98089  0.19241  0.03488  1.0000
  H   H45       1.0  0.01245  0.20943  0.10696  1.0000
  C   C53       1.0  0.97375  0.16785  0.00075  1.0000
  H   H46       1.0  0.96138  0.15389  0.04754  1.0000
  C   C54       1.0  0.96075  0.19771  0.03931  1.0000
  H   H47       1.0  0.96744  0.21639  0.05993  1.0000
  H   H48       1.0  0.94685  0.18577  0.08718  1.0000
  C   C55       1.0  0.24548  0.64090  0.34006  1.0000
  C   C56       1.0  0.24536  0.59623  0.34527  1.0000
  N   N31       1.0  0.24753  0.60855  0.26727  1.0000
  C   C57       1.0  0.24760  0.62982  0.25978  1.0000
  N   N32       1.0  0.25062  0.64009  0.17942  1.0000
  C   C58       1.0  0.25604  0.63529  0.10123  1.0000
  N   N33       1.0  0.25681  0.64836  0.02502  1.0000
  H   H49       1.0  0.25846  0.62125  0.09282  1.0000
  H   H50       1.0  0.22311  0.64751  0.04126  1.0000
  C   C59       1.0  0.27408  0.67476  0.03243  1.0000
  H   H51       1.0  0.29198  0.67806  0.05144  1.0000
  H   H52       1.0  0.26812  0.68318  0.08274  1.0000
  C   C60       1.0  0.36682  0.59592  0.34004  1.0000
  C   C61       1.0  0.41149  0.64047  0.34523  1.0000
  N   N34       1.0  0.39917  0.63031  0.26723  1.0000
  C   C62       1.0  0.37790  0.60911  0.25976  1.0000
  N   N35       1.0  0.36763  0.60186  0.17940  1.0000
  C   C63       1.0  0.37242  0.61206  0.10121  1.0000
  N   N36       1.0  0.35935  0.59976  0.02500  1.0000
  H   H53       1.0  0.38644  0.62853  0.09279  1.0000
  H   H54       1.0  0.36023  0.56692  0.04121  1.0000
  C   C64       1.0  0.33295  0.59061  0.03244  1.0000
  H   H55       1.0  0.32963  0.60519  0.05145  1.0000
  H   H56       1.0  0.32454  0.57622  0.08275  1.0000
  C   C65       1.0  0.41177  0.76220  0.34004  1.0000
  C   C66       1.0  0.36722  0.76232  0.34532  1.0000
  N   N37       1.0  0.37736  0.76015  0.26730  1.0000
  C   C67       1.0  0.39856  0.76008  0.25979  1.0000
  N   N38       1.0  0.40580  0.75706  0.17942  1.0000
  C   C68       1.0  0.39559  0.75164  0.10124  1.0000
  N   N39       1.0  0.40789  0.75087  0.02502  1.0000
  H   H57       1.0  0.37912  0.74920  0.09286  1.0000
  H   H58       1.0  0.44073  0.78458  0.04124  1.0000
  C   C69       1.0  0.41702  0.73360  0.03242  1.0000
  H   H59       1.0  0.40244  0.71571  0.05144  1.0000
  H   H60       1.0  0.43141  0.73958  0.08271  1.0000
  C   C70       1.0  0.77061  0.35848  0.34002  1.0000
  C   C71       1.0  0.77069  0.40314  0.34528  1.0000
  N   N40       1.0  0.76852  0.39082  0.26727  1.0000
  C   C72       1.0  0.76846  0.36955  0.25978  1.0000
  N   N41       1.0  0.76542  0.35928  0.17942  1.0000
  C   C73       1.0  0.75998  0.36407  0.10125  1.0000
  N   N42       1.0  0.75920  0.35100  0.02503  1.0000
  H   H61       1.0  0.75755  0.37810  0.09286  1.0000
  H   H62       1.0  0.79290  0.35182  0.04127  1.0000
  C   C74       1.0  0.74192  0.32461  0.03244  1.0000
  H   H63       1.0  0.72403  0.32131  0.05145  1.0000
  H   H64       1.0  0.74788  0.31617  0.08274  1.0000
  C   C75       1.0  0.64920  0.40348  0.33999  1.0000
  C   C76       1.0  0.60456  0.35890  0.34521  1.0000
  N   N43       1.0  0.61687  0.36907  0.26720  1.0000
  C   C77       1.0  0.63813  0.39027  0.25972  1.0000
  N   N44       1.0  0.64840  0.39753  0.17936  1.0000
  C   C78       1.0  0.64361  0.38732  0.10117  1.0000
  N   N45       1.0  0.65668  0.39962  0.02497  1.0000
  H   H65       1.0  0.62959  0.37084  0.09275  1.0000
  H   H66       1.0  0.65581  0.43246  0.04120  1.0000
  C   C79       1.0  0.68308  0.40876  0.03240  1.0000
  H   H67       1.0  0.68640  0.39418  0.05140  1.0000
  H   H68       1.0  0.69149  0.42315  0.08273  1.0000
  C   C80       1.0  0.60429  0.23714  0.33999  1.0000
  C   C81       1.0  0.64885  0.23704  0.34522  1.0000
  N   N46       1.0  0.63870  0.23922  0.26722  1.0000
  C   C82       1.0  0.61750  0.23929  0.25974  1.0000
  N   N47       1.0  0.61026  0.24232  0.17937  1.0000
  C   C83       1.0  0.62048  0.24776  0.10120  1.0000
  N   N48       1.0  0.60819  0.24853  0.02499  1.0000
  H   H69       1.0  0.63696  0.25021  0.09283  1.0000
  H   H70       1.0  0.57533  0.21484  0.04125  1.0000
  C   C84       1.0  0.59908  0.26582  0.03239  1.0000
  H   H71       1.0  0.61368  0.28371  0.05139  1.0000
  H   H72       1.0  0.58469  0.25986  0.08270  1.0000
  N   N49       1.0  0.13644  0.26041  0.35578  1.0000
  C   C85       1.0  0.11054  0.24750  0.35812  1.0000
  C   C86       1.0  0.14931  0.28630  0.35274  1.0000
  C   C87       1.0  0.14945  0.24750  0.35427  1.0000
  C   C88       1.0  0.14686  0.23193  0.28190  1.0000
  C   C89       1.0  0.15964  0.21922  0.28036  1.0000
  C   C90       1.0  0.17607  0.22174  0.35000  1.0000
  C   C91       1.0  0.17832  0.23726  0.42274  1.0000
  C   C92       1.0  0.16533  0.24978  0.42503  1.0000
  C   C93       1.0  0.09685  0.24716  0.28253  1.0000
  C   C94       1.0  0.07135  0.23419  0.28425  1.0000
  C   C95       1.0  0.05808  0.22097  0.36166  1.0000
  C   C96       1.0  0.07217  0.22150  0.43713  1.0000
  C   C97       1.0  0.09768  0.23437  0.43543  1.0000
  C   C98       1.0  0.16215  0.29904  0.27477  1.0000
  C   C99       1.0  0.17498  0.32455  0.27249  1.0000
  C   C100      1.0  0.17575  0.33874  0.34798  1.0000
  C   C101      1.0  0.16280  0.32558  0.42600  1.0000
  C   C102      1.0  0.14988  0.30009  0.42833  1.0000
  H   H73       1.0  0.06250  0.23470  0.22734  1.0000
  H   H74       1.0  0.10551  0.25634  0.22507  1.0000
  H   H75       1.0  0.10698  0.23408  0.49133  1.0000
  H   H76       1.0  0.06403  0.21206  0.49462  1.0000
  H   H77       1.0  0.13531  0.22956  0.22992  1.0000
  H   H78       1.0  0.15626  0.20751  0.22801  1.0000
  H   H79       1.0  0.16226  0.28966  0.21884  1.0000
  H   H80       1.0  0.18421  0.33260  0.21454  1.0000
  H   H81       1.0  0.16248  0.33451  0.48298  1.0000
  H   H82       1.0  0.14091  0.29151  0.48623  1.0000
  H   H83       1.0  0.16770  0.26086  0.47868  1.0000
  H   H84       1.0  0.19000  0.24003  0.47464  1.0000
  N   N50       1.0  0.74731  0.86738  0.35578  1.0000
  C   C103      1.0  0.76022  0.85438  0.35811  1.0000
  C   C104      1.0  0.72143  0.85436  0.35273  1.0000
  C   C105      1.0  0.76023  0.89330  0.35427  1.0000
  C   C106      1.0  0.77580  0.90627  0.28190  1.0000
  C   C107      1.0  0.78851  0.93177  0.28035  1.0000
  C   C108      1.0  0.78598  0.94567  0.34999  1.0000
  C   C109      1.0  0.77047  0.93241  0.42274  1.0000
  C   C110      1.0  0.75795  0.90690  0.42503  1.0000
  C   C111      1.0  0.76056  0.84104  0.28250  1.0000
  C   C112      1.0  0.77353  0.82851  0.28423  1.0000
  C   C113      1.0  0.78675  0.82845  0.36163  1.0000
  C   C114      1.0  0.78621  0.84200  0.43711  1.0000
  C   C115      1.0  0.77334  0.85464  0.43543  1.0000
  C   C116      1.0  0.70869  0.85445  0.27476  1.0000
  C   C117      1.0  0.68317  0.84177  0.27248  1.0000
  C   C118      1.0  0.66899  0.82835  0.34797  1.0000
  C   C119      1.0  0.68214  0.82856  0.42600  1.0000
  C   C120      1.0  0.70764  0.84114  0.42833  1.0000
  H   H85       1.0  0.77303  0.81916  0.22729  1.0000
  H   H86       1.0  0.75139  0.84052  0.22504  1.0000
  H   H87       1.0  0.77363  0.86423  0.49133  1.0000
  H   H88       1.0  0.79565  0.84329  0.49461  1.0000
  H   H89       1.0  0.77816  0.89709  0.22991  1.0000
  H   H90       1.0  0.80021  0.94009  0.22800  1.0000
  H   H91       1.0  0.71806  0.86394  0.21883  1.0000
  H   H92       1.0  0.67512  0.84295  0.21453  1.0000
  H   H93       1.0  0.67321  0.81931  0.48297  1.0000
  H   H94       1.0  0.71622  0.84075  0.48622  1.0000
  H   H95       1.0  0.74687  0.89818  0.47868  1.0000
  H   H96       1.0  0.76770  0.94132  0.47463  1.0000
  N   N51       1.0  0.14034  0.87129  0.35577  1.0000
  C   C121      1.0  0.15333  0.89719  0.35810  1.0000
  C   C122      1.0  0.15336  0.85842  0.35273  1.0000
  C   C123      1.0  0.11442  0.85829  0.35426  1.0000
  C   C124      1.0  0.10145  0.86088  0.28189  1.0000
  C   C125      1.0  0.07595  0.84810  0.28036  1.0000
  C   C126      1.0  0.06205  0.83166  0.34998  1.0000
  C   C127      1.0  0.07531  0.82942  0.42272  1.0000
  C   C128      1.0  0.10082  0.84241  0.42503  1.0000
  C   C129      1.0  0.16669  0.91088  0.28250  1.0000
  C   C130      1.0  0.17922  0.93638  0.28423  1.0000
  C   C131      1.0  0.17927  0.94965  0.36163  1.0000
  C   C132      1.0  0.16573  0.93557  0.43711  1.0000
  C   C133      1.0  0.15308  0.91005  0.43543  1.0000
  C   C134      1.0  0.15326  0.84559  0.27477  1.0000
  C   C135      1.0  0.16595  0.83276  0.27249  1.0000
  C   C136      1.0  0.17936  0.83199  0.34799  1.0000
  C   C137      1.0  0.17916  0.84493  0.42600  1.0000
  C   C138      1.0  0.16658  0.85786  0.42833  1.0000
  H   H97       1.0  0.18857  0.94523  0.22729  1.0000
  H   H98       1.0  0.16720  0.90222  0.22504  1.0000
  H   H99       1.0  0.14349  0.90076  0.49133  1.0000
  H   H100      1.0  0.16443  0.94371  0.49461  1.0000
  H   H101      1.0  0.11063  0.87242  0.22989  1.0000
  H   H102      1.0  0.06763  0.85147  0.22796  1.0000
  H   H103      1.0  0.14377  0.84547  0.21883  1.0000
  H   H104      1.0  0.16476  0.82352  0.21455  1.0000
  H   H105      1.0  0.18841  0.84526  0.48298  1.0000
  H   H106      1.0  0.16698  0.86683  0.48621  1.0000
  H   H107      1.0  0.10953  0.84004  0.47867  1.0000
  H   H108      1.0  0.06640  0.81774  0.47461  1.0000
  N   N52       1.0  0.87962  0.73897  0.35575  1.0000
  C   C139      1.0  0.90552  0.75187  0.35809  1.0000
  C   C140      1.0  0.86675  0.71308  0.35272  1.0000
  C   C141      1.0  0.86662  0.75188  0.35425  1.0000
  C   C142      1.0  0.86922  0.76745  0.28189  1.0000
  C   C143      1.0  0.85643  0.78017  0.28036  1.0000
  C   C144      1.0  0.84000  0.77763  0.34998  1.0000
  C   C145      1.0  0.83775  0.76213  0.42274  1.0000
  C   C146      1.0  0.85074  0.74961  0.42503  1.0000
  C   C147      1.0  0.91921  0.75221  0.28250  1.0000
  C   C148      1.0  0.94471  0.76518  0.28421  1.0000
  C   C149      1.0  0.95798  0.77840  0.36161  1.0000
  C   C150      1.0  0.94390  0.77787  0.43710  1.0000
  C   C151      1.0  0.91838  0.76499  0.43541  1.0000
  C   C152      1.0  0.85391  0.70034  0.27476  1.0000
  C   C153      1.0  0.84108  0.67482  0.27249  1.0000
  C   C154      1.0  0.84031  0.66064  0.34797  1.0000
  C   C155      1.0  0.85327  0.67379  0.42598  1.0000
  C   C156      1.0  0.86619  0.69929  0.42831  1.0000
  H   H109      1.0  0.95356  0.76468  0.22728  1.0000
  H   H110      1.0  0.91055  0.74304  0.22502  1.0000
  H   H111      1.0  0.90909  0.76529  0.49131  1.0000
  H   H112      1.0  0.95204  0.78731  0.49459  1.0000
  H   H113      1.0  0.88075  0.76981  0.22988  1.0000
  H   H114      1.0  0.85980  0.79186  0.22797  1.0000
  H   H115      1.0  0.85379  0.70971  0.21883  1.0000
  H   H116      1.0  0.83184  0.66678  0.21455  1.0000
  H   H117      1.0  0.85360  0.66487  0.48295  1.0000
  H   H118      1.0  0.87516  0.70787  0.48618  1.0000
  H   H119      1.0  0.84837  0.73852  0.47866  1.0000
  H   H120      1.0  0.82607  0.75935  0.47461  1.0000
  N   N53       1.0  0.26877  0.13202  0.35578  1.0000
  C   C157      1.0  0.25586  0.14501  0.35812  1.0000
  C   C158      1.0  0.29466  0.14503  0.35274  1.0000
  C   C159      1.0  0.25585  0.10610  0.35427  1.0000
  C   C160      1.0  0.24028  0.09312  0.28191  1.0000
  C   C161      1.0  0.22756  0.06762  0.28037  1.0000
  C   C162      1.0  0.23009  0.05372  0.34999  1.0000
  C   C163      1.0  0.24560  0.06698  0.42274  1.0000
  C   C164      1.0  0.25813  0.09249  0.42503  1.0000
  C   C165      1.0  0.25552  0.15836  0.28252  1.0000
  C   C166      1.0  0.24255  0.17088  0.28424  1.0000
  C   C167      1.0  0.22934  0.17094  0.36165  1.0000
  C   C168      1.0  0.22987  0.15740  0.43714  1.0000
  C   C169      1.0  0.24275  0.14475  0.43545  1.0000
  C   C170      1.0  0.30739  0.14494  0.27476  1.0000
  C   C171      1.0  0.33291  0.15761  0.27248  1.0000
  C   C172      1.0  0.34710  0.17103  0.34796  1.0000
  C   C173      1.0  0.33394  0.17082  0.42600  1.0000
  C   C174      1.0  0.30845  0.15825  0.42833  1.0000
  H   H121      1.0  0.24305  0.18023  0.22730  1.0000
  H   H122      1.0  0.26469  0.15887  0.22505  1.0000
  H   H123      1.0  0.24245  0.13516  0.49135  1.0000
  H   H124      1.0  0.22043  0.15610  0.49464  1.0000
  H   H125      1.0  0.23792  0.10230  0.22991  1.0000
  H   H126      1.0  0.21587  0.05930  0.22798  1.0000
  H   H127      1.0  0.29802  0.13545  0.21883  1.0000
  H   H128      1.0  0.34096  0.15644  0.21451  1.0000
  H   H129      1.0  0.34287  0.18007  0.48297  1.0000
  H   H130      1.0  0.29987  0.15864  0.48623  1.0000
  H   H131      1.0  0.26921  0.10120  0.47868  1.0000
  H   H132      1.0  0.24837  0.05807  0.47462  1.0000
  N   N54       1.0  0.87572  0.12810  0.35581  1.0000
  C   C175      1.0  0.86273  0.10220  0.35814  1.0000
  C   C176      1.0  0.86271  0.14097  0.35276  1.0000
  C   C177      1.0  0.90164  0.14110  0.35430  1.0000
  C   C178      1.0  0.91461  0.13852  0.28191  1.0000
  C   C179      1.0  0.94011  0.15129  0.28038  1.0000
  C   C180      1.0  0.95401  0.16772  0.35003  1.0000
  C   C181      1.0  0.94076  0.16996  0.42279  1.0000
  C   C182      1.0  0.91525  0.15697  0.42509  1.0000
  C   C183      1.0  0.84938  0.08851  0.28254  1.0000
  C   C184      1.0  0.83685  0.06301  0.28425  1.0000
  C   C185      1.0  0.83680  0.04974  0.36166  1.0000
  C   C186      1.0  0.85034  0.06382  0.43715  1.0000
  C   C187      1.0  0.86299  0.08934  0.43546  1.0000
  C   C188      1.0  0.86280  0.15380  0.27479  1.0000
  C   C189      1.0  0.85012  0.16664  0.27252  1.0000
  C   C190      1.0  0.83670  0.16740  0.34800  1.0000
  C   C191      1.0  0.83691  0.15446  0.42602  1.0000
  C   C192      1.0  0.84948  0.14154  0.42836  1.0000
  H   H133      1.0  0.82750  0.05416  0.22732  1.0000
  H   H134      1.0  0.84887  0.09717  0.22507  1.0000
  H   H135      1.0  0.87258  0.09863  0.49136  1.0000
  H   H136      1.0  0.85164  0.05568  0.49464  1.0000
  H   H137      1.0  0.90544  0.12698  0.22989  1.0000
  H   H138      1.0  0.94844  0.14794  0.22797  1.0000
  H   H139      1.0  0.87229  0.15392  0.21886  1.0000
  H   H140      1.0  0.85129  0.17586  0.21455  1.0000
  H   H141      1.0  0.82766  0.15413  0.48300  1.0000
  H   H142      1.0  0.84909  0.13257  0.48626  1.0000
  H   H143      1.0  0.90653  0.15933  0.47875  1.0000
  H   H144      1.0  0.94966  0.18163  0.47471  1.0000
  N   N55       1.0  0.26836  0.52108  0.34774  1.0000
  C   C193      1.0  0.29407  0.53547  0.35417  1.0000
  C   C194      1.0  0.25546  0.49523  0.35063  1.0000
  C   C195      1.0  0.25651  0.53493  0.34045  1.0000
  C   C196      1.0  0.24684  0.53986  0.41807  1.0000
  C   C197      1.0  0.24218  0.55921  0.41902  1.0000
  C   C198      1.0  0.24706  0.57455  0.34280  1.0000
  C   C199      1.0  0.25518  0.56823  0.26334  1.0000
  C   C200      1.0  0.25983  0.54891  0.26210  1.0000
  C   C201      1.0  0.30891  0.53795  0.27953  1.0000
  C   C202      1.0  0.33318  0.55678  0.27642  1.0000
  C   C203      1.0  0.34335  0.57445  0.34590  1.0000
  C   C204      1.0  0.32859  0.57079  0.42270  1.0000
  C   C205      1.0  0.30468  0.55152  0.42769  1.0000
  C   C206      1.0  0.25758  0.48255  0.42507  1.0000
  C   C207      1.0  0.24492  0.45705  0.42763  1.0000
  C   C208      1.0  0.22894  0.44286  0.35729  1.0000
  C   C209      1.0  0.22710  0.45588  0.28273  1.0000
  C   C210      1.0  0.24011  0.48137  0.27907  1.0000
  H   H145      1.0  0.34308  0.55780  0.22067  1.0000
  H   H146      1.0  0.30167  0.52691  0.22450  1.0000
  H   H147      1.0  0.29429  0.55078  0.48154  1.0000
  H   H148      1.0  0.33456  0.58321  0.47381  1.0000
  H   H149      1.0  0.24513  0.53068  0.47687  1.0000
  H   H150      1.0  0.23615  0.56249  0.47837  1.0000
  H   H151      1.0  0.26878  0.49194  0.47763  1.0000
  H   H152      1.0  0.24806  0.44897  0.48139  1.0000
  H   H153      1.0  0.21574  0.44680  0.23029  1.0000
  H   H154      1.0  0.23806  0.48987  0.22399  1.0000
  H   H155      1.0  0.26777  0.54647  0.20605  1.0000
  H   H156      1.0  0.25942  0.57864  0.20630  1.0000
  N   N56       1.0  0.48664  0.73861  0.34773  1.0000
  C   C211      1.0  0.47227  0.74996  0.35403  1.0000
  C   C212      1.0  0.51249  0.75156  0.35060  1.0000
  C   C213      1.0  0.47279  0.71292  0.34042  1.0000
  C   C214      1.0  0.46787  0.69831  0.41801  1.0000
  C   C215      1.0  0.44850  0.67432  0.41900  1.0000
  C   C216      1.0  0.43317  0.66385  0.34275  1.0000
  C   C217      1.0  0.43951  0.67828  0.26325  1.0000
  C   C218      1.0  0.45878  0.70226  0.26212  1.0000
  C   C219      1.0  0.46975  0.76230  0.27941  1.0000
  C   C220      1.0  0.45090  0.76770  0.27630  1.0000
  C   C221      1.0  0.43324  0.76021  0.34584  1.0000
  C   C222      1.0  0.43695  0.74917  0.42271  1.0000
  C   C223      1.0  0.45618  0.74447  0.42747  1.0000
  C   C224      1.0  0.52517  0.76637  0.42503  1.0000
  C   C225      1.0  0.55067  0.77920  0.42759  1.0000
  C   C226      1.0  0.56486  0.77740  0.35727  1.0000
  C   C227      1.0  0.55185  0.76255  0.28271  1.0000
  C   C228      1.0  0.52635  0.75008  0.27904  1.0000
  H   H157      1.0  0.44987  0.77657  0.22055  1.0000
  H   H158      1.0  0.48079  0.76610  0.22437  1.0000
  H   H159      1.0  0.45699  0.73490  0.48150  1.0000
  H   H160      1.0  0.42453  0.74269  0.47382  1.0000
  H   H161      1.0  0.47702  0.70578  0.47688  1.0000
  H   H162      1.0  0.44521  0.66502  0.47837  1.0000
  H   H163      1.0  0.51579  0.76819  0.47758  1.0000
  H   H164      1.0  0.55875  0.79043  0.48135  1.0000
  H   H165      1.0  0.56092  0.76026  0.23028  1.0000
  H   H166      1.0  0.51785  0.73952  0.22397  1.0000
  H   H167      1.0  0.46128  0.71262  0.20596  1.0000
  H   H168      1.0  0.42910  0.67210  0.20620  1.0000
  N   N57       1.0  0.26909  0.73937  0.34775  1.0000
  C   C229      1.0  0.25775  0.71366  0.35406  1.0000
  C   C230      1.0  0.25614  0.75227  0.35064  1.0000
  C   C231      1.0  0.29479  0.75122  0.34057  1.0000
  C   C232      1.0  0.30940  0.76090  0.41816  1.0000
  C   C233      1.0  0.33339  0.76551  0.41912  1.0000
  C   C234      1.0  0.34385  0.76064  0.34286  1.0000
  C   C235      1.0  0.32941  0.75256  0.26337  1.0000
  C   C236      1.0  0.30544  0.74787  0.26224  1.0000
  C   C237      1.0  0.24541  0.69880  0.27943  1.0000
  C   C238      1.0  0.23997  0.67453  0.27635  1.0000
  C   C239      1.0  0.24748  0.66437  0.34586  1.0000
  C   C240      1.0  0.25856  0.67913  0.42265  1.0000
  C   C241      1.0  0.26323  0.70305  0.42749  1.0000
  C   C242      1.0  0.24133  0.75015  0.42507  1.0000
  C   C243      1.0  0.22850  0.76281  0.42764  1.0000
  C   C244      1.0  0.23030  0.77879  0.35730  1.0000
  C   C245      1.0  0.24515  0.78064  0.28276  1.0000
  C   C246      1.0  0.25763  0.76763  0.27910  1.0000
  H   H169      1.0  0.23112  0.66464  0.22057  1.0000
  H   H170      1.0  0.24161  0.70603  0.22439  1.0000
  H   H171      1.0  0.27279  0.71342  0.48154  1.0000
  H   H172      1.0  0.26499  0.67317  0.47386  1.0000
  H   H173      1.0  0.30193  0.76256  0.47704  1.0000
  H   H174      1.0  0.34269  0.77150  0.47849  1.0000
  H   H175      1.0  0.23951  0.73893  0.47760  1.0000
  H   H176      1.0  0.21726  0.75965  0.48137  1.0000
  H   H177      1.0  0.24744  0.79201  0.23034  1.0000
  H   H178      1.0  0.26819  0.76968  0.22404  1.0000
  H   H179      1.0  0.29507  0.74002  0.20607  1.0000
  H   H180      1.0  0.33559  0.74834  0.20629  1.0000
  N   N58       1.0  0.74770  0.47829  0.34786  1.0000
  C   C247      1.0  0.72198  0.46392  0.35411  1.0000
  C   C248      1.0  0.76060  0.50414  0.35071  1.0000
  C   C249      1.0  0.75954  0.46444  0.34053  1.0000
  C   C250      1.0  0.76919  0.45949  0.41815  1.0000
  C   C251      1.0  0.77387  0.44016  0.41907  1.0000
  C   C252      1.0  0.76900  0.42483  0.34282  1.0000
  C   C253      1.0  0.76087  0.43115  0.26338  1.0000
  C   C254      1.0  0.75620  0.45045  0.26220  1.0000
  C   C255      1.0  0.70713  0.46143  0.27948  1.0000
  C   C256      1.0  0.68287  0.44260  0.27634  1.0000
  C   C257      1.0  0.67269  0.42492  0.34582  1.0000
  C   C258      1.0  0.68744  0.42858  0.42263  1.0000
  C   C259      1.0  0.71137  0.44782  0.42751  1.0000
  C   C260      1.0  0.75850  0.51683  0.42517  1.0000
  C   C261      1.0  0.77116  0.54233  0.42772  1.0000
  C   C262      1.0  0.78713  0.55651  0.35733  1.0000
  C   C263      1.0  0.78895  0.54349  0.28276  1.0000
  C   C264      1.0  0.77594  0.51800  0.27912  1.0000
  H   H181      1.0  0.67297  0.44159  0.22062  1.0000
  H   H182      1.0  0.71437  0.47248  0.22448  1.0000
  H   H183      1.0  0.72173  0.44862  0.48156  1.0000
  H   H184      1.0  0.68147  0.41619  0.47383  1.0000
  H   H185      1.0  0.77094  0.46869  0.47695  1.0000
  H   H186      1.0  0.77991  0.43687  0.47839  1.0000
  H   H187      1.0  0.74730  0.50745  0.47772  1.0000
  H   H188      1.0  0.76802  0.55041  0.48146  1.0000
  H   H189      1.0  0.80031  0.55257  0.23030  1.0000
  H   H190      1.0  0.77798  0.50949  0.22403  1.0000
  H   H191      1.0  0.74830  0.45291  0.20607  1.0000
  H   H192      1.0  0.75663  0.42073  0.20633  1.0000
  N   N59       1.0  0.52945  0.26076  0.34772  1.0000
  C   C265      1.0  0.54383  0.24943  0.35398  1.0000
  C   C266      1.0  0.50359  0.24781  0.35058  1.0000
  C   C267      1.0  0.54330  0.28646  0.34043  1.0000
  C   C268      1.0  0.54821  0.30104  0.41807  1.0000
  C   C269      1.0  0.56755  0.32505  0.41901  1.0000
  C   C270      1.0  0.58287  0.33552  0.34274  1.0000
  C   C271      1.0  0.57655  0.32108  0.26325  1.0000
  C   C272      1.0  0.55727  0.29711  0.26205  1.0000
  C   C273      1.0  0.54631  0.23708  0.27933  1.0000
  C   C274      1.0  0.56516  0.23166  0.27624  1.0000
  C   C275      1.0  0.58282  0.23914  0.34579  1.0000
  C   C276      1.0  0.57914  0.25022  0.42260  1.0000
  C   C277      1.0  0.55989  0.25490  0.42746  1.0000
  C   C278      1.0  0.49091  0.23300  0.42501  1.0000
  C   C279      1.0  0.46541  0.22018  0.42757  1.0000
  C   C280      1.0  0.45122  0.22197  0.35723  1.0000
  C   C281      1.0  0.46424  0.23682  0.28269  1.0000
  C   C282      1.0  0.48973  0.24930  0.27903  1.0000
  H   H193      1.0  0.56619  0.22278  0.22049  1.0000
  H   H194      1.0  0.53528  0.23328  0.22431  1.0000
  H   H195      1.0  0.55908  0.26445  0.48152  1.0000
  H   H196      1.0  0.59153  0.25664  0.47381  1.0000
  H   H197      1.0  0.53901  0.29359  0.47685  1.0000
  H   H198      1.0  0.57081  0.33438  0.47830  1.0000
  H   H199      1.0  0.50029  0.23117  0.47753  1.0000
  H   H200      1.0  0.45732  0.20893  0.48129  1.0000
  H   H201      1.0  0.45516  0.23912  0.23028  1.0000
  H   H202      1.0  0.49824  0.25987  0.22398  1.0000
  H   H203      1.0  0.55481  0.28674  0.20594  1.0000
  H   H204      1.0  0.58697  0.32726  0.20623  1.0000
  N   N60       1.0  0.74696  0.26002  0.34761  1.0000
  C   C283      1.0  0.75830  0.28573  0.35406  1.0000
  C   C284      1.0  0.75991  0.24711  0.35054  1.0000
  C   C285      1.0  0.72126  0.24816  0.34046  1.0000
  C   C286      1.0  0.70668  0.23850  0.41807  1.0000
  C   C287      1.0  0.68267  0.23384  0.41901  1.0000
  C   C288      1.0  0.67221  0.23871  0.34274  1.0000
  C   C289      1.0  0.68665  0.24682  0.26326  1.0000
  C   C290      1.0  0.71063  0.25151  0.26210  1.0000
  C   C291      1.0  0.77066  0.30058  0.27943  1.0000
  C   C292      1.0  0.77608  0.32484  0.27632  1.0000
  C   C293      1.0  0.76858  0.33501  0.34582  1.0000
  C   C294      1.0  0.75751  0.32025  0.42265  1.0000
  C   C295      1.0  0.75285  0.29634  0.42757  1.0000
  C   C296      1.0  0.77472  0.24924  0.42497  1.0000
  C   C297      1.0  0.78754  0.23656  0.42758  1.0000
  C   C298      1.0  0.78575  0.22058  0.35725  1.0000
  C   C299      1.0  0.77091  0.21875  0.28269  1.0000
  C   C300      1.0  0.75843  0.23176  0.27899  1.0000
  H   H205      1.0  0.78494  0.33473  0.22053  1.0000
  H   H206      1.0  0.77443  0.29332  0.22435  1.0000
  H   H207      1.0  0.74326  0.28595  0.48152  1.0000
  H   H208      1.0  0.75108  0.32622  0.47385  1.0000
  H   H209      1.0  0.71413  0.23674  0.47685  1.0000
  H   H210      1.0  0.67334  0.22778  0.47830  1.0000
  H   H211      1.0  0.77654  0.26044  0.47751  1.0000
  H   H212      1.0  0.79878  0.23972  0.48132  1.0000
  H   H213      1.0  0.76861  0.20737  0.23027  1.0000
  H   H214      1.0  0.74786  0.22970  0.22393  1.0000
  H   H215      1.0  0.72100  0.25943  0.20600  1.0000
  H   H216      1.0  0.68049  0.25111  0.20628  1.0000
  C   C301      1.0  0.21549  0.41667  0.35884  1.0000
  C   C302      1.0  0.18910  0.36496  0.34780  1.0000
  N   N61       1.0  0.19335  0.37742  0.42702  1.0000
  C   C303      1.0  0.20570  0.40194  0.43708  1.0000
  N   N62       1.0  0.20796  0.41155  0.51840  1.0000
  C   C304      1.0  0.19832  0.40233  0.59529  1.0000
  H   H217      1.0  0.18701  0.38472  0.60137  1.0000
  H   H218      1.0  0.24318  0.43452  0.66072  1.0000
  H   H219      1.0  0.18181  0.43100  0.64739  1.0000
  H   H220      1.0  0.21266  0.45072  0.62065  1.0000
  C   C305      1.0  0.59105  0.79014  0.35882  1.0000
  C   C306      1.0  0.64277  0.81548  0.34778  1.0000
  N   N63       1.0  0.63030  0.80727  0.42700  1.0000
  C   C307      1.0  0.60578  0.79509  0.43706  1.0000
  N   N64       1.0  0.59617  0.78774  0.51838  1.0000
  C   C308      1.0  0.60539  0.78731  0.59527  1.0000
  H   H221      1.0  0.62299  0.79358  0.60132  1.0000
  H   H222      1.0  0.57323  0.80002  0.66072  1.0000
  H   H223      1.0  0.57669  0.74214  0.64732  1.0000
  H   H224      1.0  0.55699  0.75329  0.62061  1.0000
  C   C309      1.0  0.21755  0.79224  0.35885  1.0000
  C   C310      1.0  0.19223  0.81863  0.34780  1.0000
  N   N65       1.0  0.20043  0.81437  0.42703  1.0000
  C   C311      1.0  0.21260  0.80202  0.43709  1.0000
  N   N66       1.0  0.21996  0.79977  0.51842  1.0000
  C   C312      1.0  0.22037  0.80940  0.59532  1.0000
  H   H225      1.0  0.21407  0.82071  0.60140  1.0000
  H   H226      1.0  0.20772  0.76454  0.66072  1.0000
  H   H227      1.0  0.26554  0.82593  0.64744  1.0000
  H   H228      1.0  0.25444  0.79509  0.62066  1.0000
  C   C313      1.0  0.80057  0.58270  0.35887  1.0000
  C   C314      1.0  0.82696  0.63442  0.34780  1.0000
  N   N67       1.0  0.82273  0.62195  0.42701  1.0000
  C   C315      1.0  0.81038  0.59744  0.43709  1.0000
  N   N68       1.0  0.80817  0.58783  0.51838  1.0000
  C   C316      1.0  0.81776  0.59706  0.59531  1.0000
  H   H229      1.0  0.82894  0.61469  0.60150  1.0000
  H   H230      1.0  0.77288  0.56483  0.66058  1.0000
  H   H231      1.0  0.83429  0.56842  0.64758  1.0000
  H   H232      1.0  0.80346  0.54867  0.62072  1.0000
  C   C317      1.0  0.42503  0.20923  0.35879  1.0000
  C   C318      1.0  0.37332  0.18390  0.34777  1.0000
  N   N69       1.0  0.38578  0.19211  0.42698  1.0000
  C   C319      1.0  0.41030  0.20428  0.43704  1.0000
  N   N70       1.0  0.41991  0.21164  0.51835  1.0000
  C   C320      1.0  0.41071  0.21208  0.59523  1.0000
  H   H233      1.0  0.39310  0.20582  0.60131  1.0000
  H   H234      1.0  0.44282  0.19932  0.66075  1.0000
  H   H235      1.0  0.43945  0.25726  0.64723  1.0000
  H   H236      1.0  0.45912  0.24606  0.62057  1.0000
  C   C321      1.0  0.79849  0.20713  0.35882  1.0000
  C   C322      1.0  0.82383  0.18075  0.34780  1.0000
  N   N71       1.0  0.81561  0.18501  0.42702  1.0000
  C   C323      1.0  0.80344  0.19735  0.43707  1.0000
  N   N72       1.0  0.79608  0.19961  0.51838  1.0000
  C   C324      1.0  0.79563  0.18995  0.59525  1.0000
  H   H237      1.0  0.80189  0.17861  0.60133  1.0000
  H   H238      1.0  0.80842  0.23483  0.66078  1.0000
  H   H239      1.0  0.75046  0.17355  0.64723  1.0000
  H   H240      1.0  0.76167  0.20441  0.62059  1.0000
  N   N73       1.0  0.19412  0.20141  0.42927  1.0000
  C   C325      1.0  0.20647  0.18930  0.43854  1.0000
  H   H241      1.0  0.20891  0.18476  0.50230  1.0000
  H   H242      1.0  0.17421  0.18432  0.65799  1.0000
  H   H243      1.0  0.17316  0.20800  0.60169  1.0000
  H   H244      1.0  0.20376  0.25093  0.63933  1.0000
  N   N74       1.0  0.80632  0.98406  0.42927  1.0000
  C   C326      1.0  0.81844  0.00852  0.43854  1.0000
  H   H245      1.0  0.82296  0.01549  0.50231  1.0000
  H   H246      1.0  0.82341  0.98123  0.65799  1.0000
  H   H247      1.0  0.79973  0.95650  0.60169  1.0000
  H   H248      1.0  0.75681  0.94420  0.63931  1.0000
  N   N75       1.0  0.02366  0.81362  0.42924  1.0000
  C   C327      1.0  0.99920  0.80127  0.43850  1.0000
  H   H249      1.0  0.99223  0.79882  0.50228  1.0000
  H   H250      1.0  0.02648  0.83351  0.65795  1.0000
  H   H251      1.0  0.05121  0.83457  0.60166  1.0000
  H   H252      1.0  0.06355  0.80398  0.63931  1.0000
  N   N76       1.0  0.82195  0.79798  0.42925  1.0000
  C   C328      1.0  0.80960  0.81009  0.43852  1.0000
  H   H253      1.0  0.80717  0.81463  0.50228  1.0000
  H   H254      1.0  0.84185  0.81505  0.65797  1.0000
  H   H255      1.0  0.84290  0.79137  0.60167  1.0000
  H   H256      1.0  0.81230  0.74845  0.63932  1.0000
  N   N77       1.0  0.20975  0.01533  0.42925  1.0000
  C   C329      1.0  0.19763  0.99087  0.43852  1.0000
  H   H257      1.0  0.19311  0.98390  0.50229  1.0000
  H   H258      1.0  0.19267  0.01816  0.65797  1.0000
  H   H259      1.0  0.21635  0.04289  0.60167  1.0000
  H   H260      1.0  0.25927  0.05521  0.63932  1.0000
  N   N78       1.0  0.99240  0.18574  0.42929  1.0000
  C   C330      1.0  0.01687  0.19809  0.43855  1.0000
  H   H261      1.0  0.02383  0.20052  0.50231  1.0000
  H   H262      1.0  0.98963  0.16590  0.65807  1.0000
  H   H263      1.0  0.96488  0.16480  0.60177  1.0000
  H   H264      1.0  0.95249  0.19536  0.63934  1.0000
  N   N79       1.0  0.24364  0.62880  0.41847  1.0000
  C   C331      1.0  0.24326  0.60745  0.42466  1.0000
  H   H265      1.0  0.24241  0.60056  0.48768  1.0000
  C   C332      1.0  0.23234  0.64209  0.65906  1.0000
  H   H266      1.0  0.22133  0.62269  0.64732  1.0000
  H   H267      1.0  0.23360  0.65108  0.59488  1.0000
  H   H268      1.0  0.27582  0.68354  0.63404  1.0000
  N   N80       1.0  0.37892  0.60618  0.41845  1.0000
  C   C333      1.0  0.40029  0.62715  0.42462  1.0000
  H   H269      1.0  0.40715  0.63321  0.48765  1.0000
  C   C334      1.0  0.36564  0.58157  0.65902  1.0000
  H   H270      1.0  0.38504  0.58998  0.64727  1.0000
  H   H271      1.0  0.35665  0.57384  0.59485  1.0000
  H   H272      1.0  0.32416  0.58356  0.63405  1.0000
  N   N81       1.0  0.40153  0.76407  0.41847  1.0000
  C   C335      1.0  0.38056  0.76445  0.42468  1.0000
  H   H273      1.0  0.37454  0.76533  0.48771  1.0000
  C   C336      1.0  0.42608  0.77535  0.65905  1.0000
  H   H274      1.0  0.41767  0.78634  0.64732  1.0000
  H   H275      1.0  0.43381  0.77409  0.59487  1.0000
  H   H276      1.0  0.42407  0.73187  0.63401  1.0000
  N   N82       1.0  0.77245  0.37058  0.41845  1.0000
  C   C337      1.0  0.77285  0.39195  0.42465  1.0000
  H   H277      1.0  0.77366  0.39882  0.48768  1.0000
  C   C338      1.0  0.78367  0.35725  0.65907  1.0000
  H   H278      1.0  0.79469  0.37666  0.64734  1.0000
  H   H279      1.0  0.78241  0.34826  0.59490  1.0000
  H   H280      1.0  0.74018  0.31582  0.63403  1.0000
  N   N83       1.0  0.63712  0.39321  0.41841  1.0000
  C   C339      1.0  0.61576  0.37223  0.42459  1.0000
  H   H281      1.0  0.60890  0.36616  0.48763  1.0000
  C   C340      1.0  0.65040  0.41782  0.65900  1.0000
  H   H282      1.0  0.63100  0.40941  0.64726  1.0000
  H   H283      1.0  0.65939  0.42555  0.59483  1.0000
  H   H284      1.0  0.69187  0.41582  0.63402  1.0000
  N   N84       1.0  0.61452  0.23527  0.41840  1.0000
  C   C341      1.0  0.63550  0.23489  0.42459  1.0000
  H   H285      1.0  0.64152  0.23400  0.48760  1.0000
  C   C342      1.0  0.58998  0.22406  0.65904  1.0000
  H   H286      1.0  0.59837  0.21305  0.64731  1.0000
  H   H287      1.0  0.58224  0.22532  0.59487  1.0000
  H   H288      1.0  0.59203  0.26756  0.63399  1.0000
