data_image0
_chemical_formula_structural       C8H3NCHNCHCNCHCNCOCH3C8H3NCHNCHCNCHCNCOCH3NCHC6HC2H2C6HC2H2COCH2C2NCOCHC3NC2H2NCHC6HC2H2C6HC2H2COCH2C2NCOCHC3NC2H2NCHC7HCHC8H6OHNCHC7HCHC8H6OHC7HCH2NCHNCH3C2NCOCHC2NCOCH3C7HCH2NCHNCH3C2NCOCHC2NCOCH3C8HC7HCH4NCHNCHNCHNCHNCHNCHC8HC7HCH4C8HC7HCH4C2NCOCH3C2NCOCH3C2NCOCH3C2NCOCH3C2NCOCH3C2NCOCH3C8HC7HCH4NCHNCHNCHNCHNCHNCHC8HC7HCH4C8HC7HCH4C2NCOCH3C2NCOCH3C2NCOCH3C2NCOCH3C2NCOCH3C2NCOCH3
_chemical_formula_sum              "C312 H168 N48 O24"
_cell_length_a       46.413
_cell_length_b       46.413
_cell_length_c       14.7865
_cell_angle_alpha    89.998
_cell_angle_beta     90.002
_cell_angle_gamma    120

_space_group_name_H-M_alt    "P 1"
_space_group_IT_number       1

loop_
  _space_group_symop_operation_xyz
  'x, y, z'

loop_
  _atom_site_type_symbol
  _atom_site_label
  _atom_site_symmetry_multiplicity
  _atom_site_fract_x
  _atom_site_fract_y
  _atom_site_fract_z
  _atom_site_occupancy
  C   C1        1.0  0.02917  0.26550  0.32866  1.0000
  C   C2        1.0  0.04714  0.30117  0.33200  1.0000
  C   C3        1.0  0.08242  0.31884  0.34195  1.0000
  C   C4        1.0  0.09877  0.30014  0.34644  1.0000
  C   C5        1.0  0.08231  0.26510  0.34072  1.0000
  C   C6        1.0  0.04701  0.24766  0.33112  1.0000
  C   C7        1.0  0.02888  0.31804  0.33162  1.0000
  C   C8        1.0  0.02857  0.21252  0.33091  1.0000
  H   H1        1.0  0.12430  0.31289  0.35152  1.0000
  H   H2        1.0  0.04081  0.34346  0.33478  1.0000
  H   H3        1.0  0.04038  0.19891  0.33391  1.0000
  N   N1        1.0  0.14404  0.24165  0.28084  1.0000
  C   C9        1.0  0.11342  0.23913  0.27781  1.0000
  H   H4        1.0  0.10159  0.23478  0.21682  1.0000
  N   N2        1.0  0.11343  0.37376  0.28099  1.0000
  C   C10       1.0  0.14150  0.40441  0.27782  1.0000
  H   H5        1.0  0.14891  0.41620  0.21678  1.0000
  C   C11       1.0  0.10297  0.25084  0.35219  1.0000
  N   N3        1.0  0.12372  0.26129  0.42489  1.0000
  C   C12       1.0  0.15211  0.25996  0.43250  1.0000
  H   H6        1.0  0.14419  0.23525  0.59720  1.0000
  C   C13       1.0  0.10291  0.35369  0.35550  1.0000
  N   N4        1.0  0.15352  0.39421  0.42469  1.0000
  C   C14       1.0  0.12386  0.36577  0.43253  1.0000
  O   O1        1.0  0.11941  0.34655  0.50712  1.0000
  C   C15       1.0  0.09743  0.34825  0.57253  1.0000
  H   H7        1.0  0.09547  0.33255  0.62974  1.0000
  H   H8        1.0  0.07250  0.33897  0.54472  1.0000
  H   H9        1.0  0.10713  0.37363  0.59737  1.0000
  C   C16       1.0  0.02917  0.76550  0.32866  1.0000
  C   C17       1.0  0.04714  0.80116  0.33200  1.0000
  C   C18       1.0  0.08242  0.81884  0.34195  1.0000
  C   C19       1.0  0.09877  0.80013  0.34644  1.0000
  C   C20       1.0  0.08231  0.76511  0.34072  1.0000
  C   C21       1.0  0.04701  0.74766  0.33112  1.0000
  C   C22       1.0  0.02888  0.81804  0.33162  1.0000
  C   C23       1.0  0.02857  0.71252  0.33091  1.0000
  H   H10       1.0  0.12430  0.81288  0.35152  1.0000
  H   H11       1.0  0.04081  0.84346  0.33478  1.0000
  H   H12       1.0  0.04038  0.69891  0.33391  1.0000
  N   N5        1.0  0.14404  0.74164  0.28084  1.0000
  C   C24       1.0  0.11342  0.73912  0.27781  1.0000
  H   H13       1.0  0.10159  0.73478  0.21682  1.0000
  N   N6        1.0  0.11343  0.87376  0.28099  1.0000
  C   C25       1.0  0.14150  0.90440  0.27782  1.0000
  H   H14       1.0  0.14891  0.91620  0.21678  1.0000
  C   C26       1.0  0.10297  0.75084  0.35219  1.0000
  N   N7        1.0  0.12372  0.76129  0.42489  1.0000
  C   C27       1.0  0.15210  0.75996  0.43250  1.0000
  H   H15       1.0  0.14419  0.73524  0.59720  1.0000
  C   C28       1.0  0.10291  0.85369  0.35550  1.0000
  N   N8        1.0  0.15352  0.89420  0.42469  1.0000
  C   C29       1.0  0.12386  0.86577  0.43253  1.0000
  O   O2        1.0  0.11941  0.84655  0.50712  1.0000
  C   C30       1.0  0.09743  0.84825  0.57253  1.0000
  H   H16       1.0  0.09547  0.83255  0.62974  1.0000
  H   H17       1.0  0.07250  0.83897  0.54472  1.0000
  H   H18       1.0  0.10713  0.87363  0.59737  1.0000
  N   N9        1.0  0.24630  0.10871  0.28106  1.0000
  C   C31       1.0  0.24370  0.13676  0.27781  1.0000
  H   H19       1.0  0.23922  0.14410  0.21678  1.0000
  C   C32       1.0  0.25233  0.26554  0.32858  1.0000
  C   C33       1.0  0.21666  0.24785  0.33185  1.0000
  C   C34       1.0  0.19898  0.26545  0.34171  1.0000
  C   C35       1.0  0.21768  0.30050  0.34603  1.0000
  C   C36       1.0  0.25273  0.31908  0.34066  1.0000
  C   C37       1.0  0.19979  0.21271  0.33145  1.0000
  H   H20       1.0  0.20493  0.31327  0.35099  1.0000
  C   C38       1.0  0.25229  0.21187  0.33108  1.0000
  C   C39       1.0  0.21716  0.19518  0.33090  1.0000
  H   H21       1.0  0.20354  0.16976  0.33384  1.0000
  H   H22       1.0  0.17437  0.19922  0.33463  1.0000
  C   C40       1.0  0.25226  0.48865  0.32872  1.0000
  C   C41       1.0  0.25226  0.43536  0.34238  1.0000
  C   C42       1.0  0.21720  0.41906  0.34644  1.0000
  C   C43       1.0  0.19868  0.43557  0.34080  1.0000
  C   C44       1.0  0.21658  0.47087  0.33119  1.0000
  C   C45       1.0  0.19993  0.48935  0.33093  1.0000
  H   H23       1.0  0.20438  0.39352  0.35130  1.0000
  C   C46       1.0  0.25265  0.04247  0.33198  1.0000
  C   C47       1.0  0.21751  0.02425  0.33149  1.0000
  H   H24       1.0  0.20405  0.03621  0.33479  1.0000
  H   H25       1.0  0.17452  0.47758  0.33401  1.0000
  C   C48       1.0  0.16414  0.25111  0.35532  1.0000
  O   O3        1.0  0.17137  0.27463  0.50709  1.0000
  C   C49       1.0  0.16958  0.25087  0.57234  1.0000
  H   H26       1.0  0.18532  0.26453  0.62957  1.0000
  H   H27       1.0  0.17876  0.23516  0.54438  1.0000
  C   C50       1.0  0.26654  0.41476  0.35543  1.0000
  C   C51       1.0  0.26701  0.35401  0.35207  1.0000
  N   N10       1.0  0.25627  0.36407  0.42470  1.0000
  C   C52       1.0  0.25741  0.39369  0.43234  1.0000
  O   O4        1.0  0.24269  0.39826  0.50688  1.0000
  C   C53       1.0  0.26640  0.41999  0.57258  1.0000
  H   H28       1.0  0.25270  0.42207  0.62971  1.0000
  C   C54       1.0  0.16375  0.41499  0.35199  1.0000
  C   C55       1.0  0.25598  0.09828  0.35552  1.0000
  C   C56       1.0  0.25543  0.15908  0.35183  1.0000
  N   N11       1.0  0.26608  0.14893  0.42449  1.0000
  C   C57       1.0  0.26491  0.11930  0.43243  1.0000
  C   C58       1.0  0.25613  0.09300  0.57259  1.0000
  H   H29       1.0  0.24046  0.06805  0.54497  1.0000
  H   H30       1.0  0.24046  0.10272  0.59744  1.0000
  N   N12       1.0  0.24630  0.60871  0.28106  1.0000
  C   C59       1.0  0.24370  0.63676  0.27781  1.0000
  H   H31       1.0  0.23922  0.64410  0.21678  1.0000
  C   C60       1.0  0.25233  0.76554  0.32858  1.0000
  C   C61       1.0  0.21666  0.74785  0.33185  1.0000
  C   C62       1.0  0.19898  0.76545  0.34171  1.0000
  C   C63       1.0  0.21769  0.80050  0.34603  1.0000
  C   C64       1.0  0.25273  0.81908  0.34066  1.0000
  C   C65       1.0  0.19979  0.71271  0.33145  1.0000
  H   H32       1.0  0.20493  0.81327  0.35099  1.0000
  C   C66       1.0  0.25229  0.71187  0.33108  1.0000
  C   C67       1.0  0.21716  0.69518  0.33090  1.0000
  H   H33       1.0  0.20354  0.66976  0.33384  1.0000
  H   H34       1.0  0.17437  0.69922  0.33463  1.0000
  C   C68       1.0  0.25226  0.98865  0.32872  1.0000
  C   C69       1.0  0.25226  0.93536  0.34238  1.0000
  C   C70       1.0  0.21720  0.91906  0.34644  1.0000
  C   C71       1.0  0.19868  0.93557  0.34080  1.0000
  C   C72       1.0  0.21658  0.97087  0.33119  1.0000
  C   C73       1.0  0.19993  0.98935  0.33093  1.0000
  H   H35       1.0  0.20437  0.89352  0.35130  1.0000
  C   C74       1.0  0.25265  0.54247  0.33198  1.0000
  C   C75       1.0  0.21751  0.52425  0.33149  1.0000
  H   H36       1.0  0.20405  0.53621  0.33479  1.0000
  H   H37       1.0  0.17451  0.97758  0.33401  1.0000
  C   C76       1.0  0.16414  0.75111  0.35532  1.0000
  O   O5        1.0  0.17137  0.77463  0.50709  1.0000
  C   C77       1.0  0.16958  0.75087  0.57234  1.0000
  H   H38       1.0  0.18532  0.76453  0.62957  1.0000
  H   H39       1.0  0.17876  0.73516  0.54438  1.0000
  C   C78       1.0  0.26654  0.91476  0.35543  1.0000
  C   C79       1.0  0.26701  0.85401  0.35207  1.0000
  N   N13       1.0  0.25627  0.86407  0.42470  1.0000
  C   C80       1.0  0.25741  0.89369  0.43234  1.0000
  O   O6        1.0  0.24269  0.89826  0.50688  1.0000
  C   C81       1.0  0.26640  0.92000  0.57258  1.0000
  H   H40       1.0  0.25270  0.92206  0.62971  1.0000
  C   C82       1.0  0.16375  0.91499  0.35199  1.0000
  C   C83       1.0  0.25598  0.59828  0.35552  1.0000
  C   C84       1.0  0.25543  0.65908  0.35183  1.0000
  N   N14       1.0  0.26608  0.64893  0.42449  1.0000
  C   C85       1.0  0.26491  0.61930  0.43243  1.0000
  C   C86       1.0  0.25613  0.59300  0.57259  1.0000
  H   H41       1.0  0.24046  0.56805  0.54497  1.0000
  H   H42       1.0  0.24046  0.60272  0.59744  1.0000
  N   N15       1.0  0.27639  0.40444  0.28114  1.0000
  C   C87       1.0  0.27881  0.37629  0.27801  1.0000
  H   H43       1.0  0.28370  0.36908  0.21730  1.0000
  C   C88       1.0  0.27018  0.30123  0.33111  1.0000
  C   C89       1.0  0.30532  0.31791  0.33102  1.0000
  C   C90       1.0  0.27014  0.24755  0.32862  1.0000
  C   C91       1.0  0.26973  0.19400  0.34045  1.0000
  C   C92       1.0  0.30476  0.21257  0.34606  1.0000
  C   C93       1.0  0.32348  0.24763  0.34214  1.0000
  C   C94       1.0  0.30581  0.26524  0.33201  1.0000
  H   H44       1.0  0.31750  0.19977  0.35087  1.0000
  C   C95       1.0  0.32269  0.30038  0.33158  1.0000
  H   H45       1.0  0.31893  0.34333  0.33411  1.0000
  C   C96       1.0  0.26991  0.47063  0.33213  1.0000
  C   C97       1.0  0.30505  0.48885  0.33165  1.0000
  C   C98       1.0  0.27029  0.02445  0.32870  1.0000
  C   C99       1.0  0.30598  0.04224  0.33124  1.0000
  C   C100      1.0  0.32387  0.07754  0.34090  1.0000
  C   C101      1.0  0.30533  0.09404  0.34643  1.0000
  C   C102      1.0  0.27028  0.07774  0.34209  1.0000
  C   C103      1.0  0.32263  0.02376  0.33103  1.0000
  H   H46       1.0  0.31814  0.11957  0.35143  1.0000
  H   H47       1.0  0.31850  0.47689  0.33504  1.0000
  H   H48       1.0  0.28230  0.44492  0.54502  1.0000
  H   H49       1.0  0.28184  0.41002  0.59747  1.0000
  H   H50       1.0  0.33714  0.24806  0.62951  1.0000
  H   H51       1.0  0.34391  0.27768  0.54485  1.0000
  O   O7        1.0  0.27975  0.11492  0.50697  1.0000
  H   H52       1.0  0.26992  0.09110  0.62975  1.0000
  N   N16       1.0  0.27639  0.90444  0.28114  1.0000
  C   C104      1.0  0.27881  0.87629  0.27801  1.0000
  H   H53       1.0  0.28370  0.86908  0.21730  1.0000
  C   C105      1.0  0.27018  0.80122  0.33111  1.0000
  C   C106      1.0  0.30532  0.81791  0.33102  1.0000
  C   C107      1.0  0.27014  0.74755  0.32862  1.0000
  C   C108      1.0  0.26973  0.69400  0.34045  1.0000
  C   C109      1.0  0.30476  0.71257  0.34606  1.0000
  C   C110      1.0  0.32348  0.74763  0.34214  1.0000
  C   C111      1.0  0.30581  0.76524  0.33201  1.0000
  H   H54       1.0  0.31750  0.69977  0.35087  1.0000
  C   C112      1.0  0.32269  0.80038  0.33158  1.0000
  H   H55       1.0  0.31893  0.84333  0.33411  1.0000
  C   C113      1.0  0.26991  0.97063  0.33213  1.0000
  C   C114      1.0  0.30505  0.98885  0.33165  1.0000
  C   C115      1.0  0.27029  0.52445  0.32870  1.0000
  C   C116      1.0  0.30598  0.54224  0.33124  1.0000
  C   C117      1.0  0.32387  0.57754  0.34090  1.0000
  C   C118      1.0  0.30533  0.59404  0.34643  1.0000
  C   C119      1.0  0.27028  0.57774  0.34209  1.0000
  C   C120      1.0  0.32263  0.52376  0.33103  1.0000
  H   H56       1.0  0.31814  0.61957  0.35143  1.0000
  H   H57       1.0  0.31850  0.97689  0.33504  1.0000
  H   H58       1.0  0.28230  0.94492  0.54502  1.0000
  H   H59       1.0  0.28184  0.91002  0.59747  1.0000
  H   H60       1.0  0.33714  0.74806  0.62951  1.0000
  H   H61       1.0  0.34391  0.77767  0.54485  1.0000
  O   O8        1.0  0.27975  0.61492  0.50697  1.0000
  H   H62       1.0  0.26992  0.59109  0.62975  1.0000
  C   C121      1.0  0.49337  0.24769  0.32868  1.0000
  C   C122      1.0  0.47553  0.26554  0.33118  1.0000
  C   C123      1.0  0.44023  0.24810  0.34061  1.0000
  C   C124      1.0  0.42378  0.21306  0.34627  1.0000
  C   C125      1.0  0.44014  0.19436  0.34214  1.0000
  C   C126      1.0  0.47540  0.21203  0.33203  1.0000
  C   C127      1.0  0.49397  0.30067  0.33093  1.0000
  H   H63       1.0  0.39825  0.20030  0.35108  1.0000
  C   C128      1.0  0.49367  0.19515  0.33154  1.0000
  H   H64       1.0  0.48217  0.31429  0.33403  1.0000
  H   H65       1.0  0.48174  0.16973  0.33477  1.0000
  N   N17       1.0  0.37854  0.27177  0.28099  1.0000
  C   C129      1.0  0.40911  0.27418  0.27791  1.0000
  H   H66       1.0  0.42121  0.27906  0.21722  1.0000
  N   N18       1.0  0.40919  0.13933  0.28092  1.0000
  C   C130      1.0  0.38104  0.10875  0.27793  1.0000
  H   H67       1.0  0.37378  0.09669  0.21718  1.0000
  H   H68       1.0  0.34810  0.31386  0.33498  1.0000
  H   H69       1.0  0.34804  0.03553  0.33419  1.0000
  C   C131      1.0  0.35836  0.26194  0.35527  1.0000
  C   C132      1.0  0.41957  0.26237  0.35200  1.0000
  N   N19       1.0  0.39876  0.25165  0.42461  1.0000
  C   C133      1.0  0.37029  0.25281  0.43220  1.0000
  O   O9        1.0  0.35097  0.23807  0.50670  1.0000
  C   C134      1.0  0.35293  0.26178  0.57242  1.0000
  H   H70       1.0  0.37834  0.27721  0.59736  1.0000
  C   C135      1.0  0.41959  0.15947  0.35524  1.0000
  C   C136      1.0  0.35880  0.09814  0.35212  1.0000
  N   N20       1.0  0.36900  0.11901  0.42466  1.0000
  C   C137      1.0  0.39861  0.14750  0.43227  1.0000
  O   O10       1.0  0.40320  0.16678  0.50685  1.0000
  C   C138      1.0  0.42499  0.16483  0.57240  1.0000
  H   H71       1.0  0.42708  0.18060  0.62959  1.0000
  H   H72       1.0  0.44991  0.17389  0.54473  1.0000
  H   H73       1.0  0.41506  0.13942  0.59726  1.0000
  C   C139      1.0  0.49337  0.74769  0.32868  1.0000
  C   C140      1.0  0.47553  0.76554  0.33118  1.0000
  C   C141      1.0  0.44023  0.74810  0.34061  1.0000
  C   C142      1.0  0.42378  0.71306  0.34627  1.0000
  C   C143      1.0  0.44014  0.69435  0.34214  1.0000
  C   C144      1.0  0.47540  0.71203  0.33203  1.0000
  C   C145      1.0  0.49397  0.80067  0.33093  1.0000
  H   H74       1.0  0.39825  0.70030  0.35108  1.0000
  C   C146      1.0  0.49367  0.69515  0.33154  1.0000
  H   H75       1.0  0.48217  0.81429  0.33403  1.0000
  H   H76       1.0  0.48174  0.66973  0.33477  1.0000
  N   N21       1.0  0.37854  0.77177  0.28099  1.0000
  C   C147      1.0  0.40911  0.77418  0.27791  1.0000
  H   H77       1.0  0.42121  0.77906  0.21722  1.0000
  N   N22       1.0  0.40919  0.63933  0.28092  1.0000
  C   C148      1.0  0.38104  0.60875  0.27793  1.0000
  H   H78       1.0  0.37378  0.59669  0.21718  1.0000
  H   H79       1.0  0.34811  0.81387  0.33498  1.0000
  H   H80       1.0  0.34804  0.53553  0.33419  1.0000
  C   C149      1.0  0.35836  0.76194  0.35527  1.0000
  C   C150      1.0  0.41957  0.76237  0.35200  1.0000
  N   N23       1.0  0.39876  0.75165  0.42461  1.0000
  C   C151      1.0  0.37029  0.75281  0.43220  1.0000
  O   O11       1.0  0.35097  0.73808  0.50670  1.0000
  C   C152      1.0  0.35293  0.76178  0.57242  1.0000
  H   H81       1.0  0.37834  0.77721  0.59736  1.0000
  C   C153      1.0  0.41959  0.65947  0.35524  1.0000
  C   C154      1.0  0.35880  0.59814  0.35212  1.0000
  N   N24       1.0  0.36900  0.61901  0.42466  1.0000
  C   C155      1.0  0.39861  0.64750  0.43227  1.0000
  O   O12       1.0  0.40320  0.66679  0.50685  1.0000
  C   C156      1.0  0.42499  0.66483  0.57240  1.0000
  H   H82       1.0  0.42708  0.68059  0.62959  1.0000
  H   H83       1.0  0.44991  0.67389  0.54473  1.0000
  H   H84       1.0  0.41506  0.63942  0.59726  1.0000
  C   C157      1.0  0.52917  0.26550  0.32866  1.0000
  C   C158      1.0  0.54715  0.30117  0.33200  1.0000
  C   C159      1.0  0.58242  0.31884  0.34195  1.0000
  C   C160      1.0  0.59877  0.30014  0.34644  1.0000
  C   C161      1.0  0.58231  0.26510  0.34072  1.0000
  C   C162      1.0  0.54701  0.24766  0.33112  1.0000
  C   C163      1.0  0.52888  0.31804  0.33162  1.0000
  C   C164      1.0  0.52857  0.21252  0.33091  1.0000
  H   H85       1.0  0.62430  0.31289  0.35152  1.0000
  C   C165      1.0  0.99337  0.24769  0.32868  1.0000
  C   C166      1.0  0.97554  0.26554  0.33118  1.0000
  C   C167      1.0  0.94023  0.24810  0.34061  1.0000
  C   C168      1.0  0.92378  0.21306  0.34627  1.0000
  C   C169      1.0  0.94014  0.19436  0.34214  1.0000
  C   C170      1.0  0.97540  0.21203  0.33203  1.0000
  C   C171      1.0  0.99397  0.30067  0.33093  1.0000
  H   H86       1.0  0.89825  0.20030  0.35108  1.0000
  C   C172      1.0  0.99367  0.19515  0.33154  1.0000
  H   H87       1.0  0.98217  0.31429  0.33403  1.0000
  H   H88       1.0  0.54081  0.34346  0.33478  1.0000
  H   H89       1.0  0.98174  0.16973  0.33477  1.0000
  H   H90       1.0  0.54038  0.19891  0.33391  1.0000
  N   N25       1.0  0.64404  0.24165  0.28084  1.0000
  C   C173      1.0  0.61342  0.23913  0.27781  1.0000
  H   H91       1.0  0.60159  0.23478  0.21682  1.0000
  N   N26       1.0  0.77639  0.40444  0.28114  1.0000
  C   C174      1.0  0.77881  0.37629  0.27801  1.0000
  H   H92       1.0  0.78370  0.36908  0.21730  1.0000
  N   N27       1.0  0.61343  0.37376  0.28099  1.0000
  C   C175      1.0  0.64150  0.40441  0.27782  1.0000
  H   H93       1.0  0.64891  0.41620  0.21678  1.0000
  N   N28       1.0  0.87854  0.27177  0.28099  1.0000
  C   C176      1.0  0.90911  0.27418  0.27791  1.0000
  H   H94       1.0  0.92121  0.27906  0.21722  1.0000
  N   N29       1.0  0.74631  0.10871  0.28106  1.0000
  C   C177      1.0  0.74370  0.13676  0.27781  1.0000
  H   H95       1.0  0.73922  0.14410  0.21678  1.0000
  N   N30       1.0  0.90919  0.13933  0.28092  1.0000
  C   C178      1.0  0.88104  0.10875  0.27793  1.0000
  H   H96       1.0  0.87378  0.09669  0.21718  1.0000
  C   C179      1.0  0.75233  0.26554  0.32858  1.0000
  C   C180      1.0  0.71666  0.24785  0.33185  1.0000
  C   C181      1.0  0.69898  0.26545  0.34171  1.0000
  C   C182      1.0  0.71768  0.30050  0.34603  1.0000
  C   C183      1.0  0.75273  0.31908  0.34066  1.0000
  C   C184      1.0  0.77018  0.30123  0.33111  1.0000
  C   C185      1.0  0.69979  0.21271  0.33145  1.0000
  C   C186      1.0  0.80532  0.31791  0.33102  1.0000
  H   H97       1.0  0.70493  0.31327  0.35099  1.0000
  C   C187      1.0  0.77014  0.24755  0.32862  1.0000
  C   C188      1.0  0.75229  0.21187  0.33108  1.0000
  C   C189      1.0  0.76973  0.19400  0.34045  1.0000
  C   C190      1.0  0.80476  0.21257  0.34606  1.0000
  C   C191      1.0  0.82348  0.24763  0.34214  1.0000
  C   C192      1.0  0.80581  0.26524  0.33201  1.0000
  C   C193      1.0  0.71716  0.19518  0.33090  1.0000
  H   H98       1.0  0.81751  0.19977  0.35087  1.0000
  C   C194      1.0  0.82269  0.30038  0.33158  1.0000
  H   H99       1.0  0.70354  0.16976  0.33384  1.0000
  H   H100      1.0  0.67437  0.19922  0.33463  1.0000
  H   H101      1.0  0.84810  0.31386  0.33498  1.0000
  H   H102      1.0  0.81893  0.34333  0.33411  1.0000
  C   C195      1.0  0.75227  0.48865  0.32872  1.0000
  C   C196      1.0  0.76991  0.47063  0.33213  1.0000
  C   C197      1.0  0.75226  0.43536  0.34238  1.0000
  C   C198      1.0  0.71720  0.41906  0.34644  1.0000
  C   C199      1.0  0.69868  0.43557  0.34080  1.0000
  C   C200      1.0  0.71658  0.47087  0.33119  1.0000
  C   C201      1.0  0.80505  0.48885  0.33165  1.0000
  C   C202      1.0  0.69993  0.48935  0.33093  1.0000
  H   H103      1.0  0.70438  0.39352  0.35130  1.0000
  C   C203      1.0  0.77029  0.02445  0.32870  1.0000
  C   C204      1.0  0.80598  0.04224  0.33124  1.0000
  C   C205      1.0  0.82387  0.07754  0.34090  1.0000
  C   C206      1.0  0.80533  0.09404  0.34643  1.0000
  C   C207      1.0  0.77028  0.07774  0.34209  1.0000
  C   C208      1.0  0.75265  0.04247  0.33198  1.0000
  C   C209      1.0  0.82263  0.02376  0.33103  1.0000
  H   H104      1.0  0.81814  0.11957  0.35143  1.0000
  C   C210      1.0  0.71751  0.02425  0.33149  1.0000
  H   H105      1.0  0.84804  0.03553  0.33419  1.0000
  H   H106      1.0  0.81850  0.47689  0.33504  1.0000
  H   H107      1.0  0.70405  0.03621  0.33479  1.0000
  H   H108      1.0  0.67452  0.47758  0.33401  1.0000
  C   C211      1.0  0.66414  0.25111  0.35532  1.0000
  C   C212      1.0  0.60297  0.25084  0.35219  1.0000
  N   N31       1.0  0.62372  0.26129  0.42489  1.0000
  C   C213      1.0  0.65211  0.25996  0.43250  1.0000
  O   O13       1.0  0.67137  0.27463  0.50709  1.0000
  C   C214      1.0  0.66958  0.25087  0.57234  1.0000
  H   H109      1.0  0.68532  0.26453  0.62957  1.0000
  H   H110      1.0  0.67876  0.23516  0.54438  1.0000
  H   H111      1.0  0.64419  0.23525  0.59720  1.0000
  C   C215      1.0  0.76654  0.41476  0.35543  1.0000
  C   C216      1.0  0.76701  0.35401  0.35207  1.0000
  N   N32       1.0  0.75627  0.36407  0.42470  1.0000
  C   C217      1.0  0.75741  0.39369  0.43234  1.0000
  O   O14       1.0  0.74269  0.39826  0.50688  1.0000
  C   C218      1.0  0.76640  0.41999  0.57258  1.0000
  H   H112      1.0  0.75270  0.42207  0.62971  1.0000
  H   H113      1.0  0.78230  0.44492  0.54502  1.0000
  H   H114      1.0  0.78184  0.41002  0.59747  1.0000
  C   C219      1.0  0.60291  0.35369  0.35550  1.0000
  C   C220      1.0  0.66375  0.41499  0.35199  1.0000
  N   N33       1.0  0.65352  0.39421  0.42469  1.0000
  C   C221      1.0  0.62386  0.36577  0.43253  1.0000
  O   O15       1.0  0.61941  0.34655  0.50712  1.0000
  C   C222      1.0  0.59743  0.34825  0.57253  1.0000
  H   H115      1.0  0.59547  0.33255  0.62974  1.0000
  H   H116      1.0  0.57250  0.33897  0.54472  1.0000
  H   H117      1.0  0.60713  0.37363  0.59737  1.0000
  C   C223      1.0  0.85836  0.26194  0.35527  1.0000
  C   C224      1.0  0.91957  0.26237  0.35200  1.0000
  N   N34       1.0  0.89876  0.25165  0.42461  1.0000
  C   C225      1.0  0.87029  0.25281  0.43220  1.0000
  O   O16       1.0  0.85097  0.23807  0.50670  1.0000
  C   C226      1.0  0.85293  0.26178  0.57242  1.0000
  H   H118      1.0  0.83714  0.24806  0.62951  1.0000
  H   H119      1.0  0.84391  0.27768  0.54485  1.0000
  H   H120      1.0  0.87834  0.27721  0.59736  1.0000
  C   C227      1.0  0.75598  0.09828  0.35552  1.0000
  C   C228      1.0  0.75543  0.15908  0.35183  1.0000
  N   N35       1.0  0.76608  0.14893  0.42449  1.0000
  C   C229      1.0  0.76491  0.11930  0.43243  1.0000
  O   O17       1.0  0.77975  0.11492  0.50697  1.0000
  C   C230      1.0  0.75613  0.09300  0.57259  1.0000
  H   H121      1.0  0.76992  0.09110  0.62975  1.0000
  H   H122      1.0  0.74046  0.06805  0.54497  1.0000
  H   H123      1.0  0.74046  0.10272  0.59744  1.0000
  C   C231      1.0  0.91959  0.15947  0.35524  1.0000
  C   C232      1.0  0.85880  0.09814  0.35212  1.0000
  N   N36       1.0  0.86900  0.11901  0.42466  1.0000
  C   C233      1.0  0.89861  0.14750  0.43227  1.0000
  O   O18       1.0  0.90320  0.16678  0.50685  1.0000
  C   C234      1.0  0.92500  0.16483  0.57240  1.0000
  H   H124      1.0  0.92708  0.18060  0.62959  1.0000
  H   H125      1.0  0.94991  0.17389  0.54473  1.0000
  H   H126      1.0  0.91506  0.13942  0.59726  1.0000
  C   C235      1.0  0.52917  0.76550  0.32866  1.0000
  C   C236      1.0  0.54714  0.80116  0.33200  1.0000
  C   C237      1.0  0.58242  0.81884  0.34195  1.0000
  C   C238      1.0  0.59877  0.80013  0.34644  1.0000
  C   C239      1.0  0.58231  0.76511  0.34072  1.0000
  C   C240      1.0  0.54701  0.74766  0.33112  1.0000
  C   C241      1.0  0.52888  0.81804  0.33162  1.0000
  C   C242      1.0  0.52857  0.71252  0.33091  1.0000
  H   H127      1.0  0.62430  0.81288  0.35152  1.0000
  C   C243      1.0  0.99337  0.74769  0.32868  1.0000
  C   C244      1.0  0.97554  0.76554  0.33118  1.0000
  C   C245      1.0  0.94023  0.74810  0.34061  1.0000
  C   C246      1.0  0.92378  0.71306  0.34627  1.0000
  C   C247      1.0  0.94014  0.69435  0.34214  1.0000
  C   C248      1.0  0.97540  0.71203  0.33203  1.0000
  C   C249      1.0  0.99397  0.80067  0.33093  1.0000
  H   H128      1.0  0.89825  0.70030  0.35108  1.0000
  C   C250      1.0  0.99367  0.69515  0.33154  1.0000
  H   H129      1.0  0.98217  0.81429  0.33403  1.0000
  H   H130      1.0  0.54081  0.84346  0.33478  1.0000
  H   H131      1.0  0.98174  0.66973  0.33477  1.0000
  H   H132      1.0  0.54038  0.69891  0.33391  1.0000
  N   N37       1.0  0.64404  0.74164  0.28084  1.0000
  C   C251      1.0  0.61342  0.73912  0.27781  1.0000
  H   H133      1.0  0.60159  0.73478  0.21682  1.0000
  N   N38       1.0  0.77639  0.90444  0.28114  1.0000
  C   C252      1.0  0.77881  0.87629  0.27801  1.0000
  H   H134      1.0  0.78370  0.86908  0.21730  1.0000
  N   N39       1.0  0.61343  0.87376  0.28099  1.0000
  C   C253      1.0  0.64150  0.90440  0.27782  1.0000
  H   H135      1.0  0.64891  0.91620  0.21678  1.0000
  N   N40       1.0  0.87854  0.77177  0.28099  1.0000
  C   C254      1.0  0.90911  0.77418  0.27791  1.0000
  H   H136      1.0  0.92121  0.77906  0.21722  1.0000
  N   N41       1.0  0.74630  0.60871  0.28106  1.0000
  C   C255      1.0  0.74370  0.63676  0.27781  1.0000
  H   H137      1.0  0.73922  0.64410  0.21678  1.0000
  N   N42       1.0  0.90919  0.63933  0.28092  1.0000
  C   C256      1.0  0.88104  0.60875  0.27793  1.0000
  H   H138      1.0  0.87378  0.59669  0.21718  1.0000
  C   C257      1.0  0.75233  0.76554  0.32858  1.0000
  C   C258      1.0  0.71666  0.74785  0.33185  1.0000
  C   C259      1.0  0.69899  0.76545  0.34171  1.0000
  C   C260      1.0  0.71769  0.80050  0.34603  1.0000
  C   C261      1.0  0.75273  0.81908  0.34066  1.0000
  C   C262      1.0  0.77018  0.80122  0.33111  1.0000
  C   C263      1.0  0.69979  0.71271  0.33145  1.0000
  C   C264      1.0  0.80532  0.81791  0.33102  1.0000
  H   H139      1.0  0.70493  0.81327  0.35099  1.0000
  C   C265      1.0  0.77014  0.74755  0.32862  1.0000
  C   C266      1.0  0.75229  0.71187  0.33108  1.0000
  C   C267      1.0  0.76973  0.69400  0.34045  1.0000
  C   C268      1.0  0.80476  0.71257  0.34606  1.0000
  C   C269      1.0  0.82348  0.74763  0.34214  1.0000
  C   C270      1.0  0.80581  0.76524  0.33201  1.0000
  C   C271      1.0  0.71716  0.69518  0.33090  1.0000
  H   H140      1.0  0.81750  0.69977  0.35087  1.0000
  C   C272      1.0  0.82269  0.80038  0.33158  1.0000
  H   H141      1.0  0.70354  0.66976  0.33384  1.0000
  H   H142      1.0  0.67437  0.69922  0.33463  1.0000
  H   H143      1.0  0.84811  0.81387  0.33498  1.0000
  H   H144      1.0  0.81893  0.84333  0.33411  1.0000
  C   C273      1.0  0.75226  0.98865  0.32872  1.0000
  C   C274      1.0  0.76991  0.97063  0.33213  1.0000
  C   C275      1.0  0.75226  0.93536  0.34238  1.0000
  C   C276      1.0  0.71720  0.91906  0.34644  1.0000
  C   C277      1.0  0.69868  0.93557  0.34080  1.0000
  C   C278      1.0  0.71658  0.97087  0.33119  1.0000
  C   C279      1.0  0.80505  0.98885  0.33165  1.0000
  C   C280      1.0  0.69993  0.98935  0.33093  1.0000
  H   H145      1.0  0.70437  0.89352  0.35130  1.0000
  C   C281      1.0  0.77029  0.52445  0.32870  1.0000
  C   C282      1.0  0.80598  0.54224  0.33124  1.0000
  C   C283      1.0  0.82387  0.57754  0.34090  1.0000
  C   C284      1.0  0.80533  0.59404  0.34643  1.0000
  C   C285      1.0  0.77028  0.57774  0.34209  1.0000
  C   C286      1.0  0.75265  0.54247  0.33198  1.0000
  C   C287      1.0  0.82263  0.52376  0.33103  1.0000
  H   H146      1.0  0.81814  0.61957  0.35143  1.0000
  C   C288      1.0  0.71751  0.52425  0.33149  1.0000
  H   H147      1.0  0.84804  0.53553  0.33419  1.0000
  H   H148      1.0  0.81850  0.97689  0.33504  1.0000
  H   H149      1.0  0.70405  0.53621  0.33479  1.0000
  H   H150      1.0  0.67451  0.97758  0.33401  1.0000
  C   C289      1.0  0.66414  0.75111  0.35532  1.0000
  C   C290      1.0  0.60297  0.75084  0.35219  1.0000
  N   N43       1.0  0.62372  0.76129  0.42489  1.0000
  C   C291      1.0  0.65210  0.75996  0.43250  1.0000
  O   O19       1.0  0.67137  0.77463  0.50709  1.0000
  C   C292      1.0  0.66958  0.75087  0.57234  1.0000
  H   H151      1.0  0.68532  0.76453  0.62957  1.0000
  H   H152      1.0  0.67876  0.73516  0.54438  1.0000
  H   H153      1.0  0.64419  0.73524  0.59720  1.0000
  C   C293      1.0  0.76654  0.91476  0.35543  1.0000
  C   C294      1.0  0.76701  0.85401  0.35207  1.0000
  N   N44       1.0  0.75627  0.86407  0.42470  1.0000
  C   C295      1.0  0.75741  0.89369  0.43234  1.0000
  O   O20       1.0  0.74269  0.89826  0.50688  1.0000
  C   C296      1.0  0.76640  0.92000  0.57258  1.0000
  H   H154      1.0  0.75270  0.92206  0.62971  1.0000
  H   H155      1.0  0.78230  0.94492  0.54502  1.0000
  H   H156      1.0  0.78184  0.91002  0.59747  1.0000
  C   C297      1.0  0.60291  0.85369  0.35550  1.0000
  C   C298      1.0  0.66375  0.91499  0.35199  1.0000
  N   N45       1.0  0.65352  0.89420  0.42469  1.0000
  C   C299      1.0  0.62386  0.86577  0.43253  1.0000
  O   O21       1.0  0.61941  0.84655  0.50712  1.0000
  C   C300      1.0  0.59743  0.84825  0.57253  1.0000
  H   H157      1.0  0.59547  0.83255  0.62974  1.0000
  H   H158      1.0  0.57250  0.83897  0.54472  1.0000
  H   H159      1.0  0.60713  0.87363  0.59737  1.0000
  C   C301      1.0  0.85836  0.76194  0.35527  1.0000
  C   C302      1.0  0.91957  0.76237  0.35200  1.0000
  N   N46       1.0  0.89876  0.75165  0.42461  1.0000
  C   C303      1.0  0.87029  0.75281  0.43220  1.0000
  O   O22       1.0  0.85097  0.73808  0.50670  1.0000
  C   C304      1.0  0.85293  0.76178  0.57242  1.0000
  H   H160      1.0  0.83714  0.74806  0.62951  1.0000
  H   H161      1.0  0.84391  0.77767  0.54485  1.0000
  H   H162      1.0  0.87834  0.77721  0.59736  1.0000
  C   C305      1.0  0.75598  0.59828  0.35552  1.0000
  C   C306      1.0  0.75543  0.65908  0.35183  1.0000
  N   N47       1.0  0.76608  0.64893  0.42449  1.0000
  C   C307      1.0  0.76491  0.61930  0.43243  1.0000
  O   O23       1.0  0.77975  0.61492  0.50697  1.0000
  C   C308      1.0  0.75613  0.59300  0.57259  1.0000
  H   H163      1.0  0.76993  0.59109  0.62975  1.0000
  H   H164      1.0  0.74046  0.56805  0.54497  1.0000
  H   H165      1.0  0.74046  0.60272  0.59744  1.0000
  C   C309      1.0  0.91960  0.65947  0.35524  1.0000
  C   C310      1.0  0.85880  0.59814  0.35212  1.0000
  N   N48       1.0  0.86900  0.61901  0.42466  1.0000
  C   C311      1.0  0.89861  0.64750  0.43227  1.0000
  O   O24       1.0  0.90320  0.66679  0.50685  1.0000
  C   C312      1.0  0.92499  0.66483  0.57240  1.0000
  H   H166      1.0  0.92708  0.68059  0.62959  1.0000
  H   H167      1.0  0.94991  0.67389  0.54473  1.0000
  H   H168      1.0  0.91506  0.63942  0.59726  1.0000
