data_image0
_chemical_formula_structural       C3HOHC3HOHC3HOHC3HOHC3HOHC3HOHC3OH2C3OH2C3OH2C3OH2C3OH2C3OH2C3OH2C3OH2C3OH2C3OH2C3OH2C3OH2CNCNCNC18H12CNCNCNC18H12CNCNCNC18H12CNCNCNC18H12CNCNCNC18H12CNCNCNC18H12CNCNCNC18H12CNCNCNC18H12CNCNCNC18H12CNCNCNC18H12CNCNCNC18H12CNCNCNC18H12C3OH2C3OH2C3OH2C3OH2C3OH2C3OH2C3HOHC3HOHC3HOHC3HOHC3HOHC3HOHC3HOHC3HOHC3HOHC3HOHC3HOHC3HOH
_chemical_formula_sum              "C360 H216 O36 N36"
_cell_length_a       74.5393
_cell_length_b       74.5394
_cell_length_c       15.0067
_cell_angle_alpha    90
_cell_angle_beta     90
_cell_angle_gamma    120

_space_group_name_H-M_alt    "P 1"
_space_group_IT_number       1

loop_
  _space_group_symop_operation_xyz
  'x, y, z'

loop_
  _atom_site_type_symbol
  _atom_site_label
  _atom_site_symmetry_multiplicity
  _atom_site_fract_x
  _atom_site_fract_y
  _atom_site_fract_z
  _atom_site_occupancy
  C   C1        1.0  0.19508  0.37528  0.26399  1.0000
  C   C2        1.0  0.20592  0.39709  0.26077  1.0000
  C   C3        1.0  0.20411  0.40868  0.33155  1.0000
  H   H1        1.0  0.19648  0.36727  0.21156  1.0000
  O   O1        1.0  0.21788  0.40638  0.18784  1.0000
  H   H2        1.0  0.20963  0.41005  0.14868  1.0000
  C   C4        1.0  0.61075  0.79051  0.26224  1.0000
  C   C5        1.0  0.58893  0.77966  0.25976  1.0000
  C   C6        1.0  0.57748  0.78198  0.32977  1.0000
  H   H3        1.0  0.61865  0.78876  0.21032  1.0000
  O   O2        1.0  0.57947  0.76718  0.18837  1.0000
  H   H4        1.0  0.57580  0.77517  0.14768  1.0000
  C   C7        1.0  0.17980  0.79083  0.26057  1.0000
  C   C8        1.0  0.19080  0.78002  0.25813  1.0000
  C   C9        1.0  0.20412  0.78190  0.32940  1.0000
  H   H5        1.0  0.17046  0.78939  0.20778  1.0000
  O   O3        1.0  0.18826  0.76803  0.18546  1.0000
  H   H6        1.0  0.20023  0.77627  0.14655  1.0000
  C   C10       1.0  0.81074  0.60622  0.26143  1.0000
  C   C11       1.0  0.79980  0.58441  0.25911  1.0000
  C   C12       1.0  0.78613  0.57297  0.32942  1.0000
  H   H7        1.0  0.82034  0.61412  0.20931  1.0000
  O   O4        1.0  0.80275  0.57493  0.18760  1.0000
  H   H8        1.0  0.79102  0.57121  0.14721  1.0000
  C   C13       1.0  0.37966  0.17669  0.26084  1.0000
  C   C14       1.0  0.40147  0.18769  0.25791  1.0000
  C   C15       1.0  0.41302  0.19985  0.33175  1.0000
  H   H9        1.0  0.37168  0.16808  0.20652  1.0000
  O   O5        1.0  0.41082  0.18619  0.18257  1.0000
  H   H10       1.0  0.41458  0.19872  0.14752  1.0000
  C   C16       1.0  0.81075  0.19077  0.26242  1.0000
  C   C17       1.0  0.79977  0.20160  0.25958  1.0000
  C   C18       1.0  0.78642  0.19978  0.33063  1.0000
  H   H11       1.0  0.82010  0.19216  0.20977  1.0000
  O   O6        1.0  0.80236  0.21356  0.18674  1.0000
  H   H12       1.0  0.79042  0.20531  0.14771  1.0000
  C   C19       1.0  0.19286  0.17711  0.26072  1.0000
  C   C20       1.0  0.18211  0.18816  0.25703  1.0000
  C   C21       1.0  0.18220  0.19990  0.33149  1.0000
  O   O7        1.0  0.17181  0.18712  0.18054  1.0000
  H   H13       1.0  0.19265  0.16881  0.20591  1.0000
  H   H14       1.0  0.18088  0.19980  0.14691  1.0000
  C   C22       1.0  0.79727  0.00197  0.25892  1.0000
  C   C23       1.0  0.78616  0.98014  0.25721  1.0000
  C   C24       1.0  0.78640  0.96876  0.33239  1.0000
  O   O8        1.0  0.77667  0.97033  0.18005  1.0000
  H   H15       1.0  0.79740  0.00989  0.20289  1.0000
  H   H16       1.0  0.76448  0.97201  0.17298  1.0000
  C   C25       1.0  0.98388  0.78090  0.25785  1.0000
  C   C26       1.0  0.00572  0.79154  0.25581  1.0000
  C   C27       1.0  0.01719  0.80391  0.32928  1.0000
  O   O9        1.0  0.01543  0.79105  0.17966  1.0000
  H   H17       1.0  0.97592  0.77260  0.20283  1.0000
  H   H18       1.0  0.01365  0.77709  0.17562  1.0000
  C   C28       1.0  0.78689  0.79365  0.25737  1.0000
  C   C29       1.0  0.79763  0.78256  0.25593  1.0000
  C   C30       1.0  0.80832  0.78195  0.33291  1.0000
  O   O10       1.0  0.79886  0.77390  0.17785  1.0000
  H   H19       1.0  0.77975  0.79441  0.20033  1.0000
  H   H20       1.0  0.78521  0.76158  0.16815  1.0000
  C   C31       1.0  0.19378  0.97941  0.25896  1.0000
  C   C32       1.0  0.20494  0.00124  0.25592  1.0000
  C   C33       1.0  0.20424  0.01288  0.32914  1.0000
  O   O11       1.0  0.21491  0.01077  0.17910  1.0000
  H   H21       1.0  0.19397  0.97133  0.20412  1.0000
  H   H22       1.0  0.22711  0.00903  0.17460  1.0000
  C   C34       1.0  0.00641  0.18840  0.25951  1.0000
  C   C35       1.0  0.98460  0.17762  0.25695  1.0000
  C   C36       1.0  0.97315  0.17760  0.33237  1.0000
  O   O12       1.0  0.97512  0.16739  0.18061  1.0000
  H   H23       1.0  0.01435  0.18828  0.20402  1.0000
  H   H24       1.0  0.97150  0.17654  0.14766  1.0000
  C   C37       1.0  0.21141  0.58744  0.25868  1.0000
  C   C38       1.0  0.21140  0.60614  0.24559  1.0000
  C   C39       1.0  0.21241  0.61837  0.31990  1.0000
  O   O13       1.0  0.21332  0.61326  0.16053  1.0000
  H   H25       1.0  0.21314  0.58016  0.20416  1.0000
  H   H26       1.0  0.20026  0.61287  0.14634  1.0000
  C   C40       1.0  0.39870  0.61043  0.25634  1.0000
  C   C41       1.0  0.37997  0.59172  0.24355  1.0000
  C   C42       1.0  0.36786  0.58049  0.31810  1.0000
  O   O14       1.0  0.37272  0.58656  0.15864  1.0000
  H   H27       1.0  0.40589  0.61943  0.20170  1.0000
  H   H28       1.0  0.37305  0.57387  0.14412  1.0000
  C   C43       1.0  0.37596  0.77505  0.26074  1.0000
  C   C44       1.0  0.39470  0.77507  0.24824  1.0000
  C   C45       1.0  0.40580  0.77399  0.32286  1.0000
  O   O15       1.0  0.40001  0.77320  0.16333  1.0000
  H   H29       1.0  0.36705  0.77336  0.20595  1.0000
  H   H30       1.0  0.41273  0.78624  0.14950  1.0000
  C   C46       1.0  0.77902  0.39422  0.25643  1.0000
  C   C47       1.0  0.77901  0.37548  0.24374  1.0000
  C   C48       1.0  0.77814  0.36339  0.31835  1.0000
  O   O16       1.0  0.77690  0.36821  0.15887  1.0000
  H   H31       1.0  0.77721  0.40139  0.20175  1.0000
  H   H32       1.0  0.78992  0.36854  0.14434  1.0000
  C   C49       1.0  0.59163  0.37139  0.26069  1.0000
  C   C50       1.0  0.61033  0.39014  0.24814  1.0000
  C   C51       1.0  0.62253  0.40125  0.32274  1.0000
  O   O17       1.0  0.61750  0.39546  0.16321  1.0000
  H   H33       1.0  0.58440  0.36247  0.20592  1.0000
  H   H34       1.0  0.61715  0.40817  0.14942  1.0000
  C   C52       1.0  0.61487  0.20696  0.25878  1.0000
  C   C53       1.0  0.59615  0.20695  0.24555  1.0000
  C   C54       1.0  0.58491  0.20795  0.31979  1.0000
  O   O18       1.0  0.59098  0.20886  0.16042  1.0000
  H   H35       1.0  0.62385  0.20865  0.20426  1.0000
  H   H36       1.0  0.57832  0.19578  0.14620  1.0000
  C   C55       1.0  0.13782  0.24395  0.33163  1.0000
  N   N1        1.0  0.14786  0.26500  0.33353  1.0000
  C   C56       1.0  0.13779  0.27598  0.33535  1.0000
  N   N2        1.0  0.11674  0.26495  0.33553  1.0000
  C   C57       1.0  0.10576  0.24390  0.33356  1.0000
  N   N3        1.0  0.11677  0.23385  0.33153  1.0000
  C   C58       1.0  0.14882  0.29806  0.33644  1.0000
  C   C59       1.0  0.17068  0.30947  0.32754  1.0000
  C   C60       1.0  0.18156  0.33126  0.32741  1.0000
  C   C61       1.0  0.17098  0.34244  0.33709  1.0000
  C   C62       1.0  0.14920  0.33121  0.34619  1.0000
  C   C63       1.0  0.13833  0.30942  0.34565  1.0000
  C   C64       1.0  0.14891  0.23297  0.33068  1.0000
  C   C65       1.0  0.17056  0.24328  0.34628  1.0000
  C   C66       1.0  0.18148  0.23241  0.34687  1.0000
  C   C67       1.0  0.17116  0.21087  0.33057  1.0000
  C   C68       1.0  0.14961  0.20047  0.31447  1.0000
  C   C69       1.0  0.13867  0.21133  0.31495  1.0000
  C   C70       1.0  0.08369  0.23285  0.33404  1.0000
  C   C71       1.0  0.07229  0.21123  0.31784  1.0000
  C   C72       1.0  0.05050  0.20034  0.31808  1.0000
  C   C73       1.0  0.03933  0.21066  0.33581  1.0000
  C   C74       1.0  0.05056  0.23221  0.35197  1.0000
  C   C75       1.0  0.07235  0.24311  0.35078  1.0000
  H   H37       1.0  0.19711  0.24044  0.35834  1.0000
  H   H38       1.0  0.17869  0.25886  0.35858  1.0000
  H   H39       1.0  0.14161  0.18481  0.30361  1.0000
  H   H40       1.0  0.12307  0.20314  0.30320  1.0000
  H   H41       1.0  0.07971  0.20310  0.30488  1.0000
  H   H42       1.0  0.04284  0.18472  0.30637  1.0000
  H   H43       1.0  0.07980  0.25870  0.36302  1.0000
  H   H44       1.0  0.04296  0.24024  0.36353  1.0000
  H   H45       1.0  0.12256  0.30197  0.35213  1.0000
  H   H46       1.0  0.14101  0.33881  0.35195  1.0000
  H   H47       1.0  0.19734  0.33890  0.32115  1.0000
  H   H48       1.0  0.17902  0.30207  0.32037  1.0000
  C   C76       1.0  0.74227  0.88033  0.33432  1.0000
  N   N4        1.0  0.72122  0.86935  0.33314  1.0000
  C   C77       1.0  0.71020  0.84830  0.33247  1.0000
  N   N5        1.0  0.72120  0.83824  0.33275  1.0000
  C   C78       1.0  0.74225  0.84828  0.33399  1.0000
  N   N6        1.0  0.75233  0.86934  0.33489  1.0000
  C   C79       1.0  0.68812  0.83728  0.33211  1.0000
  C   C80       1.0  0.67675  0.84780  0.33960  1.0000
  C   C81       1.0  0.65497  0.83693  0.34024  1.0000
  C   C82       1.0  0.64373  0.81512  0.33303  1.0000
  C   C83       1.0  0.65492  0.80451  0.32468  1.0000
  C   C84       1.0  0.67671  0.81539  0.32468  1.0000
  C   C85       1.0  0.75329  0.90241  0.33431  1.0000
  C   C86       1.0  0.74300  0.91373  0.31821  1.0000
  C   C87       1.0  0.75388  0.93551  0.31710  1.0000
  C   C88       1.0  0.77545  0.94675  0.33273  1.0000
  C   C89       1.0  0.78581  0.93560  0.34991  1.0000
  C   C90       1.0  0.77493  0.91381  0.35003  1.0000
  C   C91       1.0  0.75326  0.83722  0.33419  1.0000
  C   C92       1.0  0.77500  0.84755  0.34750  1.0000
  C   C93       1.0  0.78585  0.83662  0.34837  1.0000
  C   C94       1.0  0.77533  0.81499  0.33479  1.0000
  C   C95       1.0  0.75372  0.80454  0.32056  1.0000
  C   C96       1.0  0.74286  0.81547  0.32100  1.0000
  H   H49       1.0  0.74584  0.94311  0.30583  1.0000
  H   H50       1.0  0.72740  0.90627  0.30629  1.0000
  H   H51       1.0  0.80145  0.94327  0.36123  1.0000
  H   H52       1.0  0.78309  0.90639  0.36252  1.0000
  H   H53       1.0  0.78325  0.86322  0.35754  1.0000
  H   H54       1.0  0.80155  0.84463  0.35809  1.0000
  H   H55       1.0  0.72720  0.80727  0.31074  1.0000
  H   H56       1.0  0.74566  0.78884  0.31110  1.0000
  H   H57       1.0  0.68412  0.80702  0.31895  1.0000
  H   H58       1.0  0.64729  0.78870  0.31989  1.0000
  H   H59       1.0  0.64737  0.84515  0.34498  1.0000
  H   H60       1.0  0.68419  0.86359  0.34511  1.0000
  C   C97       1.0  0.10567  0.84824  0.33243  1.0000
  N   N7        1.0  0.11666  0.83817  0.33120  1.0000
  C   C98       1.0  0.13772  0.84821  0.33193  1.0000
  N   N8        1.0  0.14777  0.86926  0.33361  1.0000
  C   C99       1.0  0.13773  0.88026  0.33482  1.0000
  N   N9        1.0  0.11667  0.86929  0.33435  1.0000
  C   C100      1.0  0.14877  0.83718  0.33154  1.0000
  C   C101      1.0  0.13831  0.81533  0.32232  1.0000
  C   C102      1.0  0.14921  0.80443  0.32231  1.0000
  C   C103      1.0  0.17096  0.81498  0.33246  1.0000
  C   C104      1.0  0.18152  0.83676  0.34147  1.0000
  C   C105      1.0  0.17062  0.84765  0.34080  1.0000
  C   C106      1.0  0.08359  0.83719  0.33147  1.0000
  C   C107      1.0  0.07226  0.81549  0.31741  1.0000
  C   C108      1.0  0.05048  0.80458  0.31605  1.0000
  C   C109      1.0  0.03922  0.81498  0.32925  1.0000
  C   C110      1.0  0.05037  0.83659  0.34412  1.0000
  C   C111      1.0  0.07217  0.84750  0.34465  1.0000
  C   C112      1.0  0.14881  0.90234  0.33574  1.0000
  C   C113      1.0  0.13855  0.91374  0.35083  1.0000
  C   C114      1.0  0.14949  0.93554  0.35132  1.0000
  C   C115      1.0  0.17108  0.94669  0.33591  1.0000
  C   C116      1.0  0.18141  0.93546  0.32027  1.0000
  C   C117      1.0  0.17049  0.91367  0.32082  1.0000
  H   H61       1.0  0.04289  0.78887  0.30668  1.0000
  H   H62       1.0  0.07973  0.80727  0.30753  1.0000
  H   H63       1.0  0.04270  0.84462  0.35366  1.0000
  H   H64       1.0  0.07956  0.86314  0.35554  1.0000
  H   H65       1.0  0.12293  0.90633  0.36207  1.0000
  H   H66       1.0  0.14148  0.94320  0.36163  1.0000
  H   H67       1.0  0.17863  0.90621  0.30900  1.0000
  H   H68       1.0  0.19706  0.94306  0.30932  1.0000
  H   H69       1.0  0.17895  0.86340  0.34766  1.0000
  H   H70       1.0  0.19731  0.84494  0.34759  1.0000
  H   H71       1.0  0.14105  0.78864  0.31615  1.0000
  H   H72       1.0  0.12256  0.80700  0.31525  1.0000
  C   C118      1.0  0.85250  0.73777  0.33447  1.0000
  N   N10       1.0  0.84244  0.71672  0.33303  1.0000
  C   C119      1.0  0.85248  0.70571  0.33185  1.0000
  N   N11       1.0  0.87353  0.71671  0.33184  1.0000
  C   C120      1.0  0.88454  0.73776  0.33331  1.0000
  N   N12       1.0  0.87356  0.74784  0.33474  1.0000
  C   C121      1.0  0.84141  0.68362  0.33133  1.0000
  C   C122      1.0  0.81953  0.67225  0.33931  1.0000
  C   C123      1.0  0.80862  0.65046  0.33994  1.0000
  C   C124      1.0  0.81919  0.63923  0.33223  1.0000
  C   C125      1.0  0.84098  0.65043  0.32334  1.0000
  C   C126      1.0  0.85188  0.67222  0.32336  1.0000
  C   C127      1.0  0.84146  0.74880  0.33483  1.0000
  C   C128      1.0  0.81985  0.73853  0.31831  1.0000
  C   C129      1.0  0.80897  0.74944  0.31719  1.0000
  C   C130      1.0  0.81933  0.77098  0.33347  1.0000
  C   C131      1.0  0.84081  0.78131  0.35121  1.0000
  C   C132      1.0  0.85170  0.77042  0.35115  1.0000
  C   C133      1.0  0.90662  0.74880  0.33317  1.0000
  C   C134      1.0  0.91801  0.77047  0.34804  1.0000
  C   C135      1.0  0.93980  0.78134  0.34839  1.0000
  C   C136      1.0  0.95098  0.77094  0.33315  1.0000
  C   C137      1.0  0.93976  0.74937  0.31736  1.0000
  C   C138      1.0  0.91797  0.73849  0.31797  1.0000
  H   H73       1.0  0.79336  0.74146  0.30528  1.0000
  H   H74       1.0  0.81172  0.72296  0.30587  1.0000
  H   H75       1.0  0.84876  0.79693  0.36298  1.0000
  H   H76       1.0  0.86726  0.77854  0.36393  1.0000
  H   H77       1.0  0.91058  0.77867  0.35951  1.0000
  H   H78       1.0  0.94744  0.79702  0.35886  1.0000
  H   H79       1.0  0.91052  0.72287  0.30644  1.0000
  H   H80       1.0  0.94737  0.74132  0.30666  1.0000
  H   H81       1.0  0.86765  0.67963  0.31727  1.0000
  H   H82       1.0  0.84915  0.64280  0.31819  1.0000
  H   H83       1.0  0.79281  0.64286  0.34509  1.0000
  H   H84       1.0  0.81119  0.67968  0.34523  1.0000
  C   C139      1.0  0.24829  0.10134  0.33110  1.0000
  N   N13       1.0  0.26935  0.11235  0.33155  1.0000
  C   C140      1.0  0.28034  0.13339  0.33431  1.0000
  N   N14       1.0  0.26932  0.14342  0.33653  1.0000
  C   C141      1.0  0.24827  0.13336  0.33588  1.0000
  N   N15       1.0  0.23822  0.11232  0.33323  1.0000
  C   C142      1.0  0.30242  0.14447  0.33493  1.0000
  C   C143      1.0  0.31387  0.13416  0.32222  1.0000
  C   C144      1.0  0.33566  0.14511  0.32231  1.0000
  C   C145      1.0  0.34680  0.16675  0.33621  1.0000
  C   C146      1.0  0.33553  0.17715  0.34889  1.0000
  C   C147      1.0  0.31374  0.16621  0.34803  1.0000
  C   C148      1.0  0.23726  0.07927  0.32936  1.0000
  C   C149      1.0  0.24764  0.06796  0.31488  1.0000
  C   C150      1.0  0.23679  0.04617  0.31395  1.0000
  C   C151      1.0  0.21516  0.03490  0.32808  1.0000
  C   C152      1.0  0.20470  0.04604  0.34308  1.0000
  C   C153      1.0  0.21555  0.06783  0.34310  1.0000
  C   C154      1.0  0.23724  0.14440  0.33726  1.0000
  C   C155      1.0  0.21558  0.13417  0.32206  1.0000
  C   C156      1.0  0.20474  0.14512  0.32195  1.0000
  C   C157      1.0  0.21515  0.16667  0.33828  1.0000
  C   C158      1.0  0.23672  0.17698  0.35380  1.0000
  C   C159      1.0  0.24757  0.16604  0.35300  1.0000
  H   H85       1.0  0.24491  0.03859  0.30449  1.0000
  H   H86       1.0  0.26330  0.07544  0.30465  1.0000
  H   H87       1.0  0.18902  0.03837  0.35331  1.0000
  H   H88       1.0  0.20731  0.07522  0.35446  1.0000
  H   H89       1.0  0.20739  0.11859  0.30977  1.0000
  H   H90       1.0  0.18909  0.13716  0.31070  1.0000
  H   H91       1.0  0.26319  0.17419  0.36434  1.0000
  H   H92       1.0  0.24481  0.19265  0.36429  1.0000
  H   H93       1.0  0.30627  0.17443  0.35746  1.0000
  H   H94       1.0  0.34310  0.19288  0.35759  1.0000
  H   H95       1.0  0.34334  0.13707  0.31320  1.0000
  H   H96       1.0  0.30648  0.11850  0.31208  1.0000
  C   C160      1.0  0.88475  0.13333  0.33358  1.0000
  N   N16       1.0  0.87376  0.14340  0.33381  1.0000
  C   C161      1.0  0.85270  0.13335  0.33391  1.0000
  N   N17       1.0  0.84265  0.11229  0.33385  1.0000
  C   C162      1.0  0.85271  0.10130  0.33371  1.0000
  N   N18       1.0  0.87376  0.11228  0.33356  1.0000
  C   C163      1.0  0.84167  0.14440  0.33416  1.0000
  C   C164      1.0  0.85214  0.16625  0.32525  1.0000
  C   C165      1.0  0.84126  0.17716  0.32512  1.0000
  C   C166      1.0  0.81950  0.16661  0.33491  1.0000
  C   C167      1.0  0.80893  0.14483  0.34384  1.0000
  C   C168      1.0  0.81982  0.13393  0.34321  1.0000
  C   C169      1.0  0.90682  0.14437  0.33331  1.0000
  C   C170      1.0  0.91819  0.16603  0.34838  1.0000
  C   C171      1.0  0.93997  0.17693  0.34861  1.0000
  C   C172      1.0  0.95115  0.16656  0.33245  1.0000
  C   C173      1.0  0.93997  0.14499  0.31709  1.0000
  C   C174      1.0  0.91819  0.13407  0.31801  1.0000
  C   C175      1.0  0.84167  0.07922  0.33395  1.0000
  C   C176      1.0  0.85198  0.06786  0.34873  1.0000
  C   C177      1.0  0.84107  0.04607  0.34978  1.0000
  C   C178      1.0  0.81947  0.03490  0.33508  1.0000
  C   C179      1.0  0.80907  0.04607  0.31935  1.0000
  C   C180      1.0  0.81998  0.06785  0.31951  1.0000
  H   H97       1.0  0.94762  0.19259  0.35950  1.0000
  H   H98       1.0  0.91075  0.17420  0.36023  1.0000
  H   H99       1.0  0.94762  0.13698  0.30623  1.0000
  H   H100      1.0  0.91074  0.11846  0.30650  1.0000
  H   H101      1.0  0.86762  0.07530  0.35976  1.0000
  H   H102      1.0  0.84909  0.03842  0.36035  1.0000
  H   H103      1.0  0.81180  0.07529  0.30809  1.0000
  H   H104      1.0  0.79340  0.03842  0.30900  1.0000
  H   H105      1.0  0.81148  0.11817  0.34982  1.0000
  H   H106      1.0  0.79313  0.13666  0.34967  1.0000
  H   H107      1.0  0.84943  0.19295  0.31900  1.0000
  H   H108      1.0  0.86790  0.17458  0.31822  1.0000
  C   C181      1.0  0.24854  0.52921  0.34150  1.0000
  N   N19       1.0  0.23835  0.50818  0.34012  1.0000
  C   C182      1.0  0.24844  0.49724  0.33187  1.0000
  N   N20       1.0  0.26949  0.50820  0.32395  1.0000
  C   C183      1.0  0.28033  0.52924  0.32327  1.0000
  N   N21       1.0  0.26944  0.53924  0.33255  1.0000
  C   C184      1.0  0.23738  0.47513  0.33156  1.0000
  C   C185      1.0  0.21556  0.46374  0.34212  1.0000
  C   C186      1.0  0.20464  0.44196  0.34220  1.0000
  C   C187      1.0  0.21514  0.43073  0.33104  1.0000
  C   C188      1.0  0.23689  0.44194  0.32057  1.0000
  C   C189      1.0  0.24779  0.46373  0.32091  1.0000
  C   C190      1.0  0.23825  0.54081  0.35057  1.0000
  C   C191      1.0  0.21782  0.53328  0.31886  1.0000
  C   C192      1.0  0.20876  0.54597  0.31949  1.0000
  C   C193      1.0  0.21956  0.56621  0.35524  1.0000
  C   C194      1.0  0.23965  0.57344  0.38996  1.0000
  C   C195      1.0  0.24884  0.56099  0.38737  1.0000
  C   C196      1.0  0.30222  0.54088  0.31428  1.0000
  C   C197      1.0  0.31180  0.56116  0.27858  1.0000
  C   C198      1.0  0.33344  0.57359  0.27561  1.0000
  C   C199      1.0  0.34632  0.56624  0.30883  1.0000
  C   C200      1.0  0.33690  0.54591  0.34365  1.0000
  C   C201      1.0  0.31514  0.53325  0.34467  1.0000
  H   H109      1.0  0.19443  0.54054  0.29159  1.0000
  H   H110      1.0  0.20984  0.51898  0.28973  1.0000
  H   H111      1.0  0.24827  0.58829  0.41325  1.0000
  H   H112      1.0  0.26364  0.56710  0.41105  1.0000
  H   H113      1.0  0.30312  0.56736  0.25582  1.0000
  H   H114      1.0  0.33968  0.58850  0.25308  1.0000
  H   H115      1.0  0.30883  0.51885  0.37283  1.0000
  H   H116      1.0  0.34581  0.54037  0.37042  1.0000
  H   H117      1.0  0.26353  0.47113  0.31338  1.0000
  H   H118      1.0  0.24504  0.43432  0.31384  1.0000
  H   H119      1.0  0.18888  0.43435  0.34941  1.0000
  H   H120      1.0  0.20725  0.47116  0.35008  1.0000
  C   C202      1.0  0.45703  0.70578  0.34050  1.0000
  N   N22       1.0  0.47807  0.71663  0.33884  1.0000
  C   C203      1.0  0.48898  0.73770  0.33207  1.0000
  N   N23       1.0  0.47802  0.74782  0.32586  1.0000
  C   C204      1.0  0.45698  0.73761  0.32538  1.0000
  N   N24       1.0  0.44700  0.71669  0.33321  1.0000
  C   C205      1.0  0.51107  0.74875  0.33143  1.0000
  C   C206      1.0  0.52245  0.73823  0.32490  1.0000
  C   C207      1.0  0.54424  0.74913  0.32387  1.0000
  C   C208      1.0  0.55545  0.77096  0.32995  1.0000
  C   C209      1.0  0.54425  0.78157  0.33728  1.0000
  C   C210      1.0  0.52246  0.77066  0.33745  1.0000
  C   C211      1.0  0.44542  0.68387  0.34861  1.0000
  C   C212      1.0  0.45294  0.67102  0.31623  1.0000
  C   C213      1.0  0.44029  0.64926  0.31663  1.0000
  C   C214      1.0  0.42007  0.63976  0.35266  1.0000
  C   C215      1.0  0.41281  0.65256  0.38766  1.0000
  C   C216      1.0  0.42524  0.67421  0.38546  1.0000
  C   C217      1.0  0.44532  0.74787  0.31756  1.0000
  C   C218      1.0  0.42501  0.73722  0.28210  1.0000
  C   C219      1.0  0.41259  0.74645  0.27983  1.0000
  C   C220      1.0  0.42000  0.76665  0.31346  1.0000
  C   C221      1.0  0.44035  0.77750  0.34811  1.0000
  C   C222      1.0  0.45299  0.76838  0.34846  1.0000
  H   H121      1.0  0.44576  0.64040  0.28860  1.0000
  H   H122      1.0  0.46727  0.67739  0.28734  1.0000
  H   H123      1.0  0.39797  0.64629  0.41117  1.0000
  H   H124      1.0  0.41911  0.68284  0.40957  1.0000
  H   H125      1.0  0.41879  0.72237  0.25888  1.0000
  H   H126      1.0  0.39768  0.73783  0.25722  1.0000
  H   H127      1.0  0.46741  0.77643  0.37645  1.0000
  H   H128      1.0  0.44591  0.79193  0.37515  1.0000
  H   H129      1.0  0.51503  0.77903  0.34275  1.0000
  H   H130      1.0  0.55188  0.79740  0.34134  1.0000
  H   H131      1.0  0.55186  0.74092  0.31981  1.0000
  H   H132      1.0  0.51502  0.72243  0.32025  1.0000
  C   C223      1.0  0.28043  0.73770  0.34153  1.0000
  N   N25       1.0  0.26957  0.74787  0.33998  1.0000
  C   C224      1.0  0.24853  0.73776  0.33170  1.0000
  N   N26       1.0  0.23847  0.71671  0.32396  1.0000
  C   C225      1.0  0.24868  0.70588  0.32348  1.0000
  N   N27       1.0  0.26957  0.71679  0.33275  1.0000
  C   C226      1.0  0.23745  0.74877  0.33111  1.0000
  C   C227      1.0  0.24782  0.77059  0.34158  1.0000
  C   C228      1.0  0.23690  0.78146  0.34120  1.0000
  C   C229      1.0  0.21518  0.77091  0.32961  1.0000
  C   C230      1.0  0.20470  0.74916  0.31933  1.0000
  C   C231      1.0  0.21564  0.73831  0.32015  1.0000
  C   C232      1.0  0.30232  0.74800  0.35080  1.0000
  C   C233      1.0  0.31523  0.76848  0.31967  1.0000
  C   C234      1.0  0.33699  0.77758  0.32075  1.0000
  C   C235      1.0  0.34642  0.76676  0.35641  1.0000
  C   C236      1.0  0.33355  0.74661  0.39047  1.0000
  C   C237      1.0  0.31190  0.73738  0.38742  1.0000
  C   C238      1.0  0.23842  0.68399  0.31480  1.0000
  C   C239      1.0  0.24909  0.67438  0.27906  1.0000
  C   C240      1.0  0.23987  0.65273  0.27647  1.0000
  C   C241      1.0  0.21968  0.63989  0.31021  1.0000
  C   C242      1.0  0.20882  0.64935  0.34505  1.0000
  C   C243      1.0  0.21790  0.67110  0.34560  1.0000
  H   H133      1.0  0.34589  0.79196  0.29333  1.0000
  H   H134      1.0  0.30892  0.77648  0.29071  1.0000
  H   H135      1.0  0.33978  0.73798  0.41368  1.0000
  H   H136      1.0  0.30322  0.72255  0.41073  1.0000
  H   H137      1.0  0.26395  0.68304  0.25599  1.0000
  H   H138      1.0  0.24852  0.64647  0.25388  1.0000
  H   H139      1.0  0.20986  0.67744  0.37392  1.0000
  H   H140      1.0  0.19440  0.64046  0.37219  1.0000
  H   H141      1.0  0.20735  0.72257  0.31264  1.0000
  H   H142      1.0  0.18894  0.74097  0.31230  1.0000
  H   H143      1.0  0.24501  0.79722  0.34827  1.0000
  H   H144      1.0  0.26354  0.77894  0.34975  1.0000
  C   C244      1.0  0.74197  0.45253  0.34038  1.0000
  N   N28       1.0  0.75214  0.47357  0.33874  1.0000
  C   C245      1.0  0.74198  0.48447  0.33200  1.0000
  N   N29       1.0  0.72091  0.47351  0.32577  1.0000
  C   C246      1.0  0.71008  0.45246  0.32525  1.0000
  N   N30       1.0  0.72103  0.44249  0.33307  1.0000
  C   C247      1.0  0.75300  0.50656  0.33137  1.0000
  C   C248      1.0  0.77490  0.51796  0.32446  1.0000
  C   C249      1.0  0.78577  0.53975  0.32336  1.0000
  C   C250      1.0  0.77514  0.55094  0.32975  1.0000
  C   C251      1.0  0.75333  0.53972  0.33749  1.0000
  C   C252      1.0  0.74247  0.51793  0.33772  1.0000
  C   C253      1.0  0.75228  0.44092  0.34848  1.0000
  C   C254      1.0  0.77266  0.44846  0.31622  1.0000
  C   C255      1.0  0.78178  0.43582  0.31665  1.0000
  C   C256      1.0  0.77107  0.41560  0.35262  1.0000
  C   C257      1.0  0.75098  0.40832  0.38751  1.0000
  C   C258      1.0  0.74175  0.42074  0.38526  1.0000
  C   C259      1.0  0.68816  0.44080  0.31741  1.0000
  C   C260      1.0  0.67851  0.42049  0.28194  1.0000
  C   C261      1.0  0.65687  0.40807  0.27965  1.0000
  C   C262      1.0  0.64406  0.41547  0.31325  1.0000
  C   C263      1.0  0.65355  0.43581  0.34795  1.0000
  C   C264      1.0  0.67531  0.44845  0.34833  1.0000
  H   H145      1.0  0.79611  0.44130  0.28871  1.0000
  H   H146      1.0  0.78062  0.46280  0.28738  1.0000
  H   H147      1.0  0.74242  0.39348  0.41097  1.0000
  H   H148      1.0  0.72698  0.41459  0.40931  1.0000
  H   H149      1.0  0.68714  0.41427  0.25873  1.0000
  H   H150      1.0  0.65058  0.39316  0.25703  1.0000
  H   H151      1.0  0.68168  0.46287  0.37635  1.0000
  H   H152      1.0  0.64468  0.44137  0.37503  1.0000
  H   H153      1.0  0.72669  0.51050  0.34330  1.0000
  H   H154      1.0  0.74513  0.54734  0.34177  1.0000
  H   H155      1.0  0.80159  0.54738  0.31899  1.0000
  H   H156      1.0  0.78328  0.51054  0.31955  1.0000
  C   C265      1.0  0.53354  0.27586  0.34161  1.0000
  N   N31       1.0  0.51250  0.26500  0.34052  1.0000
  C   C266      1.0  0.50155  0.24397  0.33222  1.0000
  N   N32       1.0  0.51250  0.23388  0.32403  1.0000
  C   C267      1.0  0.53354  0.24408  0.32312  1.0000
  N   N33       1.0  0.54356  0.26498  0.33242  1.0000
  C   C268      1.0  0.47945  0.23294  0.33213  1.0000
  C   C269      1.0  0.46808  0.24319  0.34831  1.0000
  C   C270      1.0  0.44629  0.23233  0.34849  1.0000
  C   C271      1.0  0.43506  0.21080  0.33162  1.0000
  C   C272      1.0  0.44625  0.20045  0.31549  1.0000
  C   C273      1.0  0.46804  0.21131  0.31595  1.0000
  C   C274      1.0  0.54513  0.29774  0.35082  1.0000
  C   C275      1.0  0.53751  0.31064  0.32011  1.0000
  C   C276      1.0  0.55015  0.33240  0.32117  1.0000
  C   C277      1.0  0.57044  0.34183  0.35638  1.0000
  C   C278      1.0  0.57778  0.32898  0.39000  1.0000
  C   C279      1.0  0.56538  0.30733  0.38696  1.0000
  C   C280      1.0  0.54517  0.23382  0.31425  1.0000
  C   C281      1.0  0.56542  0.24448  0.27813  1.0000
  C   C282      1.0  0.57788  0.23530  0.27566  1.0000
  C   C283      1.0  0.57060  0.21516  0.30985  1.0000
  C   C284      1.0  0.55031  0.20430  0.34499  1.0000
  C   C285      1.0  0.53761  0.21335  0.34551  1.0000
  H   H157      1.0  0.54464  0.34130  0.29407  1.0000
  H   H158      1.0  0.52316  0.30432  0.29151  1.0000
  H   H159      1.0  0.59267  0.33522  0.41289  1.0000
  H   H160      1.0  0.57156  0.29866  0.40995  1.0000
  H   H161      1.0  0.57157  0.25931  0.25479  1.0000
  H   H162      1.0  0.59277  0.24395  0.25287  1.0000
  H   H163      1.0  0.52325  0.20531  0.37406  1.0000
  H   H164      1.0  0.54483  0.18992  0.37248  1.0000
  H   H165      1.0  0.47544  0.20312  0.30397  1.0000
  H   H166      1.0  0.43861  0.18480  0.30437  1.0000
  H   H167      1.0  0.43869  0.24036  0.35989  1.0000
  H   H168      1.0  0.47551  0.25877  0.36059  1.0000
  C   C286      1.0  0.71017  0.24405  0.34164  1.0000
  N   N34       1.0  0.72104  0.23388  0.34016  1.0000
  C   C287      1.0  0.74208  0.24399  0.33191  1.0000
  N   N35       1.0  0.75214  0.26504  0.32406  1.0000
  C   C288      1.0  0.74192  0.27587  0.32349  1.0000
  N   N36       1.0  0.72102  0.26495  0.33277  1.0000
  C   C289      1.0  0.75315  0.23296  0.33144  1.0000
  C   C290      1.0  0.74276  0.21115  0.34210  1.0000
  C   C291      1.0  0.75366  0.20026  0.34196  1.0000
  C   C292      1.0  0.77538  0.21079  0.33044  1.0000
  C   C293      1.0  0.78587  0.23253  0.31991  1.0000
  C   C294      1.0  0.77495  0.24340  0.32049  1.0000
  C   C295      1.0  0.68828  0.23374  0.35067  1.0000
  C   C296      1.0  0.67539  0.21333  0.31882  1.0000
  C   C297      1.0  0.65363  0.20425  0.31955  1.0000
  C   C298      1.0  0.64418  0.21503  0.35539  1.0000
  C   C299      1.0  0.65704  0.23513  0.39003  1.0000
  C   C300      1.0  0.67868  0.24432  0.38750  1.0000
  C   C301      1.0  0.75215  0.29776  0.31454  1.0000
  C   C302      1.0  0.74142  0.30732  0.27898  1.0000
  C   C303      1.0  0.75061  0.32896  0.27608  1.0000
  C   C304      1.0  0.77085  0.34185  0.30915  1.0000
  C   C305      1.0  0.78179  0.33244  0.34377  1.0000
  C   C306      1.0  0.77270  0.31069  0.34484  1.0000
  H   H169      1.0  0.64474  0.18991  0.29173  1.0000
  H   H170      1.0  0.68172  0.20534  0.28988  1.0000
  H   H171      1.0  0.65080  0.24374  0.41334  1.0000
  H   H172      1.0  0.68736  0.25912  0.41116  1.0000
  H   H173      1.0  0.72653  0.29863  0.25629  1.0000
  H   H174      1.0  0.74192  0.33519  0.25357  1.0000
  H   H175      1.0  0.78081  0.30438  0.37284  1.0000
  H   H176      1.0  0.79625  0.34137  0.37046  1.0000
  H   H177      1.0  0.78326  0.25913  0.31287  1.0000
  H   H178      1.0  0.80164  0.24071  0.31294  1.0000
  H   H179      1.0  0.74553  0.18450  0.34921  1.0000
  H   H180      1.0  0.72704  0.20282  0.35029  1.0000
  C   C307      1.0  0.19098  0.39787  0.40399  1.0000
  C   C308      1.0  0.18013  0.37606  0.40721  1.0000
  C   C309      1.0  0.18197  0.36447  0.33647  1.0000
  O   O19       1.0  0.16814  0.36674  0.48001  1.0000
  H   H181      1.0  0.18960  0.40587  0.45650  1.0000
  H   H182      1.0  0.17638  0.36309  0.51931  1.0000
  C   C310      1.0  0.58842  0.79558  0.40070  1.0000
  C   C311      1.0  0.61023  0.80642  0.40322  1.0000
  C   C312      1.0  0.62169  0.80411  0.33319  1.0000
  O   O20       1.0  0.61968  0.81886  0.47473  1.0000
  H   H183      1.0  0.58051  0.79733  0.45262  1.0000
  H   H184      1.0  0.62338  0.81086  0.51527  1.0000
  C   C313      1.0  0.20629  0.79504  0.40156  1.0000
  C   C314      1.0  0.19530  0.80585  0.40399  1.0000
  C   C315      1.0  0.18198  0.80397  0.33271  1.0000
  O   O21       1.0  0.19785  0.81788  0.47656  1.0000
  H   H185      1.0  0.21561  0.79646  0.45440  1.0000
  H   H186      1.0  0.18591  0.80963  0.51564  1.0000
  C   C316      1.0  0.78354  0.58393  0.40049  1.0000
  C   C317      1.0  0.79449  0.60574  0.40284  1.0000
  C   C318      1.0  0.80817  0.61719  0.33251  1.0000
  O   O22       1.0  0.79158  0.61521  0.47450  1.0000
  H   H187      1.0  0.77395  0.57603  0.45261  1.0000
  H   H188      1.0  0.80332  0.61891  0.51478  1.0000
  C   C319      1.0  0.40216  0.20095  0.40686  1.0000
  C   C320      1.0  0.38033  0.19032  0.40905  1.0000
  C   C321      1.0  0.36882  0.17784  0.33591  1.0000
  O   O23       1.0  0.37065  0.19095  0.48508  1.0000
  H   H189      1.0  0.41013  0.20931  0.46171  1.0000
  H   H190      1.0  0.37239  0.20491  0.48848  1.0000
  C   C322      1.0  0.78419  0.18666  0.40296  1.0000
  C   C323      1.0  0.79514  0.17580  0.40577  1.0000
  C   C324      1.0  0.80850  0.17764  0.33473  1.0000
  O   O24       1.0  0.79253  0.16379  0.47846  1.0000
  H   H191      1.0  0.77484  0.18526  0.45565  1.0000
  H   H192      1.0  0.80444  0.17203  0.51763  1.0000
  C   C325      1.0  0.19354  0.20054  0.40809  1.0000
  C   C326      1.0  0.20467  0.18984  0.41112  1.0000
  C   C327      1.0  0.20424  0.17779  0.33726  1.0000
  H   H193      1.0  0.19354  0.20861  0.46329  1.0000
  O   O25       1.0  0.21434  0.18996  0.48840  1.0000
  H   H194      1.0  0.22652  0.20388  0.49417  1.0000
  C   C328      1.0  0.79762  0.97971  0.40885  1.0000
  C   C329      1.0  0.80838  0.00152  0.41114  1.0000
  C   C330      1.0  0.80844  0.01291  0.33543  1.0000
  H   H195      1.0  0.79772  0.97180  0.46450  1.0000
  O   O26       1.0  0.81856  0.01107  0.48747  1.0000
  H   H196      1.0  0.80937  0.01468  0.52012  1.0000
  C   C331      1.0  0.00632  0.80494  0.40447  1.0000
  C   C332      1.0  0.98451  0.79395  0.40721  1.0000
  C   C333      1.0  0.97300  0.78190  0.33309  1.0000
  H   H197      1.0  0.01428  0.81347  0.45902  1.0000
  O   O27       1.0  0.97511  0.79535  0.48258  1.0000
  H   H198      1.0  0.97135  0.78278  0.51737  1.0000
  C   C334      1.0  0.80769  0.79229  0.41077  1.0000
  C   C335      1.0  0.79663  0.80303  0.41270  1.0000
  C   C336      1.0  0.78624  0.80394  0.33529  1.0000
  H   H199      1.0  0.81505  0.79176  0.46753  1.0000
  O   O28       1.0  0.79633  0.81241  0.49012  1.0000
  H   H200      1.0  0.78321  0.80283  0.51983  1.0000
  C   C337      1.0  0.19257  0.00218  0.40512  1.0000
  C   C338      1.0  0.18178  0.98038  0.40883  1.0000
  C   C339      1.0  0.18214  0.96871  0.33497  1.0000
  H   H201      1.0  0.19215  0.01027  0.45949  1.0000
  O   O29       1.0  0.17119  0.97113  0.48481  1.0000
  H   H202      1.0  0.18014  0.96754  0.51949  1.0000
  C   C340      1.0  0.98404  0.18884  0.40885  1.0000
  C   C341      1.0  0.00587  0.19997  0.41080  1.0000
  C   C342      1.0  0.01731  0.19969  0.33591  1.0000
  H   H203      1.0  0.97609  0.18873  0.46469  1.0000
  O   O30       1.0  0.01562  0.20952  0.48796  1.0000
  H   H204      1.0  0.01385  0.22166  0.49485  1.0000
  C   C343      1.0  0.21143  0.61050  0.40657  1.0000
  C   C344      1.0  0.21131  0.59173  0.41965  1.0000
  C   C345      1.0  0.21238  0.58053  0.34535  1.0000
  H   H205      1.0  0.21304  0.61944  0.46116  1.0000
  O   O31       1.0  0.21312  0.58648  0.50476  1.0000
  H   H206      1.0  0.20003  0.57380  0.51864  1.0000
  C   C346      1.0  0.37589  0.58731  0.40461  1.0000
  C   C347      1.0  0.39468  0.60596  0.41734  1.0000
  C   C348      1.0  0.40578  0.61824  0.34294  1.0000
  H   H207      1.0  0.36701  0.57998  0.45934  1.0000
  O   O32       1.0  0.40007  0.61299  0.50242  1.0000
  H   H208      1.0  0.41278  0.61260  0.51572  1.0000
  C   C349      1.0  0.39878  0.77494  0.40928  1.0000
  C   C350      1.0  0.38010  0.77503  0.42181  1.0000
  C   C351      1.0  0.36795  0.77402  0.34716  1.0000
  H   H209      1.0  0.40601  0.77327  0.46409  1.0000
  O   O33       1.0  0.37290  0.77315  0.50672  1.0000
  H   H210      1.0  0.37324  0.78620  0.52058  1.0000
  C   C352      1.0  0.77937  0.37145  0.40479  1.0000
  C   C353      1.0  0.77950  0.39024  0.41744  1.0000
  C   C354      1.0  0.77830  0.40131  0.34298  1.0000
  H   H211      1.0  0.77783  0.36259  0.45958  1.0000
  O   O34       1.0  0.77787  0.39566  0.50248  1.0000
  H   H212      1.0  0.79096  0.40837  0.51573  1.0000
  C   C355      1.0  0.61459  0.39422  0.40918  1.0000
  C   C356      1.0  0.59583  0.37553  0.42176  1.0000
  C   C357      1.0  0.58469  0.36337  0.34713  1.0000
  H   H213      1.0  0.62350  0.40145  0.46396  1.0000
  O   O35       1.0  0.59055  0.36831  0.50666  1.0000
  H   H214      1.0  0.57783  0.36863  0.52064  1.0000
  C   C358      1.0  0.59174  0.20691  0.40651  1.0000
  C   C359      1.0  0.61040  0.20681  0.41969  1.0000
  C   C360      1.0  0.62268  0.20786  0.34552  1.0000
  H   H215      1.0  0.58440  0.20855  0.46100  1.0000
  O   O36       1.0  0.61742  0.20859  0.50485  1.0000
  H   H216      1.0  0.61697  0.19549  0.51876  1.0000
