data_image0
_chemical_formula_structural       C3HCH3C3HCH3C3HCH3C3HCH3C3HCH3C3HCH3C3HCH3C3HCH3C3HCH3C3HCH3C3HCH3C3HCH3C3HCH3C3HCH3C3HCH3C3HCH3C3HCH3C3HCH3C3HCH3C3HCH3C3HCH3C3HCH3C3HCH3C3HCH3C3HCH3C3HCH3C3HCH3C3HCH3C3HCH3C3HCH3C3HCH3C3HCH3C3HCH3C3HCH3C3HCH3C3HCH3C3HCH3C3HCH3C3HCH3C3HCH3C3HCH3C3HCH3C6H3C6H3C6H3C6H3C6H3C6H3C6H3C6H3C6H3C6H3C6H3C6H3C6H3C6H3C6H3C6H3C6H3C6H3C6H3C6H3C6H3C6H3C6H3C6H3C6H3C6H3C6H3C6H3C3HCH3C3HCH3C3HCH3C3HCH3C3HCH3C3HCH3C3HCH3C3HCH3C3HCH3C3HCH3C3HCH3C3HCH3C3HCH3C3HCH3C3HCH3C3HCH3C3HCH3C3HCH3C3HCH3C3HCH3C3HCH3C3HCH3C3HCH3C3HCH3C3HCH3C3HCH3C3HCH3C3HCH3C3HCH3C3HCH3C3HCH3C3HCH3C3HCH3C3HCH3C3HCH3C3HCH3C3HCH3C3HCH3C3HCH3C3HCH3C3HCH3C3HCH3
_chemical_formula_sum              "C504 H420"
_cell_length_a       52.1339
_cell_length_b       52.1339
_cell_length_c       14.8025
_cell_angle_alpha    90
_cell_angle_beta     90
_cell_angle_gamma    90

_space_group_name_H-M_alt    "P 1"
_space_group_IT_number       1

loop_
  _space_group_symop_operation_xyz
  'x, y, z'

loop_
  _atom_site_type_symbol
  _atom_site_label
  _atom_site_symmetry_multiplicity
  _atom_site_fract_x
  _atom_site_fract_y
  _atom_site_fract_z
  _atom_site_occupancy
  C   C1        1.0  0.12411  0.12460  0.34551  1.0000
  C   C2        1.0  0.15302  0.15317  0.26191  1.0000
  C   C3        1.0  0.13379  0.13411  0.26341  1.0000
  H   H1        1.0  0.12669  0.12703  0.20377  1.0000
  C   C4        1.0  0.16186  0.16187  0.17110  1.0000
  H   H2        1.0  0.17670  0.17656  0.17358  1.0000
  H   H3        1.0  0.14566  0.16977  0.13349  1.0000
  H   H4        1.0  0.16960  0.14558  0.13360  1.0000
  C   C5        1.0  0.88922  0.88874  0.34551  1.0000
  C   C6        1.0  0.86032  0.86017  0.26192  1.0000
  C   C7        1.0  0.87955  0.87922  0.26341  1.0000
  H   H5        1.0  0.88664  0.88631  0.20377  1.0000
  C   C8        1.0  0.85148  0.85146  0.17111  1.0000
  H   H6        1.0  0.83664  0.83677  0.17360  1.0000
  H   H7        1.0  0.86768  0.84357  0.13350  1.0000
  H   H8        1.0  0.84374  0.86775  0.13362  1.0000
  C   C9        1.0  0.88874  0.12412  0.34551  1.0000
  C   C10       1.0  0.86017  0.15303  0.26192  1.0000
  C   C11       1.0  0.87922  0.13379  0.26341  1.0000
  H   H9        1.0  0.88630  0.12670  0.20377  1.0000
  C   C12       1.0  0.85146  0.16186  0.17110  1.0000
  H   H10       1.0  0.83677  0.17670  0.17360  1.0000
  H   H11       1.0  0.84356  0.14567  0.13350  1.0000
  H   H12       1.0  0.86775  0.16960  0.13361  1.0000
  C   C13       1.0  0.12460  0.88923  0.34551  1.0000
  C   C14       1.0  0.15317  0.86032  0.26192  1.0000
  C   C15       1.0  0.13412  0.87955  0.26341  1.0000
  H   H13       1.0  0.12704  0.88665  0.20377  1.0000
  C   C16       1.0  0.16188  0.85149  0.17111  1.0000
  H   H14       1.0  0.17657  0.83665  0.17360  1.0000
  H   H15       1.0  0.16978  0.86768  0.13350  1.0000
  H   H16       1.0  0.14559  0.84374  0.13361  1.0000
  C   C17       1.0  0.10040  0.99335  0.26501  1.0000
  C   C18       1.0  0.10000  0.02042  0.26358  1.0000
  C   C19       1.0  0.09913  0.03394  0.34731  1.0000
  H   H17       1.0  0.09937  0.98333  0.20554  1.0000
  C   C20       1.0  0.09907  0.03382  0.17456  1.0000
  H   H18       1.0  0.10042  0.02065  0.11738  1.0000
  H   H19       1.0  0.11503  0.04728  0.16958  1.0000
  H   H20       1.0  0.08109  0.04438  0.16799  1.0000
  C   C21       1.0  0.91295  0.01998  0.26506  1.0000
  C   C22       1.0  0.91334  0.99291  0.26362  1.0000
  C   C23       1.0  0.91421  0.97940  0.34735  1.0000
  H   H21       1.0  0.91398  0.03001  0.20559  1.0000
  C   C24       1.0  0.91428  0.97952  0.17458  1.0000
  H   H22       1.0  0.91293  0.99269  0.11741  1.0000
  H   H23       1.0  0.89832  0.96606  0.16959  1.0000
  H   H24       1.0  0.93226  0.96896  0.16803  1.0000
  C   C25       1.0  0.01998  0.10039  0.26507  1.0000
  C   C26       1.0  0.99291  0.10000  0.26362  1.0000
  C   C27       1.0  0.97940  0.09914  0.34735  1.0000
  H   H25       1.0  0.03001  0.09936  0.20560  1.0000
  C   C28       1.0  0.97952  0.09906  0.17458  1.0000
  H   H26       1.0  0.99269  0.10040  0.11741  1.0000
  H   H27       1.0  0.96606  0.11502  0.16958  1.0000
  H   H28       1.0  0.96896  0.08108  0.16803  1.0000
  C   C29       1.0  0.99336  0.91295  0.26507  1.0000
  C   C30       1.0  0.02043  0.91334  0.26362  1.0000
  C   C31       1.0  0.03394  0.91420  0.34737  1.0000
  H   H29       1.0  0.98333  0.91398  0.20560  1.0000
  C   C32       1.0  0.03382  0.91427  0.17460  1.0000
  H   H30       1.0  0.02065  0.91293  0.11742  1.0000
  H   H31       1.0  0.04728  0.89831  0.16960  1.0000
  H   H32       1.0  0.04438  0.93226  0.16803  1.0000
  C   C33       1.0  0.17156  0.29161  0.26551  1.0000
  C   C34       1.0  0.18101  0.26615  0.26422  1.0000
  C   C35       1.0  0.18588  0.25337  0.34776  1.0000
  H   H33       1.0  0.16898  0.30127  0.20590  1.0000
  C   C36       1.0  0.18604  0.25363  0.17536  1.0000
  H   H34       1.0  0.18170  0.26609  0.11807  1.0000
  H   H35       1.0  0.17426  0.23643  0.16876  1.0000
  H   H36       1.0  0.20622  0.24822  0.17066  1.0000
  C   C37       1.0  0.84177  0.72173  0.26549  1.0000
  C   C38       1.0  0.83232  0.74719  0.26423  1.0000
  C   C39       1.0  0.82746  0.75997  0.34778  1.0000
  H   H37       1.0  0.84435  0.71207  0.20590  1.0000
  C   C40       1.0  0.82730  0.75971  0.17537  1.0000
  H   H38       1.0  0.83164  0.74726  0.11807  1.0000
  H   H39       1.0  0.83909  0.77692  0.16878  1.0000
  H   H40       1.0  0.80712  0.76513  0.17066  1.0000
  C   C41       1.0  0.72173  0.17157  0.26550  1.0000
  C   C42       1.0  0.74719  0.18102  0.26423  1.0000
  C   C43       1.0  0.75996  0.18588  0.34778  1.0000
  H   H41       1.0  0.71207  0.16899  0.20590  1.0000
  C   C44       1.0  0.75971  0.18604  0.17537  1.0000
  H   H42       1.0  0.74725  0.18170  0.11808  1.0000
  H   H43       1.0  0.77691  0.17425  0.16878  1.0000
  H   H44       1.0  0.76513  0.20622  0.17067  1.0000
  C   C45       1.0  0.29160  0.84178  0.26549  1.0000
  C   C46       1.0  0.26615  0.83232  0.26421  1.0000
  C   C47       1.0  0.25338  0.82745  0.34776  1.0000
  H   H45       1.0  0.30126  0.84435  0.20588  1.0000
  C   C48       1.0  0.25363  0.82729  0.17535  1.0000
  H   H46       1.0  0.26609  0.83163  0.11806  1.0000
  H   H47       1.0  0.23642  0.83907  0.16875  1.0000
  H   H48       1.0  0.24822  0.80711  0.17066  1.0000
  C   C49       1.0  0.84693  0.30447  0.34652  1.0000
  C   C50       1.0  0.83247  0.26616  0.26279  1.0000
  C   C51       1.0  0.84189  0.29162  0.26466  1.0000
  H   H49       1.0  0.84463  0.30127  0.20504  1.0000
  C   C52       1.0  0.82804  0.25466  0.17184  1.0000
  H   H50       1.0  0.82055  0.23516  0.17407  1.0000
  H   H51       1.0  0.84606  0.25418  0.13433  1.0000
  H   H52       1.0  0.81428  0.26634  0.13441  1.0000
  C   C53       1.0  0.16641  0.70888  0.34651  1.0000
  C   C54       1.0  0.18087  0.74718  0.26277  1.0000
  C   C55       1.0  0.17145  0.72172  0.26464  1.0000
  H   H53       1.0  0.16872  0.71208  0.20502  1.0000
  C   C56       1.0  0.18530  0.75868  0.17182  1.0000
  H   H54       1.0  0.19279  0.77818  0.17405  1.0000
  H   H55       1.0  0.16728  0.75916  0.13430  1.0000
  H   H56       1.0  0.19907  0.74701  0.13440  1.0000
  C   C57       1.0  0.30446  0.16640  0.34657  1.0000
  C   C58       1.0  0.26616  0.18087  0.26281  1.0000
  C   C59       1.0  0.29163  0.17145  0.26469  1.0000
  H   H57       1.0  0.30127  0.16871  0.20507  1.0000
  C   C60       1.0  0.25467  0.18530  0.17184  1.0000
  H   H58       1.0  0.23517  0.19279  0.17406  1.0000
  H   H59       1.0  0.25420  0.16728  0.13432  1.0000
  H   H60       1.0  0.26634  0.19907  0.13443  1.0000
  C   C61       1.0  0.70888  0.84692  0.34647  1.0000
  C   C62       1.0  0.74719  0.83247  0.26276  1.0000
  C   C63       1.0  0.72172  0.84189  0.26461  1.0000
  H   H61       1.0  0.71208  0.84463  0.20500  1.0000
  C   C64       1.0  0.75869  0.82805  0.17182  1.0000
  H   H62       1.0  0.77819  0.82056  0.17406  1.0000
  H   H63       1.0  0.75917  0.84607  0.13431  1.0000
  H   H64       1.0  0.74702  0.81428  0.13437  1.0000
  C   C65       1.0  0.38380  0.09410  0.26550  1.0000
  C   C66       1.0  0.39338  0.06855  0.26430  1.0000
  C   C67       1.0  0.39839  0.05540  0.34728  1.0000
  H   H65       1.0  0.38015  0.10332  0.20575  1.0000
  C   C68       1.0  0.39824  0.05606  0.17535  1.0000
  H   H66       1.0  0.39310  0.06826  0.11817  1.0000
  H   H67       1.0  0.38700  0.03846  0.17021  1.0000
  H   H68       1.0  0.41855  0.05133  0.16896  1.0000
  C   C69       1.0  0.62952  0.91922  0.26582  1.0000
  C   C70       1.0  0.61995  0.94478  0.26469  1.0000
  C   C71       1.0  0.61498  0.95793  0.34771  1.0000
  H   H69       1.0  0.63314  0.91002  0.20603  1.0000
  C   C72       1.0  0.61510  0.95729  0.17577  1.0000
  H   H70       1.0  0.62022  0.94510  0.11856  1.0000
  H   H71       1.0  0.62635  0.97488  0.17065  1.0000
  H   H72       1.0  0.59479  0.96205  0.16942  1.0000
  C   C73       1.0  0.91925  0.38380  0.26553  1.0000
  C   C74       1.0  0.94480  0.39338  0.26432  1.0000
  C   C75       1.0  0.95795  0.39839  0.34730  1.0000
  H   H73       1.0  0.91003  0.38014  0.20577  1.0000
  C   C76       1.0  0.95729  0.39823  0.17536  1.0000
  H   H74       1.0  0.94510  0.39309  0.11819  1.0000
  H   H75       1.0  0.97489  0.38700  0.17023  1.0000
  H   H76       1.0  0.96203  0.41854  0.16897  1.0000
  C   C77       1.0  0.09411  0.62952  0.26580  1.0000
  C   C78       1.0  0.06855  0.61995  0.26468  1.0000
  C   C79       1.0  0.05539  0.61498  0.34769  1.0000
  H   H77       1.0  0.10331  0.63314  0.20602  1.0000
  C   C80       1.0  0.05604  0.61509  0.17576  1.0000
  H   H78       1.0  0.06824  0.62021  0.11855  1.0000
  H   H79       1.0  0.03845  0.62634  0.17062  1.0000
  H   H80       1.0  0.05128  0.59478  0.16943  1.0000
  C   C81       1.0  0.63401  0.10733  0.34651  1.0000
  C   C82       1.0  0.61963  0.06858  0.26306  1.0000
  C   C83       1.0  0.62910  0.09417  0.26501  1.0000
  H   H81       1.0  0.63239  0.10359  0.20532  1.0000
  C   C84       1.0  0.61480  0.05738  0.17198  1.0000
  H   H82       1.0  0.60803  0.03762  0.17389  1.0000
  H   H83       1.0  0.63250  0.05763  0.13259  1.0000
  H   H84       1.0  0.60038  0.06879  0.13670  1.0000
  C   C85       1.0  0.37936  0.90602  0.34627  1.0000
  C   C86       1.0  0.39377  0.94474  0.26276  1.0000
  C   C87       1.0  0.38428  0.91916  0.26475  1.0000
  H   H85       1.0  0.38100  0.90973  0.20508  1.0000
  C   C88       1.0  0.39865  0.95592  0.17167  1.0000
  H   H86       1.0  0.40544  0.97567  0.17354  1.0000
  H   H87       1.0  0.38097  0.95567  0.13216  1.0000
  H   H88       1.0  0.41309  0.94449  0.13652  1.0000
  C   C89       1.0  0.10734  0.37936  0.34627  1.0000
  C   C90       1.0  0.06862  0.39376  0.26276  1.0000
  C   C91       1.0  0.09420  0.38428  0.26476  1.0000
  H   H89       1.0  0.10363  0.38101  0.20509  1.0000
  C   C92       1.0  0.05743  0.39865  0.17168  1.0000
  H   H90       1.0  0.03768  0.40543  0.17355  1.0000
  H   H91       1.0  0.05769  0.38096  0.13217  1.0000
  H   H92       1.0  0.06886  0.41308  0.13653  1.0000
  C   C93       1.0  0.90600  0.63400  0.34651  1.0000
  C   C94       1.0  0.94475  0.61962  0.26306  1.0000
  C   C95       1.0  0.91916  0.62910  0.26501  1.0000
  H   H93       1.0  0.90974  0.63239  0.20532  1.0000
  C   C96       1.0  0.95595  0.61480  0.17198  1.0000
  H   H94       1.0  0.97571  0.60803  0.17389  1.0000
  H   H95       1.0  0.95571  0.63250  0.13259  1.0000
  H   H96       1.0  0.94454  0.60038  0.13669  1.0000
  C   C97       1.0  0.52032  0.00664  0.26495  1.0000
  C   C98       1.0  0.49313  0.00668  0.26360  1.0000
  C   C99       1.0  0.47934  0.00672  0.34696  1.0000
  H   H97       1.0  0.53031  0.00663  0.20536  1.0000
  C   C100      1.0  0.47971  0.00670  0.17464  1.0000
  H   H98       1.0  0.49293  0.00668  0.11744  1.0000
  H   H99       1.0  0.46768  0.02376  0.16892  1.0000
  H   H100      1.0  0.46762  0.98969  0.16890  1.0000
  C   C101      1.0  0.00670  0.52031  0.26496  1.0000
  C   C102      1.0  0.00667  0.49313  0.26360  1.0000
  C   C103      1.0  0.00663  0.47934  0.34697  1.0000
  H   H101      1.0  0.00672  0.53031  0.20536  1.0000
  C   C104      1.0  0.00665  0.47970  0.17465  1.0000
  H   H102      1.0  0.00667  0.49293  0.11744  1.0000
  H   H103      1.0  0.98959  0.46768  0.16893  1.0000
  H   H104      1.0  0.02367  0.46762  0.16891  1.0000
  C   C105      1.0  0.20332  0.38940  0.34652  1.0000
  C   C106      1.0  0.24243  0.40235  0.26314  1.0000
  C   C107      1.0  0.21667  0.39358  0.26494  1.0000
  H   H105      1.0  0.20764  0.38927  0.20528  1.0000
  C   C108      1.0  0.25422  0.40584  0.17217  1.0000
  H   H106      1.0  0.27399  0.41259  0.17431  1.0000
  H   H107      1.0  0.24312  0.41983  0.13364  1.0000
  H   H108      1.0  0.25408  0.38762  0.13582  1.0000
  C   C109      1.0  0.81005  0.62392  0.34657  1.0000
  C   C110      1.0  0.77090  0.61101  0.26318  1.0000
  C   C111      1.0  0.79666  0.61977  0.26503  1.0000
  H   H109      1.0  0.80569  0.62408  0.20536  1.0000
  C   C112      1.0  0.75911  0.60753  0.17221  1.0000
  H   H110      1.0  0.73934  0.60079  0.17432  1.0000
  H   H111      1.0  0.77021  0.59355  0.13365  1.0000
  H   H112      1.0  0.75926  0.62576  0.13589  1.0000
  C   C113      1.0  0.62392  0.20328  0.34657  1.0000
  C   C114      1.0  0.61100  0.24243  0.26318  1.0000
  C   C115      1.0  0.61976  0.21667  0.26503  1.0000
  H   H113      1.0  0.62407  0.20765  0.20537  1.0000
  C   C116      1.0  0.60752  0.25422  0.17221  1.0000
  H   H114      1.0  0.60078  0.27399  0.17433  1.0000
  H   H115      1.0  0.59354  0.24312  0.13365  1.0000
  H   H116      1.0  0.62576  0.25407  0.13590  1.0000
  C   C117      1.0  0.38942  0.81005  0.34652  1.0000
  C   C118      1.0  0.40233  0.77090  0.26316  1.0000
  C   C119      1.0  0.39357  0.79666  0.26499  1.0000
  H   H117      1.0  0.38927  0.80569  0.20531  1.0000
  C   C120      1.0  0.40581  0.75911  0.17219  1.0000
  H   H118      1.0  0.41255  0.73934  0.17431  1.0000
  H   H119      1.0  0.41980  0.77020  0.13364  1.0000
  H   H120      1.0  0.38758  0.75926  0.13585  1.0000
  C   C121      1.0  0.79635  0.39359  0.26525  1.0000
  C   C122      1.0  0.77058  0.40235  0.26387  1.0000
  C   C123      1.0  0.75737  0.40662  0.34707  1.0000
  H   H121      1.0  0.80533  0.38923  0.20563  1.0000
  C   C124      1.0  0.75771  0.40616  0.17493  1.0000
  H   H122      1.0  0.77025  0.40195  0.11773  1.0000
  H   H123      1.0  0.75144  0.42605  0.16850  1.0000
  H   H124      1.0  0.74101  0.39361  0.16989  1.0000
  C   C125      1.0  0.21698  0.61978  0.26541  1.0000
  C   C126      1.0  0.24275  0.61101  0.26398  1.0000
  C   C127      1.0  0.25596  0.60672  0.34716  1.0000
  H   H125      1.0  0.20799  0.62415  0.20581  1.0000
  C   C128      1.0  0.25560  0.60721  0.17501  1.0000
  H   H126      1.0  0.24306  0.61144  0.11784  1.0000
  H   H127      1.0  0.26186  0.58732  0.16853  1.0000
  H   H128      1.0  0.27231  0.61975  0.16997  1.0000
  C   C129      1.0  0.39357  0.21698  0.26537  1.0000
  C   C130      1.0  0.40233  0.24275  0.26396  1.0000
  C   C131      1.0  0.40662  0.25596  0.34714  1.0000
  H   H129      1.0  0.38920  0.20799  0.20577  1.0000
  C   C132      1.0  0.40614  0.25561  0.17499  1.0000
  H   H130      1.0  0.40191  0.24306  0.11781  1.0000
  H   H131      1.0  0.42602  0.26187  0.16852  1.0000
  H   H132      1.0  0.39359  0.27231  0.16995  1.0000
  C   C133      1.0  0.61976  0.79636  0.26533  1.0000
  C   C134      1.0  0.61098  0.77059  0.26395  1.0000
  C   C135      1.0  0.60669  0.75738  0.34714  1.0000
  H   H133      1.0  0.62413  0.80535  0.20573  1.0000
  C   C136      1.0  0.60717  0.75774  0.17498  1.0000
  H   H134      1.0  0.61139  0.77028  0.11780  1.0000
  H   H135      1.0  0.58727  0.75148  0.16854  1.0000
  H   H136      1.0  0.61970  0.74103  0.16993  1.0000
  C   C137      1.0  0.31656  0.52030  0.26562  1.0000
  C   C138      1.0  0.31635  0.49304  0.26446  1.0000
  C   C139      1.0  0.31607  0.47909  0.34761  1.0000
  H   H137      1.0  0.31586  0.53020  0.20589  1.0000
  C   C140      1.0  0.31561  0.47962  0.17556  1.0000
  H   H138      1.0  0.31631  0.49281  0.11831  1.0000
  H   H139      1.0  0.29797  0.46846  0.16977  1.0000
  H   H140      1.0  0.33200  0.46669  0.16992  1.0000
  C   C141      1.0  0.69678  0.49304  0.26567  1.0000
  C   C142      1.0  0.69700  0.52029  0.26449  1.0000
  C   C143      1.0  0.69728  0.53424  0.34764  1.0000
  H   H141      1.0  0.69749  0.48313  0.20594  1.0000
  C   C144      1.0  0.69775  0.53372  0.17558  1.0000
  H   H142      1.0  0.69704  0.52052  0.11834  1.0000
  H   H143      1.0  0.71539  0.54487  0.16981  1.0000
  H   H144      1.0  0.68136  0.54664  0.16994  1.0000
  C   C145      1.0  0.49304  0.31656  0.26563  1.0000
  C   C146      1.0  0.52029  0.31634  0.26447  1.0000
  C   C147      1.0  0.53424  0.31606  0.34763  1.0000
  H   H145      1.0  0.48314  0.31586  0.20590  1.0000
  C   C148      1.0  0.53372  0.31561  0.17556  1.0000
  H   H146      1.0  0.52053  0.31631  0.11832  1.0000
  H   H147      1.0  0.54488  0.29797  0.16978  1.0000
  H   H148      1.0  0.54665  0.33199  0.16994  1.0000
  C   C149      1.0  0.52029  0.69678  0.26565  1.0000
  C   C150      1.0  0.49304  0.69700  0.26447  1.0000
  C   C151      1.0  0.47909  0.69728  0.34763  1.0000
  H   H149      1.0  0.53020  0.69748  0.20592  1.0000
  C   C152      1.0  0.47962  0.69775  0.17557  1.0000
  H   H150      1.0  0.49281  0.69705  0.11832  1.0000
  H   H151      1.0  0.46846  0.71540  0.16981  1.0000
  H   H152      1.0  0.46668  0.68137  0.16991  1.0000
  C   C153      1.0  0.38873  0.34954  0.34612  1.0000
  C   C154      1.0  0.35926  0.37859  0.26294  1.0000
  C   C155      1.0  0.37858  0.35933  0.26472  1.0000
  H   H153      1.0  0.38525  0.35194  0.20498  1.0000
  C   C156      1.0  0.35024  0.38689  0.17195  1.0000
  H   H154      1.0  0.33565  0.40184  0.17400  1.0000
  H   H155      1.0  0.34211  0.37050  0.13602  1.0000
  H   H156      1.0  0.36641  0.39431  0.13307  1.0000
  C   C157      1.0  0.62462  0.66381  0.34614  1.0000
  C   C158      1.0  0.65407  0.63475  0.26296  1.0000
  C   C159      1.0  0.63476  0.65402  0.26474  1.0000
  H   H157      1.0  0.62810  0.66141  0.20500  1.0000
  C   C160      1.0  0.66310  0.62645  0.17196  1.0000
  H   H158      1.0  0.67767  0.61148  0.17401  1.0000
  H   H159      1.0  0.67123  0.64284  0.13605  1.0000
  H   H160      1.0  0.64692  0.61904  0.13307  1.0000
  C   C161      1.0  0.66380  0.38873  0.34614  1.0000
  C   C162      1.0  0.63475  0.35926  0.26295  1.0000
  C   C163      1.0  0.65401  0.37858  0.26474  1.0000
  H   H161      1.0  0.66141  0.38524  0.20500  1.0000
  C   C164      1.0  0.62646  0.35023  0.17196  1.0000
  H   H162      1.0  0.61150  0.33565  0.17400  1.0000
  H   H163      1.0  0.64285  0.34210  0.13606  1.0000
  H   H164      1.0  0.61904  0.36640  0.13306  1.0000
  C   C165      1.0  0.34954  0.62461  0.34612  1.0000
  C   C166      1.0  0.37860  0.65407  0.26295  1.0000
  C   C167      1.0  0.35933  0.63475  0.26472  1.0000
  H   H165      1.0  0.35193  0.62809  0.20498  1.0000
  C   C168      1.0  0.38689  0.66310  0.17196  1.0000
  H   H166      1.0  0.40185  0.67767  0.17400  1.0000
  H   H167      1.0  0.37050  0.67122  0.13604  1.0000
  H   H168      1.0  0.39431  0.64692  0.13306  1.0000
  C   C169      1.0  0.09294  0.06032  0.34649  1.0000
  C   C170      1.0  0.06687  0.06746  0.34741  1.0000
  C   C171      1.0  0.05978  0.09354  0.34678  1.0000
  C   C172      1.0  0.07889  0.11263  0.34580  1.0000
  C   C173      1.0  0.10503  0.10557  0.34536  1.0000
  C   C174      1.0  0.11205  0.07942  0.34550  1.0000
  H   H169      1.0  0.07376  0.13162  0.34570  1.0000
  H   H170      1.0  0.13103  0.07425  0.34537  1.0000
  H   H171      1.0  0.05294  0.05354  0.34819  1.0000
  C   C175      1.0  0.92040  0.95302  0.34650  1.0000
  C   C176      1.0  0.94647  0.94587  0.34741  1.0000
  C   C177      1.0  0.95356  0.91980  0.34677  1.0000
  C   C178      1.0  0.93445  0.90071  0.34578  1.0000
  C   C179      1.0  0.90831  0.90777  0.34535  1.0000
  C   C180      1.0  0.90128  0.93392  0.34551  1.0000
  H   H172      1.0  0.93958  0.88172  0.34569  1.0000
  H   H173      1.0  0.88231  0.93909  0.34539  1.0000
  H   H174      1.0  0.96040  0.95980  0.34821  1.0000
  C   C181      1.0  0.95301  0.09294  0.34649  1.0000
  C   C182      1.0  0.94587  0.06687  0.34742  1.0000
  C   C183      1.0  0.91979  0.05978  0.34677  1.0000
  C   C184      1.0  0.90071  0.07889  0.34578  1.0000
  C   C185      1.0  0.90777  0.10503  0.34535  1.0000
  C   C186      1.0  0.93392  0.11206  0.34551  1.0000
  H   H175      1.0  0.88172  0.07376  0.34568  1.0000
  H   H176      1.0  0.93908  0.13103  0.34539  1.0000
  H   H177      1.0  0.95980  0.05294  0.34820  1.0000
  C   C187      1.0  0.06032  0.92040  0.34651  1.0000
  C   C188      1.0  0.06746  0.94647  0.34741  1.0000
  C   C189      1.0  0.09354  0.95356  0.34675  1.0000
  C   C190      1.0  0.11263  0.93445  0.34577  1.0000
  C   C191      1.0  0.10557  0.90831  0.34536  1.0000
  C   C192      1.0  0.07942  0.90128  0.34554  1.0000
  H   H178      1.0  0.13161  0.93958  0.34565  1.0000
  H   H179      1.0  0.07425  0.88231  0.34541  1.0000
  H   H180      1.0  0.05354  0.96040  0.34818  1.0000
  C   C193      1.0  0.18178  0.18182  0.34660  1.0000
  C   C194      1.0  0.20790  0.17486  0.34607  1.0000
  C   C195      1.0  0.22719  0.19383  0.34670  1.0000
  C   C196      1.0  0.22001  0.22004  0.34718  1.0000
  C   C197      1.0  0.19381  0.22723  0.34726  1.0000
  C   C198      1.0  0.17483  0.20794  0.34718  1.0000
  H   H181      1.0  0.23391  0.23393  0.34736  1.0000
  H   H182      1.0  0.15579  0.21293  0.34728  1.0000
  H   H183      1.0  0.21287  0.15582  0.34542  1.0000
  C   C199      1.0  0.83156  0.83152  0.34662  1.0000
  C   C200      1.0  0.80544  0.83848  0.34608  1.0000
  C   C201      1.0  0.78614  0.81950  0.34671  1.0000
  C   C202      1.0  0.79332  0.79330  0.34719  1.0000
  C   C203      1.0  0.81953  0.78611  0.34728  1.0000
  C   C204      1.0  0.83851  0.80540  0.34719  1.0000
  H   H184      1.0  0.77943  0.77941  0.34736  1.0000
  H   H185      1.0  0.85754  0.80041  0.34730  1.0000
  H   H186      1.0  0.80047  0.85752  0.34543  1.0000
  C   C205      1.0  0.83152  0.18179  0.34662  1.0000
  C   C206      1.0  0.83848  0.20790  0.34609  1.0000
  C   C207      1.0  0.81950  0.22720  0.34672  1.0000
  C   C208      1.0  0.79330  0.22002  0.34720  1.0000
  C   C209      1.0  0.78611  0.19381  0.34728  1.0000
  C   C210      1.0  0.80540  0.17484  0.34719  1.0000
  H   H187      1.0  0.77940  0.23391  0.34738  1.0000
  H   H188      1.0  0.80041  0.15580  0.34729  1.0000
  H   H189      1.0  0.85751  0.21288  0.34543  1.0000
  C   C211      1.0  0.18182  0.83156  0.34662  1.0000
  C   C212      1.0  0.17486  0.80544  0.34608  1.0000
  C   C213      1.0  0.19383  0.78614  0.34670  1.0000
  C   C214      1.0  0.22004  0.79332  0.34718  1.0000
  C   C215      1.0  0.22723  0.81953  0.34727  1.0000
  C   C216      1.0  0.20794  0.83851  0.34718  1.0000
  H   H190      1.0  0.23393  0.77943  0.34735  1.0000
  H   H191      1.0  0.21293  0.85754  0.34729  1.0000
  H   H192      1.0  0.15582  0.80047  0.34543  1.0000
  C   C217      1.0  0.45191  0.00676  0.34636  1.0000
  C   C218      1.0  0.43812  0.98342  0.34577  1.0000
  C   C219      1.0  0.41097  0.98291  0.34593  1.0000
  C   C220      1.0  0.39770  0.00681  0.34620  1.0000
  C   C221      1.0  0.41102  0.03069  0.34666  1.0000
  C   C222      1.0  0.43817  0.03012  0.34713  1.0000
  H   H193      1.0  0.37807  0.00683  0.34614  1.0000
  H   H194      1.0  0.44818  0.04706  0.34775  1.0000
  H   H195      1.0  0.44809  0.96646  0.34550  1.0000
  C   C223      1.0  0.56145  0.00658  0.34667  1.0000
  C   C224      1.0  0.57524  0.02991  0.34590  1.0000
  C   C225      1.0  0.60240  0.03042  0.34628  1.0000
  C   C226      1.0  0.61567  0.00652  0.34674  1.0000
  C   C227      1.0  0.60235  0.98265  0.34716  1.0000
  C   C228      1.0  0.57519  0.98321  0.34749  1.0000
  H   H196      1.0  0.63530  0.00650  0.34676  1.0000
  H   H197      1.0  0.56519  0.96627  0.34799  1.0000
  H   H198      1.0  0.56527  0.04688  0.34539  1.0000
  C   C229      1.0  0.00660  0.45191  0.34637  1.0000
  C   C230      1.0  0.02993  0.43811  0.34576  1.0000
  C   C231      1.0  0.03044  0.41096  0.34593  1.0000
  C   C232      1.0  0.00654  0.39769  0.34622  1.0000
  C   C233      1.0  0.98266  0.41101  0.34668  1.0000
  C   C234      1.0  0.98323  0.43816  0.34714  1.0000
  H   H199      1.0  0.00652  0.37806  0.34616  1.0000
  H   H200      1.0  0.96629  0.44817  0.34777  1.0000
  H   H201      1.0  0.04689  0.44809  0.34551  1.0000
  C   C235      1.0  0.00676  0.56145  0.34667  1.0000
  C   C236      1.0  0.98342  0.57523  0.34589  1.0000
  C   C237      1.0  0.98291  0.60239  0.34628  1.0000
  C   C238      1.0  0.00681  0.61567  0.34673  1.0000
  C   C239      1.0  0.03068  0.60235  0.34716  1.0000
  C   C240      1.0  0.03012  0.57519  0.34749  1.0000
  H   H202      1.0  0.00682  0.63529  0.34674  1.0000
  H   H203      1.0  0.04706  0.56519  0.34799  1.0000
  H   H204      1.0  0.96646  0.56527  0.34540  1.0000
  C   C241      1.0  0.28175  0.41548  0.34689  1.0000
  C   C242      1.0  0.30273  0.39819  0.34617  1.0000
  C   C243      1.0  0.32850  0.40696  0.34644  1.0000
  C   C244      1.0  0.33287  0.43389  0.34672  1.0000
  C   C245      1.0  0.31226  0.45172  0.34709  1.0000
  C   C246      1.0  0.28687  0.44210  0.34740  1.0000
  H   H205      1.0  0.35132  0.44061  0.34666  1.0000
  H   H206      1.0  0.27179  0.45473  0.34769  1.0000
  H   H207      1.0  0.29915  0.37886  0.34560  1.0000
  C   C247      1.0  0.73158  0.59786  0.34691  1.0000
  C   C248      1.0  0.71059  0.61515  0.34618  1.0000
  C   C249      1.0  0.68483  0.60637  0.34645  1.0000
  C   C250      1.0  0.68047  0.57944  0.34673  1.0000
  C   C251      1.0  0.70108  0.56161  0.34710  1.0000
  C   C252      1.0  0.72646  0.57124  0.34741  1.0000
  H   H208      1.0  0.66202  0.57272  0.34668  1.0000
  H   H209      1.0  0.74155  0.55861  0.34771  1.0000
  H   H210      1.0  0.71417  0.63448  0.34562  1.0000
  C   C253      1.0  0.59786  0.28175  0.34691  1.0000
  C   C254      1.0  0.61515  0.30273  0.34618  1.0000
  C   C255      1.0  0.60637  0.32850  0.34645  1.0000
  C   C256      1.0  0.57945  0.33287  0.34672  1.0000
  C   C257      1.0  0.56161  0.31226  0.34709  1.0000
  C   C258      1.0  0.57124  0.28687  0.34741  1.0000
  H   H211      1.0  0.57272  0.35132  0.34667  1.0000
  H   H212      1.0  0.55860  0.27179  0.34770  1.0000
  H   H213      1.0  0.63448  0.29916  0.34562  1.0000
  C   C259      1.0  0.41547  0.73158  0.34689  1.0000
  C   C260      1.0  0.39818  0.71060  0.34618  1.0000
  C   C261      1.0  0.40697  0.68483  0.34645  1.0000
  C   C262      1.0  0.43389  0.68047  0.34672  1.0000
  C   C263      1.0  0.45172  0.70108  0.34709  1.0000
  C   C264      1.0  0.44209  0.72646  0.34740  1.0000
  H   H214      1.0  0.44062  0.66202  0.34668  1.0000
  H   H215      1.0  0.45472  0.74155  0.34770  1.0000
  H   H216      1.0  0.37885  0.71417  0.34560  1.0000
  C   C265      1.0  0.73129  0.41548  0.34651  1.0000
  C   C266      1.0  0.71032  0.39817  0.34637  1.0000
  C   C267      1.0  0.68455  0.40693  0.34626  1.0000
  C   C268      1.0  0.68016  0.43385  0.34634  1.0000
  C   C269      1.0  0.70075  0.45170  0.34663  1.0000
  C   C270      1.0  0.72614  0.44211  0.34683  1.0000
  H   H217      1.0  0.66170  0.44056  0.34631  1.0000
  H   H218      1.0  0.74122  0.45474  0.34717  1.0000
  H   H219      1.0  0.71392  0.37884  0.34641  1.0000
  C   C271      1.0  0.28204  0.59785  0.34653  1.0000
  C   C272      1.0  0.30301  0.61517  0.34639  1.0000
  C   C273      1.0  0.32878  0.60640  0.34624  1.0000
  C   C274      1.0  0.33318  0.57949  0.34630  1.0000
  C   C275      1.0  0.31258  0.56163  0.34661  1.0000
  C   C276      1.0  0.28719  0.57123  0.34684  1.0000
  H   H220      1.0  0.35163  0.57278  0.34625  1.0000
  H   H221      1.0  0.27211  0.55859  0.34718  1.0000
  H   H222      1.0  0.29942  0.63449  0.34645  1.0000
  C   C277      1.0  0.41548  0.28204  0.34652  1.0000
  C   C278      1.0  0.39817  0.30301  0.34638  1.0000
  C   C279      1.0  0.40693  0.32878  0.34624  1.0000
  C   C280      1.0  0.43385  0.33318  0.34630  1.0000
  C   C281      1.0  0.45170  0.31258  0.34661  1.0000
  C   C282      1.0  0.44211  0.28719  0.34683  1.0000
  H   H223      1.0  0.44056  0.35164  0.34626  1.0000
  H   H224      1.0  0.45474  0.27211  0.34718  1.0000
  H   H225      1.0  0.37884  0.29941  0.34644  1.0000
  C   C283      1.0  0.59784  0.73130  0.34653  1.0000
  C   C284      1.0  0.61516  0.71033  0.34639  1.0000
  C   C285      1.0  0.60641  0.68456  0.34626  1.0000
  C   C286      1.0  0.57950  0.68016  0.34632  1.0000
  C   C287      1.0  0.56163  0.70074  0.34662  1.0000
  C   C288      1.0  0.57122  0.72614  0.34684  1.0000
  H   H226      1.0  0.57280  0.66169  0.34628  1.0000
  H   H227      1.0  0.55857  0.74121  0.34718  1.0000
  H   H228      1.0  0.63449  0.71394  0.34645  1.0000
  C   C289      1.0  0.16155  0.33126  0.34700  1.0000
  C   C290      1.0  0.18300  0.34770  0.34691  1.0000
  C   C291      1.0  0.18022  0.37461  0.34662  1.0000
  C   C292      1.0  0.15505  0.38508  0.34633  1.0000
  C   C293      1.0  0.13294  0.36904  0.34655  1.0000
  C   C294      1.0  0.13664  0.34206  0.34691  1.0000
  H   H229      1.0  0.15283  0.40458  0.34607  1.0000
  H   H230      1.0  0.12104  0.33011  0.34699  1.0000
  H   H231      1.0  0.20108  0.33986  0.34703  1.0000
  C   C295      1.0  0.85178  0.68209  0.34705  1.0000
  C   C296      1.0  0.83034  0.66563  0.34692  1.0000
  C   C297      1.0  0.83313  0.63872  0.34670  1.0000
  C   C298      1.0  0.85830  0.62827  0.34649  1.0000
  C   C299      1.0  0.88041  0.64432  0.34673  1.0000
  C   C300      1.0  0.87670  0.67129  0.34704  1.0000
  H   H232      1.0  0.86054  0.60876  0.34626  1.0000
  H   H233      1.0  0.89229  0.68325  0.34712  1.0000
  H   H234      1.0  0.81225  0.67346  0.34699  1.0000
  C   C301      1.0  0.68209  0.16155  0.34705  1.0000
  C   C302      1.0  0.66563  0.18299  0.34693  1.0000
  C   C303      1.0  0.63872  0.18020  0.34670  1.0000
  C   C304      1.0  0.62827  0.15503  0.34650  1.0000
  C   C305      1.0  0.64432  0.13292  0.34673  1.0000
  C   C306      1.0  0.67129  0.13664  0.34704  1.0000
  H   H235      1.0  0.60876  0.15279  0.34626  1.0000
  H   H236      1.0  0.68326  0.12104  0.34713  1.0000
  H   H237      1.0  0.67346  0.20108  0.34699  1.0000
  C   C307      1.0  0.33126  0.85180  0.34699  1.0000
  C   C308      1.0  0.34771  0.83036  0.34690  1.0000
  C   C309      1.0  0.37462  0.83314  0.34663  1.0000
  C   C310      1.0  0.38508  0.85831  0.34634  1.0000
  C   C311      1.0  0.36903  0.88042  0.34655  1.0000
  C   C312      1.0  0.34206  0.87672  0.34691  1.0000
  H   H238      1.0  0.40459  0.86054  0.34608  1.0000
  H   H239      1.0  0.33010  0.89231  0.34697  1.0000
  H   H240      1.0  0.33988  0.81227  0.34701  1.0000
  C   C313      1.0  0.85157  0.33131  0.34657  1.0000
  C   C314      1.0  0.83011  0.34774  0.34662  1.0000
  C   C315      1.0  0.83288  0.37466  0.34669  1.0000
  C   C316      1.0  0.85804  0.38514  0.34677  1.0000
  C   C317      1.0  0.88016  0.36911  0.34662  1.0000
  C   C318      1.0  0.87647  0.34213  0.34648  1.0000
  H   H241      1.0  0.86025  0.40465  0.34687  1.0000
  H   H242      1.0  0.89208  0.33019  0.34644  1.0000
  H   H243      1.0  0.81203  0.33990  0.34660  1.0000
  C   C319      1.0  0.16178  0.68203  0.34656  1.0000
  C   C320      1.0  0.18324  0.66561  0.34663  1.0000
  C   C321      1.0  0.18048  0.63869  0.34676  1.0000
  C   C322      1.0  0.15532  0.62821  0.34695  1.0000
  C   C323      1.0  0.13320  0.64423  0.34676  1.0000
  C   C324      1.0  0.13688  0.67121  0.34655  1.0000
  H   H244      1.0  0.15311  0.60869  0.34713  1.0000
  H   H245      1.0  0.12127  0.68315  0.34651  1.0000
  H   H246      1.0  0.20132  0.67346  0.34659  1.0000
  C   C325      1.0  0.33131  0.16177  0.34653  1.0000
  C   C326      1.0  0.34774  0.18323  0.34664  1.0000
  C   C327      1.0  0.37465  0.18048  0.34670  1.0000
  C   C328      1.0  0.38514  0.15531  0.34679  1.0000
  C   C329      1.0  0.36911  0.13319  0.34658  1.0000
  C   C330      1.0  0.34213  0.13687  0.34642  1.0000
  H   H247      1.0  0.40465  0.15310  0.34693  1.0000
  H   H248      1.0  0.33019  0.12126  0.34637  1.0000
  H   H249      1.0  0.33989  0.20131  0.34668  1.0000
  C   C331      1.0  0.68203  0.85155  0.34657  1.0000
  C   C332      1.0  0.66561  0.83009  0.34661  1.0000
  C   C333      1.0  0.63869  0.83285  0.34675  1.0000
  C   C334      1.0  0.62820  0.85801  0.34694  1.0000
  C   C335      1.0  0.64423  0.88013  0.34678  1.0000
  C   C336      1.0  0.67120  0.87645  0.34657  1.0000
  H   H250      1.0  0.60869  0.86022  0.34711  1.0000
  H   H251      1.0  0.68315  0.89206  0.34653  1.0000
  H   H252      1.0  0.67346  0.81201  0.34656  1.0000
  C   C337      1.0  0.13367  0.13411  0.42780  1.0000
  C   C338      1.0  0.15290  0.15316  0.42945  1.0000
  C   C339      1.0  0.16258  0.16268  0.34578  1.0000
  H   H253      1.0  0.12648  0.12700  0.48720  1.0000
  C   C340      1.0  0.16240  0.16258  0.51853  1.0000
  H   H254      1.0  0.15297  0.15325  0.57564  1.0000
  H   H255      1.0  0.15899  0.18316  0.52433  1.0000
  H   H256      1.0  0.18295  0.15893  0.52436  1.0000
  C   C341      1.0  0.87967  0.87923  0.42781  1.0000
  C   C342      1.0  0.86043  0.86018  0.42945  1.0000
  C   C343      1.0  0.85076  0.85066  0.34578  1.0000
  H   H257      1.0  0.88686  0.88634  0.48720  1.0000
  C   C344      1.0  0.85094  0.85077  0.51854  1.0000
  H   H258      1.0  0.86037  0.86009  0.57565  1.0000
  H   H259      1.0  0.85435  0.83018  0.52435  1.0000
  H   H260      1.0  0.83039  0.85441  0.52438  1.0000
  C   C345      1.0  0.87923  0.13367  0.42780  1.0000
  C   C346      1.0  0.86018  0.15291  0.42945  1.0000
  C   C347      1.0  0.85066  0.16259  0.34578  1.0000
  H   H261      1.0  0.88634  0.12648  0.48720  1.0000
  C   C348      1.0  0.85076  0.16241  0.51854  1.0000
  H   H262      1.0  0.86009  0.15298  0.57565  1.0000
  H   H263      1.0  0.83018  0.15900  0.52435  1.0000
  H   H264      1.0  0.85441  0.18295  0.52437  1.0000
  C   C349      1.0  0.13411  0.87967  0.42781  1.0000
  C   C350      1.0  0.15316  0.86044  0.42945  1.0000
  C   C351      1.0  0.16268  0.85076  0.34578  1.0000
  H   H265      1.0  0.12700  0.88686  0.48721  1.0000
  C   C352      1.0  0.16257  0.85094  0.51854  1.0000
  H   H266      1.0  0.15325  0.86037  0.57565  1.0000
  H   H267      1.0  0.18316  0.85435  0.52435  1.0000
  H   H268      1.0  0.15893  0.83039  0.52437  1.0000
  C   C353      1.0  0.09974  0.97981  0.34718  1.0000
  C   C354      1.0  0.09925  0.02040  0.43105  1.0000
  C   C355      1.0  0.09946  0.99335  0.42937  1.0000
  H   H269      1.0  0.09793  0.98333  0.48879  1.0000
  C   C356      1.0  0.09767  0.03277  0.52177  1.0000
  H   H270      1.0  0.09835  0.05364  0.51934  1.0000
  H   H271      1.0  0.11373  0.02641  0.56350  1.0000
  H   H272      1.0  0.07979  0.02722  0.55486  1.0000
  C   C357      1.0  0.91360  0.03353  0.34724  1.0000
  C   C358      1.0  0.91408  0.99293  0.43109  1.0000
  C   C359      1.0  0.91387  0.01999  0.42941  1.0000
  H   H273      1.0  0.91540  0.03000  0.48883  1.0000
  C   C360      1.0  0.91566  0.98056  0.52182  1.0000
  H   H274      1.0  0.91499  0.95969  0.51937  1.0000
  H   H275      1.0  0.89961  0.98692  0.56354  1.0000
  H   H276      1.0  0.93354  0.98611  0.55491  1.0000
  C   C361      1.0  0.03353  0.09974  0.34724  1.0000
  C   C362      1.0  0.99292  0.09926  0.43110  1.0000
  C   C363      1.0  0.01998  0.09947  0.42942  1.0000
  H   H277      1.0  0.03000  0.09794  0.48884  1.0000
  C   C364      1.0  0.98056  0.09768  0.52182  1.0000
  H   H278      1.0  0.95968  0.09835  0.51937  1.0000
  H   H279      1.0  0.98691  0.11373  0.56354  1.0000
  H   H280      1.0  0.98610  0.07980  0.55491  1.0000
  C   C365      1.0  0.97981  0.91360  0.34724  1.0000
  C   C366      1.0  0.02041  0.91408  0.43111  1.0000
  C   C367      1.0  0.99335  0.91387  0.42942  1.0000
  H   H281      1.0  0.98334  0.91540  0.48884  1.0000
  C   C368      1.0  0.03278  0.91566  0.52182  1.0000
  H   H282      1.0  0.05365  0.91498  0.51938  1.0000
  H   H283      1.0  0.02642  0.89961  0.56354  1.0000
  H   H284      1.0  0.02723  0.93354  0.55492  1.0000
  C   C369      1.0  0.16621  0.30441  0.34722  1.0000
  C   C370      1.0  0.18077  0.26618  0.43109  1.0000
  C   C371      1.0  0.17128  0.29162  0.42913  1.0000
  H   H285      1.0  0.16851  0.30127  0.48871  1.0000
  C   C372      1.0  0.18520  0.25470  0.52207  1.0000
  H   H286      1.0  0.19273  0.23522  0.51990  1.0000
  H   H287      1.0  0.16717  0.25418  0.55951  1.0000
  H   H288      1.0  0.19892  0.26641  0.55955  1.0000
  C   C373      1.0  0.84711  0.70893  0.34721  1.0000
  C   C374      1.0  0.83256  0.74716  0.43109  1.0000
  C   C375      1.0  0.84205  0.72172  0.42915  1.0000
  H   H289      1.0  0.84483  0.71207  0.48872  1.0000
  C   C376      1.0  0.82814  0.75864  0.52208  1.0000
  H   H290      1.0  0.82061  0.77812  0.51991  1.0000
  H   H291      1.0  0.84618  0.75915  0.55951  1.0000
  H   H292      1.0  0.81442  0.74693  0.55957  1.0000
  C   C377      1.0  0.70893  0.16623  0.34721  1.0000
  C   C378      1.0  0.74716  0.18078  0.43110  1.0000
  C   C379      1.0  0.72172  0.17129  0.42915  1.0000
  H   H293      1.0  0.71207  0.16851  0.48873  1.0000
  C   C380      1.0  0.75864  0.18519  0.52209  1.0000
  H   H294      1.0  0.77812  0.19272  0.51992  1.0000
  H   H295      1.0  0.75915  0.16716  0.55951  1.0000
  H   H296      1.0  0.74693  0.19892  0.55957  1.0000
  C   C381      1.0  0.30442  0.84713  0.34717  1.0000
  C   C382      1.0  0.26619  0.83256  0.43107  1.0000
  C   C383      1.0  0.29162  0.84205  0.42909  1.0000
  H   H297      1.0  0.30127  0.84482  0.48867  1.0000
  C   C384      1.0  0.25472  0.82813  0.52206  1.0000
  H   H298      1.0  0.23523  0.82059  0.51990  1.0000
  H   H299      1.0  0.25420  0.84616  0.55951  1.0000
  H   H300      1.0  0.26643  0.81440  0.55951  1.0000
  C   C385      1.0  0.84162  0.29166  0.42825  1.0000
  C   C386      1.0  0.83223  0.26618  0.42963  1.0000
  C   C387      1.0  0.82741  0.25335  0.34615  1.0000
  H   H301      1.0  0.84417  0.30134  0.48782  1.0000
  C   C388      1.0  0.82724  0.25368  0.51855  1.0000
  H   H302      1.0  0.83156  0.26616  0.57579  1.0000
  H   H303      1.0  0.83906  0.23650  0.52519  1.0000
  H   H304      1.0  0.80708  0.24822  0.52329  1.0000
  C   C389      1.0  0.17172  0.72169  0.42824  1.0000
  C   C390      1.0  0.18110  0.74717  0.42962  1.0000
  C   C391      1.0  0.18592  0.75999  0.34614  1.0000
  H   H305      1.0  0.16917  0.71200  0.48781  1.0000
  C   C392      1.0  0.18609  0.75967  0.51853  1.0000
  H   H306      1.0  0.18177  0.74719  0.57577  1.0000
  H   H307      1.0  0.17426  0.77685  0.52517  1.0000
  H   H308      1.0  0.20625  0.76513  0.52328  1.0000
  C   C393      1.0  0.29165  0.17172  0.42828  1.0000
  C   C394      1.0  0.26617  0.18110  0.42965  1.0000
  C   C395      1.0  0.25335  0.18592  0.34616  1.0000
  H   H309      1.0  0.30133  0.16917  0.48785  1.0000
  C   C396      1.0  0.25366  0.18609  0.51855  1.0000
  H   H310      1.0  0.26614  0.18177  0.57580  1.0000
  H   H311      1.0  0.23649  0.17427  0.52518  1.0000
  H   H312      1.0  0.24820  0.20626  0.52329  1.0000
  C   C397      1.0  0.72168  0.84162  0.42823  1.0000
  C   C398      1.0  0.74716  0.83224  0.42961  1.0000
  C   C399      1.0  0.75999  0.82742  0.34614  1.0000
  H   H313      1.0  0.71199  0.84417  0.48779  1.0000
  C   C400      1.0  0.75967  0.82726  0.51853  1.0000
  H   H314      1.0  0.74718  0.83158  0.57577  1.0000
  H   H315      1.0  0.77684  0.83908  0.52516  1.0000
  H   H316      1.0  0.76513  0.80709  0.52329  1.0000
  C   C401      1.0  0.37945  0.10761  0.34671  1.0000
  C   C402      1.0  0.39389  0.06886  0.43002  1.0000
  C   C403      1.0  0.38441  0.09444  0.42816  1.0000
  H   H317      1.0  0.38115  0.10386  0.48788  1.0000
  C   C404      1.0  0.39878  0.05765  0.52105  1.0000
  H   H318      1.0  0.40555  0.03789  0.51909  1.0000
  H   H319      1.0  0.38110  0.05790  0.56061  1.0000
  H   H320      1.0  0.41323  0.06906  0.55621  1.0000
  C   C405      1.0  0.63388  0.90571  0.34699  1.0000
  C   C406      1.0  0.61953  0.94447  0.43040  1.0000
  C   C407      1.0  0.62899  0.91888  0.42847  1.0000
  H   H321      1.0  0.63229  0.90947  0.48817  1.0000
  C   C408      1.0  0.61472  0.95569  0.52148  1.0000
  H   H322      1.0  0.60796  0.97545  0.51957  1.0000
  H   H323      1.0  0.63243  0.95543  0.56084  1.0000
  H   H324      1.0  0.60030  0.94428  0.55680  1.0000
  C   C409      1.0  0.90574  0.37945  0.34674  1.0000
  C   C410      1.0  0.94450  0.39388  0.43005  1.0000
  C   C411      1.0  0.91891  0.38440  0.42819  1.0000
  H   H325      1.0  0.90950  0.38113  0.48792  1.0000
  C   C412      1.0  0.95571  0.39876  0.52108  1.0000
  H   H326      1.0  0.97547  0.40554  0.51911  1.0000
  H   H327      1.0  0.95547  0.38108  0.56061  1.0000
  H   H328      1.0  0.94430  0.41321  0.55626  1.0000
  C   C413      1.0  0.10761  0.63389  0.34697  1.0000
  C   C414      1.0  0.06886  0.61952  0.43039  1.0000
  C   C415      1.0  0.09445  0.62899  0.42847  1.0000
  H   H329      1.0  0.10387  0.63228  0.48816  1.0000
  C   C416      1.0  0.05765  0.61470  0.52146  1.0000
  H   H330      1.0  0.03789  0.60794  0.51956  1.0000
  H   H331      1.0  0.05791  0.63241  0.56086  1.0000
  H   H332      1.0  0.06906  0.60028  0.55676  1.0000
  C   C417      1.0  0.62964  0.09381  0.42767  1.0000
  C   C418      1.0  0.62006  0.06825  0.42878  1.0000
  C   C419      1.0  0.61507  0.05512  0.34576  1.0000
  H   H333      1.0  0.63327  0.10301  0.48746  1.0000
  C   C420      1.0  0.61520  0.05574  0.51769  1.0000
  H   H334      1.0  0.62034  0.06793  0.57491  1.0000
  H   H335      1.0  0.62644  0.03814  0.52279  1.0000
  H   H336      1.0  0.59489  0.05101  0.52404  1.0000
  C   C421      1.0  0.38372  0.91955  0.42741  1.0000
  C   C422      1.0  0.39331  0.94510  0.42848  1.0000
  C   C423      1.0  0.39830  0.95822  0.34543  1.0000
  H   H337      1.0  0.38009  0.91035  0.48722  1.0000
  C   C424      1.0  0.39821  0.95761  0.51737  1.0000
  H   H338      1.0  0.39307  0.94544  0.57462  1.0000
  H   H339      1.0  0.38699  0.97523  0.52248  1.0000
  H   H340      1.0  0.41853  0.96234  0.52367  1.0000
  C   C425      1.0  0.09381  0.38372  0.42741  1.0000
  C   C426      1.0  0.06826  0.39331  0.42848  1.0000
  C   C427      1.0  0.05513  0.39830  0.34543  1.0000
  H   H341      1.0  0.10300  0.38009  0.48722  1.0000
  C   C428      1.0  0.05574  0.39820  0.51737  1.0000
  H   H342      1.0  0.06791  0.39306  0.57462  1.0000
  H   H343      1.0  0.03813  0.38697  0.52247  1.0000
  H   H344      1.0  0.05101  0.41852  0.52368  1.0000
  C   C429      1.0  0.91952  0.62964  0.42766  1.0000
  C   C430      1.0  0.94508  0.62006  0.42877  1.0000
  C   C431      1.0  0.95821  0.61507  0.34575  1.0000
  H   H345      1.0  0.91032  0.63327  0.48746  1.0000
  C   C432      1.0  0.95759  0.61520  0.51769  1.0000
  H   H346      1.0  0.94541  0.62034  0.57491  1.0000
  H   H347      1.0  0.97519  0.62643  0.52278  1.0000
  H   H348      1.0  0.96232  0.59488  0.52404  1.0000
  C   C433      1.0  0.53415  0.00661  0.34670  1.0000
  C   C434      1.0  0.49317  0.00669  0.43027  1.0000
  C   C435      1.0  0.52035  0.00663  0.42851  1.0000
  H   H349      1.0  0.53035  0.00662  0.48817  1.0000
  C   C436      1.0  0.48087  0.00671  0.52123  1.0000
  H   H350      1.0  0.45998  0.00673  0.51903  1.0000
  H   H351      1.0  0.48689  0.02371  0.55869  1.0000
  H   H352      1.0  0.48684  0.98968  0.55869  1.0000
  C   C437      1.0  0.00673  0.53415  0.34670  1.0000
  C   C438      1.0  0.00666  0.49317  0.43028  1.0000
  C   C439      1.0  0.00671  0.52034  0.42851  1.0000
  H   H353      1.0  0.00672  0.53035  0.48817  1.0000
  C   C440      1.0  0.00664  0.48086  0.52123  1.0000
  H   H354      1.0  0.00662  0.45998  0.51904  1.0000
  H   H355      1.0  0.98964  0.48688  0.55869  1.0000
  H   H356      1.0  0.02367  0.48684  0.55869  1.0000
  C   C441      1.0  0.21671  0.39356  0.42805  1.0000
  C   C442      1.0  0.24248  0.40233  0.42946  1.0000
  C   C443      1.0  0.25569  0.40661  0.34627  1.0000
  H   H357      1.0  0.20772  0.38919  0.48765  1.0000
  C   C444      1.0  0.25535  0.40614  0.51841  1.0000
  H   H358      1.0  0.24282  0.40189  0.57560  1.0000
  H   H359      1.0  0.26160  0.42603  0.52492  1.0000
  H   H360      1.0  0.27206  0.39360  0.52340  1.0000
  C   C445      1.0  0.79662  0.61978  0.42805  1.0000
  C   C446      1.0  0.77085  0.61101  0.42948  1.0000
  C   C447      1.0  0.75764  0.60673  0.34630  1.0000
  H   H361      1.0  0.80560  0.62415  0.48767  1.0000
  C   C448      1.0  0.75797  0.60722  0.51843  1.0000
  H   H362      1.0  0.77050  0.61147  0.57562  1.0000
  H   H363      1.0  0.75171  0.58733  0.52496  1.0000
  H   H364      1.0  0.74127  0.61976  0.52340  1.0000
  C   C449      1.0  0.61977  0.21671  0.42805  1.0000
  C   C450      1.0  0.61101  0.24248  0.42949  1.0000
  C   C451      1.0  0.60673  0.25569  0.34630  1.0000
  H   H365      1.0  0.62414  0.20773  0.48767  1.0000
  C   C452      1.0  0.60721  0.25536  0.51844  1.0000
  H   H366      1.0  0.61146  0.24283  0.57562  1.0000
  H   H367      1.0  0.58733  0.26162  0.52496  1.0000
  H   H368      1.0  0.61976  0.27207  0.52340  1.0000
  C   C453      1.0  0.39355  0.79662  0.42801  1.0000
  C   C454      1.0  0.40232  0.77086  0.42945  1.0000
  C   C455      1.0  0.40660  0.75764  0.34628  1.0000
  H   H369      1.0  0.38918  0.80561  0.48761  1.0000
  C   C456      1.0  0.40610  0.75798  0.51841  1.0000
  H   H370      1.0  0.40186  0.77051  0.57560  1.0000
  H   H371      1.0  0.42599  0.75172  0.52494  1.0000
  H   H372      1.0  0.39356  0.74127  0.52337  1.0000
  C   C457      1.0  0.80979  0.38944  0.34668  1.0000
  C   C458      1.0  0.77065  0.40235  0.43015  1.0000
  C   C459      1.0  0.79641  0.39359  0.42826  1.0000
  H   H373      1.0  0.80545  0.38928  0.48792  1.0000
  C   C460      1.0  0.75888  0.40580  0.52116  1.0000
  H   H374      1.0  0.73911  0.41251  0.51910  1.0000
  H   H375      1.0  0.76997  0.41979  0.55970  1.0000
  H   H376      1.0  0.75906  0.38756  0.55746  1.0000
  C   C461      1.0  0.20357  0.62391  0.34692  1.0000
  C   C462      1.0  0.24269  0.61096  0.43028  1.0000
  C   C463      1.0  0.21693  0.61973  0.42847  1.0000
  H   H377      1.0  0.20790  0.62402  0.48813  1.0000
  C   C464      1.0  0.25447  0.60749  0.52126  1.0000
  H   H378      1.0  0.27425  0.60077  0.51914  1.0000
  H   H379      1.0  0.24338  0.59348  0.55975  1.0000
  H   H380      1.0  0.25429  0.62571  0.55763  1.0000
  C   C465      1.0  0.38943  0.20357  0.34688  1.0000
  C   C466      1.0  0.40237  0.24269  0.43025  1.0000
  C   C467      1.0  0.39361  0.21693  0.42843  1.0000
  H   H381      1.0  0.38931  0.20790  0.48809  1.0000
  C   C468      1.0  0.40584  0.25447  0.52124  1.0000
  H   H382      1.0  0.41256  0.27425  0.51913  1.0000
  H   H383      1.0  0.41985  0.24338  0.55974  1.0000
  H   H384      1.0  0.38762  0.25429  0.55760  1.0000
  C   C469      1.0  0.62391  0.80975  0.34685  1.0000
  C   C470      1.0  0.61095  0.77065  0.43025  1.0000
  C   C471      1.0  0.61972  0.79641  0.42844  1.0000
  H   H385      1.0  0.62403  0.80544  0.48809  1.0000
  C   C472      1.0  0.60747  0.75888  0.52124  1.0000
  H   H386      1.0  0.60075  0.73911  0.51913  1.0000
  H   H387      1.0  0.59347  0.76997  0.55974  1.0000
  H   H388      1.0  0.62570  0.75905  0.55760  1.0000
  C   C473      1.0  0.31641  0.53439  0.34697  1.0000
  C   C474      1.0  0.31585  0.49318  0.43049  1.0000
  C   C475      1.0  0.31596  0.52042  0.42856  1.0000
  H   H389      1.0  0.31492  0.53040  0.48815  1.0000
  C   C476      1.0  0.31470  0.48096  0.52149  1.0000
  H   H390      1.0  0.31519  0.46008  0.51955  1.0000
  H   H391      1.0  0.29703  0.48668  0.55565  1.0000
  H   H392      1.0  0.33101  0.48730  0.56198  1.0000
  C   C477      1.0  0.69691  0.47894  0.34702  1.0000
  C   C478      1.0  0.69749  0.52016  0.43053  1.0000
  C   C479      1.0  0.69737  0.49292  0.42859  1.0000
  H   H393      1.0  0.69841  0.48294  0.48819  1.0000
  C   C480      1.0  0.69864  0.53238  0.52152  1.0000
  H   H394      1.0  0.69816  0.55326  0.51957  1.0000
  H   H395      1.0  0.71630  0.52666  0.55570  1.0000
  H   H396      1.0  0.68232  0.52605  0.56200  1.0000
  C   C481      1.0  0.47894  0.31641  0.34697  1.0000
  C   C482      1.0  0.52016  0.31585  0.43051  1.0000
  C   C483      1.0  0.49291  0.31596  0.42857  1.0000
  H   H397      1.0  0.48294  0.31493  0.48816  1.0000
  C   C484      1.0  0.53237  0.31470  0.52150  1.0000
  H   H398      1.0  0.55326  0.31519  0.51956  1.0000
  H   H399      1.0  0.52665  0.29705  0.55569  1.0000
  H   H400      1.0  0.52604  0.33103  0.56198  1.0000
  C   C485      1.0  0.53440  0.69689  0.34699  1.0000
  C   C486      1.0  0.49318  0.69749  0.43051  1.0000
  C   C487      1.0  0.52042  0.69737  0.42856  1.0000
  H   H401      1.0  0.53039  0.69841  0.48815  1.0000
  C   C488      1.0  0.48096  0.69866  0.52150  1.0000
  H   H402      1.0  0.46008  0.69818  0.51956  1.0000
  H   H403      1.0  0.48668  0.71632  0.55566  1.0000
  H   H404      1.0  0.48729  0.68234  0.56200  1.0000
  C   C489      1.0  0.37882  0.35964  0.42741  1.0000
  C   C490      1.0  0.35946  0.37887  0.42872  1.0000
  C   C491      1.0  0.34936  0.38868  0.34578  1.0000
  H   H405      1.0  0.38564  0.35243  0.48714  1.0000
  C   C492      1.0  0.34982  0.38817  0.51769  1.0000
  H   H406      1.0  0.35945  0.37908  0.57485  1.0000
  H   H407      1.0  0.32934  0.38417  0.52372  1.0000
  H   H408      1.0  0.35286  0.40883  0.52321  1.0000
  C   C493      1.0  0.63452  0.65370  0.42743  1.0000
  C   C494      1.0  0.65387  0.63446  0.42874  1.0000
  C   C495      1.0  0.66397  0.62465  0.34579  1.0000
  H   H409      1.0  0.62770  0.66091  0.48716  1.0000
  C   C496      1.0  0.66351  0.62516  0.51771  1.0000
  H   H410      1.0  0.65388  0.63425  0.57487  1.0000
  H   H411      1.0  0.68399  0.62915  0.52373  1.0000
  H   H412      1.0  0.66046  0.60450  0.52322  1.0000
  C   C497      1.0  0.65369  0.37882  0.42743  1.0000
  C   C498      1.0  0.63446  0.35946  0.42874  1.0000
  C   C499      1.0  0.62465  0.34936  0.34579  1.0000
  H   H413      1.0  0.66090  0.38564  0.48715  1.0000
  C   C500      1.0  0.62516  0.34982  0.51770  1.0000
  H   H414      1.0  0.63425  0.35944  0.57487  1.0000
  H   H415      1.0  0.62916  0.32934  0.52371  1.0000
  H   H416      1.0  0.60451  0.35286  0.52323  1.0000
  C   C501      1.0  0.35964  0.63451  0.42742  1.0000
  C   C502      1.0  0.37888  0.65387  0.42872  1.0000
  C   C503      1.0  0.38868  0.66397  0.34578  1.0000
  H   H417      1.0  0.35243  0.62769  0.48714  1.0000
  C   C504      1.0  0.38818  0.66351  0.51769  1.0000
  H   H418      1.0  0.37909  0.65388  0.57485  1.0000
  H   H419      1.0  0.38418  0.68399  0.52371  1.0000
  H   H420      1.0  0.40883  0.66047  0.52322  1.0000
