data_image0
_chemical_formula_structural       C8H2C8H2N2H2N2H2N2H2N2H2N2HN2HC8H4C8H4N2H2N2H2C8H4C8H4N2H2N2H2N4C8H4C8H4N4C8H4C8H4N8C8H4C8H4CNCNCNCNCNCNCNCNCNCNCNCNCNCNCNCNCNCNCNCNCNCNCNCNCNCNCNCNCNCNCNCNCNCNCNCNCNCNCNCNCNCNCNCNCNCNCNCNCNCNCNCNCNCNCNCNCNCNCNCN3H2N2H2C8H2C8H2C8H2C8H2C8H3C8H3N4C8H2C8H2N4C8H2C8H2C8H4C8H4N4C8H4C8H4N4C8H4C8H4C8H4C8H4N4C8H2C8H2N2H2N2H2N2H2N2H2N2HN2HC8H4C8H4N2H2N2H2C8H4C8H4N2H2N2H2N4C8H4C8H4N4C8H4C8H4N8C8H4C8H4CNCNCNCNCNCNCNCNCNCNCNCNCNCNCNCNCNCNCNCNCNCNCNCNCNCNCNCNCNCNCNCNCNCNCNCNCNCNCNCNCNCNCNCNCNCNCNCNCNCNCNCNCNCNCNCNCNCNCNCN3H2N2H2C8H2C8H2C8H2C8H2C8H3C8H3N4C8H2C8H2N4C8H2C8H2C8H4C8H4N4C8H4C8H4N4C8H4C8H4C8H4C8H4N4
_chemical_formula_sum              "C600 H240 N240"
_cell_length_a       83.5456
_cell_length_b       44.0076
_cell_length_c       14.836
_cell_angle_alpha    90
_cell_angle_beta     90
_cell_angle_gamma    90

_space_group_name_H-M_alt    "P 1"
_space_group_IT_number       1

loop_
  _space_group_symop_operation_xyz
  'x, y, z'

loop_
  _atom_site_type_symbol
  _atom_site_label
  _atom_site_symmetry_multiplicity
  _atom_site_fract_x
  _atom_site_fract_y
  _atom_site_fract_z
  _atom_site_occupancy
  C   C1        1.0  0.24030  0.13677  0.29463  1.0000
  C   C2        1.0  0.24826  0.13353  0.21053  1.0000
  C   C3        1.0  0.26511  0.12729  0.21000  1.0000
  C   C4        1.0  0.27342  0.12577  0.29350  1.0000
  C   C5        1.0  0.27300  0.12307  0.12642  1.0000
  C   C6        1.0  0.26457  0.12548  0.04477  1.0000
  C   C7        1.0  0.24814  0.13211  0.04523  1.0000
  C   C8        1.0  0.24004  0.13613  0.12737  1.0000
  H   H1        1.0  0.28501  0.11860  0.12382  1.0000
  H   H2        1.0  0.22803  0.14057  0.12553  1.0000
  C   C9        1.0  0.77254  0.37496  0.28839  1.0000
  C   C10       1.0  0.76439  0.37677  0.20447  1.0000
  C   C11       1.0  0.74757  0.38318  0.20421  1.0000
  C   C12       1.0  0.73950  0.38632  0.28803  1.0000
  C   C13       1.0  0.73950  0.38615  0.12068  1.0000
  C   C14       1.0  0.74774  0.38232  0.03890  1.0000
  C   C15       1.0  0.76416  0.37550  0.03919  1.0000
  C   C16       1.0  0.77243  0.37270  0.12125  1.0000
  H   H3        1.0  0.72751  0.39077  0.11828  1.0000
  H   H4        1.0  0.78443  0.36816  0.11925  1.0000
  N   N1        1.0  0.74815  0.12696  0.30385  1.0000
  N   N2        1.0  0.76343  0.13313  0.30318  1.0000
  H   H5        1.0  0.74200  0.12547  0.02321  1.0000
  H   H6        1.0  0.77035  0.13704  0.02199  1.0000
  N   N3        1.0  0.26494  0.38563  0.30753  1.0000
  N   N4        1.0  0.24965  0.37939  0.30632  1.0000
  H   H7        1.0  0.27097  0.38491  0.02683  1.0000
  H   H8        1.0  0.24263  0.37320  0.02471  1.0000
  N   N5        1.0  0.30285  0.49162  0.29405  1.0000
  N   N6        1.0  0.30266  0.02113  0.28915  1.0000
  H   H9        1.0  0.30845  0.48667  0.01424  1.0000
  H   H10       1.0  0.30817  0.04164  0.00464  1.0000
  N   N7        1.0  0.71140  0.02061  0.29303  1.0000
  N   N8        1.0  0.71167  0.49112  0.28797  1.0000
  H   H11       1.0  0.70103  0.02525  0.01008  1.0000
  H   H12       1.0  0.70145  0.47028  0.00023  1.0000
  N   N9        1.0  0.79950  0.24026  0.29181  1.0000
  N   N10       1.0  0.79922  0.26977  0.28800  1.0000
  H   H13       1.0  0.81290  0.23387  0.00559  1.0000
  N   N11       1.0  0.21430  0.27148  0.29583  1.0000
  N   N12       1.0  0.21446  0.24196  0.29238  1.0000
  H   H14       1.0  0.19641  0.27857  0.00350  1.0000
  C   C17       1.0  0.33272  0.12943  0.30697  1.0000
  C   C18       1.0  0.33955  0.14114  0.22633  1.0000
  C   C19       1.0  0.35622  0.14904  0.22579  1.0000
  C   C20       1.0  0.36544  0.14432  0.30516  1.0000
  C   C21       1.0  0.36322  0.15992  0.14497  1.0000
  C   C22       1.0  0.35413  0.16248  0.06568  1.0000
  C   C23       1.0  0.33788  0.15449  0.06587  1.0000
  C   C24       1.0  0.33065  0.14395  0.14540  1.0000
  H   H15       1.0  0.37511  0.16534  0.14203  1.0000
  H   H16       1.0  0.35941  0.16969  0.00735  1.0000
  H   H17       1.0  0.33134  0.15612  0.00782  1.0000
  H   H18       1.0  0.31884  0.13802  0.14269  1.0000
  C   C25       1.0  0.68020  0.38356  0.30387  1.0000
  C   C26       1.0  0.67317  0.37044  0.22569  1.0000
  C   C27       1.0  0.65654  0.36235  0.22808  1.0000
  C   C28       1.0  0.64757  0.36840  0.30756  1.0000
  C   C29       1.0  0.64931  0.35003  0.14978  1.0000
  C   C30       1.0  0.65816  0.34617  0.07006  1.0000
  C   C31       1.0  0.67436  0.35445  0.06727  1.0000
  C   C32       1.0  0.68182  0.36644  0.14434  1.0000
  H   H19       1.0  0.63743  0.34444  0.14898  1.0000
  H   H20       1.0  0.65273  0.33768  0.01363  1.0000
  H   H21       1.0  0.68073  0.35191  0.00887  1.0000
  H   H22       1.0  0.69358  0.37254  0.13949  1.0000
  N   N13       1.0  0.65614  0.13352  0.29708  1.0000
  N   N14       1.0  0.67126  0.12599  0.29813  1.0000
  H   H23       1.0  0.65259  0.16133  0.00861  1.0000
  H   H24       1.0  0.68063  0.14733  0.00994  1.0000
  N   N15       1.0  0.35825  0.38195  0.31819  1.0000
  N   N16       1.0  0.34312  0.38932  0.31541  1.0000
  H   H25       1.0  0.35730  0.34236  0.02018  1.0000
  H   H26       1.0  0.32893  0.35351  0.01224  1.0000
  C   C33       1.0  0.83169  0.37747  0.31236  1.0000
  C   C34       1.0  0.83890  0.39056  0.23467  1.0000
  C   C35       1.0  0.85553  0.39862  0.23815  1.0000
  C   C36       1.0  0.86434  0.39259  0.31825  1.0000
  C   C37       1.0  0.86293  0.41090  0.16027  1.0000
  C   C38       1.0  0.85427  0.41476  0.07995  1.0000
  C   C39       1.0  0.83807  0.40651  0.07609  1.0000
  C   C40       1.0  0.83045  0.39456  0.15268  1.0000
  H   H27       1.0  0.87482  0.41647  0.16020  1.0000
  H   H28       1.0  0.85981  0.42323  0.02388  1.0000
  H   H29       1.0  0.83183  0.40906  0.01725  1.0000
  H   H30       1.0  0.81869  0.38849  0.14695  1.0000
  C   C41       1.0  0.18102  0.13406  0.31612  1.0000
  C   C42       1.0  0.17382  0.12117  0.23810  1.0000
  C   C43       1.0  0.15719  0.11305  0.24135  1.0000
  C   C44       1.0  0.14838  0.11875  0.32162  1.0000
  C   C45       1.0  0.14981  0.10101  0.16309  1.0000
  C   C46       1.0  0.15848  0.09744  0.08268  1.0000
  C   C47       1.0  0.17468  0.10573  0.07909  1.0000
  C   C48       1.0  0.18229  0.11744  0.15604  1.0000
  H   H31       1.0  0.13793  0.09540  0.16283  1.0000
  H   H32       1.0  0.15294  0.08915  0.02635  1.0000
  H   H33       1.0  0.18092  0.10340  0.02019  1.0000
  H   H34       1.0  0.19404  0.12356  0.15055  1.0000
  N   N17       1.0  0.15768  0.38786  0.29909  1.0000
  N   N18       1.0  0.17287  0.38076  0.29968  1.0000
  H   H35       1.0  0.15193  0.39825  0.01735  1.0000
  H   H36       1.0  0.18008  0.38500  0.01796  1.0000
  N   N19       1.0  0.85546  0.12482  0.29920  1.0000
  N   N20       1.0  0.84031  0.13221  0.29917  1.0000
  H   H37       1.0  0.85988  0.10875  0.01635  1.0000
  H   H38       1.0  0.83181  0.12256  0.01582  1.0000
  N   N21       1.0  0.09817  0.17683  0.35797  1.0000
  N   N22       1.0  0.08928  0.20130  0.36352  1.0000
  N   N23       1.0  0.91440  0.33439  0.35719  1.0000
  N   N24       1.0  0.92326  0.30989  0.36290  1.0000
  C   C49       1.0  0.93960  0.19814  0.34308  1.0000
  C   C50       1.0  0.94610  0.16888  0.32019  1.0000
  C   C51       1.0  0.93602  0.14216  0.32395  1.0000
  C   C52       1.0  0.91945  0.14516  0.34726  1.0000
  C   C53       1.0  0.94270  0.11376  0.29775  1.0000
  C   C54       1.0  0.95865  0.11091  0.26996  1.0000
  C   C55       1.0  0.96830  0.13669  0.26446  1.0000
  C   C56       1.0  0.96204  0.16514  0.28800  1.0000
  H   H39       1.0  0.93607  0.09452  0.29354  1.0000
  H   H40       1.0  0.96300  0.09029  0.24956  1.0000
  H   H41       1.0  0.97972  0.13492  0.23997  1.0000
  H   H42       1.0  0.96935  0.18300  0.27514  1.0000
  C   C57       1.0  0.07301  0.31308  0.34349  1.0000
  C   C58       1.0  0.06655  0.34240  0.32067  1.0000
  C   C59       1.0  0.07672  0.36903  0.32377  1.0000
  C   C60       1.0  0.09329  0.36595  0.34697  1.0000
  C   C61       1.0  0.07009  0.39743  0.29708  1.0000
  C   C62       1.0  0.05412  0.40042  0.26995  1.0000
  C   C63       1.0  0.04437  0.37476  0.26556  1.0000
  C   C64       1.0  0.05057  0.34629  0.28930  1.0000
  H   H43       1.0  0.07678  0.41658  0.29217  1.0000
  H   H44       1.0  0.04980  0.42107  0.24960  1.0000
  H   H45       1.0  0.03290  0.37664  0.24191  1.0000
  H   H46       1.0  0.04315  0.32852  0.27731  1.0000
  N   N25       1.0  0.59777  0.42630  0.35039  1.0000
  N   N26       1.0  0.58902  0.45094  0.35520  1.0000
  N   N27       1.0  0.41569  0.08708  0.32575  1.0000
  N   N28       1.0  0.42416  0.06208  0.33003  1.0000
  C   C65       1.0  0.43953  0.44876  0.31165  1.0000
  C   C66       1.0  0.44604  0.41971  0.28657  1.0000
  C   C67       1.0  0.43635  0.39256  0.29405  1.0000
  C   C68       1.0  0.42006  0.39482  0.32288  1.0000
  C   C69       1.0  0.44305  0.36431  0.26705  1.0000
  C   C70       1.0  0.45865  0.36216  0.23310  1.0000
  C   C71       1.0  0.46788  0.38840  0.22295  1.0000
  C   C72       1.0  0.46159  0.41666  0.24842  1.0000
  H   H47       1.0  0.43657  0.34477  0.26710  1.0000
  H   H48       1.0  0.46304  0.34167  0.21192  1.0000
  H   H49       1.0  0.47898  0.38706  0.19419  1.0000
  H   H50       1.0  0.46842  0.43498  0.23243  1.0000
  C   C73       1.0  0.57259  0.06280  0.33441  1.0000
  C   C74       1.0  0.56601  0.09202  0.31175  1.0000
  C   C75       1.0  0.57589  0.11894  0.31827  1.0000
  C   C76       1.0  0.59243  0.11608  0.34232  1.0000
  C   C77       1.0  0.56903  0.14741  0.29424  1.0000
  C   C78       1.0  0.55318  0.15002  0.26455  1.0000
  C   C79       1.0  0.54381  0.12399  0.25516  1.0000
  C   C80       1.0  0.55019  0.09555  0.27753  1.0000
  H   H51       1.0  0.57542  0.16699  0.29401  1.0000
  H   H52       1.0  0.54869  0.17073  0.24604  1.0000
  H   H53       1.0  0.53247  0.12566  0.22956  1.0000
  H   H54       1.0  0.54311  0.07756  0.26229  1.0000
  N   N29       1.0  0.12359  0.49173  0.35634  1.0000
  N   N30       1.0  0.12353  0.02133  0.35635  1.0000
  N   N31       1.0  0.88910  0.01949  0.35537  1.0000
  N   N32       1.0  0.88913  0.48989  0.35511  1.0000
  N   N33       1.0  0.62279  0.24143  0.34461  1.0000
  N   N34       1.0  0.62281  0.27101  0.34412  1.0000
  N   N35       1.0  0.41232  0.27155  0.33067  1.0000
  N   N36       1.0  0.41230  0.24164  0.32348  1.0000
  C   C81       1.0  0.98936  0.25524  0.35237  1.0000
  C   C82       1.0  0.99767  0.25535  0.26861  1.0000
  C   C83       1.0  0.01485  0.25596  0.26855  1.0000
  C   C84       1.0  0.02317  0.25612  0.35224  1.0000
  C   C85       1.0  0.02306  0.25616  0.18488  1.0000
  C   C86       1.0  0.01463  0.25587  0.10297  1.0000
  C   C87       1.0  0.99784  0.25536  0.10303  1.0000
  C   C88       1.0  0.98944  0.25511  0.18501  1.0000
  H   H55       1.0  0.03529  0.25648  0.18230  1.0000
  H   H56       1.0  0.02072  0.25603  0.04319  1.0000
  H   H57       1.0  0.99174  0.25517  0.04330  1.0000
  H   H58       1.0  0.97721  0.25479  0.18252  1.0000
  C   C89       1.0  0.48940  0.00470  0.32995  1.0000
  C   C90       1.0  0.49822  0.00488  0.24794  1.0000
  C   C91       1.0  0.51538  0.00531  0.25149  1.0000
  C   C92       1.0  0.52312  0.00520  0.33694  1.0000
  C   C93       1.0  0.52414  0.00562  0.16959  1.0000
  C   C94       1.0  0.51625  0.00563  0.08598  1.0000
  C   C95       1.0  0.49948  0.00531  0.08254  1.0000
  C   C96       1.0  0.49054  0.00495  0.16270  1.0000
  H   H59       1.0  0.53638  0.00579  0.16955  1.0000
  H   H60       1.0  0.52273  0.00587  0.02751  1.0000
  H   H61       1.0  0.49377  0.00535  0.02157  1.0000
  H   H62       1.0  0.47833  0.00478  0.15766  1.0000
  C   C97       1.0  0.31738  0.11582  0.31476  1.0000
  N   N37       1.0  0.30300  0.12968  0.29774  1.0000
  C   C98       1.0  0.28895  0.11381  0.30541  1.0000
  N   N38       1.0  0.28949  0.08410  0.32880  1.0000
  C   C99       1.0  0.30358  0.07028  0.34596  1.0000
  N   N39       1.0  0.31738  0.08604  0.33839  1.0000
  C   C100      1.0  0.69561  0.39694  0.30968  1.0000
  N   N40       1.0  0.70990  0.38287  0.29174  1.0000
  C   C101      1.0  0.72402  0.39850  0.29951  1.0000
  N   N41       1.0  0.72366  0.42807  0.32448  1.0000
  C   C102      1.0  0.70967  0.44200  0.34312  1.0000
  N   N42       1.0  0.69581  0.42655  0.33512  1.0000
  C   C103      1.0  0.69574  0.11388  0.36735  1.0000
  N   N43       1.0  0.71015  0.12850  0.37229  1.0000
  C   C104      1.0  0.72403  0.11211  0.37187  1.0000
  N   N44       1.0  0.72337  0.08140  0.37023  1.0000
  C   C105      1.0  0.70914  0.06695  0.36682  1.0000
  N   N45       1.0  0.69539  0.08310  0.36618  1.0000
  C   C106      1.0  0.31754  0.39824  0.37621  1.0000
  N   N46       1.0  0.30308  0.38368  0.38047  1.0000
  C   C107      1.0  0.28915  0.39994  0.37630  1.0000
  N   N47       1.0  0.28982  0.43063  0.37203  1.0000
  C   C108      1.0  0.30404  0.44514  0.36873  1.0000
  N   N48       1.0  0.31779  0.42901  0.37178  1.0000
  C   C109      1.0  0.81627  0.36406  0.31647  1.0000
  N   N49       1.0  0.80207  0.37825  0.29707  1.0000
  C   C110      1.0  0.78793  0.36256  0.30113  1.0000
  N   N50       1.0  0.78816  0.33279  0.32398  1.0000
  C   C111      1.0  0.80205  0.31870  0.34418  1.0000
  N   N51       1.0  0.81595  0.33426  0.33984  1.0000
  C   C112      1.0  0.19645  0.14753  0.32045  1.0000
  N   N52       1.0  0.21070  0.13335  0.30203  1.0000
  C   C113      1.0  0.22483  0.14907  0.30658  1.0000
  N   N53       1.0  0.22451  0.17891  0.32856  1.0000
  C   C114      1.0  0.21059  0.19306  0.34755  1.0000
  N   N54       1.0  0.19671  0.17740  0.34309  1.0000
  C   C115      1.0  0.19697  0.36542  0.36829  1.0000
  N   N55       1.0  0.21141  0.38000  0.37322  1.0000
  C   C116      1.0  0.22532  0.36365  0.37104  1.0000
  N   N56       1.0  0.22463  0.33293  0.36821  1.0000
  C   C117      1.0  0.21040  0.31844  0.36494  1.0000
  N   N57       1.0  0.19666  0.33464  0.36626  1.0000
  C   C118      1.0  0.81603  0.14662  0.36689  1.0000
  N   N58       1.0  0.80162  0.13198  0.37153  1.0000
  C   C119      1.0  0.78771  0.14831  0.36885  1.0000
  N   N59       1.0  0.78836  0.17902  0.36608  1.0000
  C   C120      1.0  0.80258  0.19352  0.36300  1.0000
  N   N60       1.0  0.81634  0.17739  0.36463  1.0000
  C   C121      1.0  0.10472  0.12413  0.36043  1.0000
  N   N61       1.0  0.10195  0.09360  0.37244  1.0000
  C   C122      1.0  0.11331  0.07116  0.36717  1.0000
  N   N62       1.0  0.12839  0.08104  0.34792  1.0000
  C   C123      1.0  0.13220  0.11072  0.33641  1.0000
  N   N63       1.0  0.12032  0.13175  0.34383  1.0000
  C   C124      1.0  0.90788  0.38710  0.36000  1.0000
  N   N64       1.0  0.91063  0.41759  0.37253  1.0000
  C   C125      1.0  0.89929  0.44005  0.36645  1.0000
  N   N65       1.0  0.88427  0.43024  0.34579  1.0000
  C   C126      1.0  0.88049  0.40058  0.33357  1.0000
  N   N66       1.0  0.89233  0.37952  0.34199  1.0000
  C   C127      1.0  0.90750  0.12201  0.35624  1.0000
  N   N67       1.0  0.91053  0.09144  0.36240  1.0000
  C   C128      1.0  0.89912  0.06922  0.36917  1.0000
  N   N68       1.0  0.88371  0.07924  0.36998  1.0000
  C   C129      1.0  0.87977  0.10906  0.36600  1.0000
  N   N69       1.0  0.89170  0.12999  0.36025  1.0000
  C   C130      1.0  0.10528  0.38906  0.35582  1.0000
  N   N70       1.0  0.10224  0.41963  0.36189  1.0000
  C   C131      1.0  0.11361  0.44191  0.36866  1.0000
  N   N71       1.0  0.12903  0.43192  0.36946  1.0000
  C   C132      1.0  0.13302  0.40211  0.36542  1.0000
  N   N72       1.0  0.12109  0.38113  0.35995  1.0000
  C   C133      1.0  0.60425  0.37372  0.35553  1.0000
  N   N73       1.0  0.60160  0.34324  0.36877  1.0000
  C   C134      1.0  0.61292  0.32087  0.36012  1.0000
  N   N74       1.0  0.62778  0.33065  0.33599  1.0000
  C   C135      1.0  0.63143  0.36029  0.32267  1.0000
  N   N75       1.0  0.61967  0.38131  0.33413  1.0000
  C   C136      1.0  0.40940  0.13968  0.33563  1.0000
  N   N76       1.0  0.41219  0.17029  0.34740  1.0000
  C   C137      1.0  0.40042  0.19198  0.34616  1.0000
  N   N77       1.0  0.38523  0.18208  0.33169  1.0000
  C   C138      1.0  0.38167  0.15257  0.31610  1.0000
  N   N78       1.0  0.39376  0.13189  0.32018  1.0000
  C   C139      1.0  0.40864  0.37121  0.34084  1.0000
  N   N79       1.0  0.41171  0.34048  0.34907  1.0000
  C   C140      1.0  0.40051  0.31957  0.37669  1.0000
  N   N80       1.0  0.38552  0.33067  0.39102  1.0000
  C   C141      1.0  0.38148  0.36026  0.38168  1.0000
  N   N81       1.0  0.39319  0.37990  0.35688  1.0000
  C   C142      1.0  0.60435  0.13926  0.35173  1.0000
  N   N82       1.0  0.60136  0.16985  0.35800  1.0000
  C   C143      1.0  0.61287  0.19189  0.36415  1.0000
  N   N83       1.0  0.62825  0.18180  0.36451  1.0000
  C   C144      1.0  0.63212  0.15197  0.36076  1.0000
  N   N84       1.0  0.62013  0.13116  0.35537  1.0000
  C   C145      1.0  0.06489  0.28453  0.35262  1.0000
  N   N85       1.0  0.04860  0.28279  0.35200  1.0000
  C   C146      1.0  0.04016  0.25666  0.36121  1.0000
  N   N86       1.0  0.04877  0.23076  0.37055  1.0000
  C   C147      1.0  0.06508  0.22975  0.37472  1.0000
  N   N87       1.0  0.07273  0.25727  0.36459  1.0000
  C   C148      1.0  0.94769  0.22671  0.35230  1.0000
  N   N88       1.0  0.96398  0.22850  0.35181  1.0000
  C   C149      1.0  0.97238  0.25464  0.36140  1.0000
  N   N89       1.0  0.96375  0.28051  0.37105  1.0000
  C   C150      1.0  0.94744  0.28143  0.37505  1.0000
  N   N90       1.0  0.93982  0.25391  0.36450  1.0000
  C   C151      1.0  0.56461  0.03412  0.34261  1.0000
  N   N91       1.0  0.54834  0.03213  0.33994  1.0000
  C   C152      1.0  0.54001  0.00592  0.34931  1.0000
  N   N92       1.0  0.54864  0.48017  0.36136  1.0000
  C   C153      1.0  0.56494  0.47956  0.36759  1.0000
  N   N93       1.0  0.57252  0.00708  0.35668  1.0000
  C   C154      1.0  0.44759  0.47736  0.32116  1.0000
  N   N94       1.0  0.46388  0.47861  0.32311  1.0000
  C   C155      1.0  0.47240  0.50450  0.33537  1.0000
  N   N95       1.0  0.46396  0.03057  0.34556  1.0000
  C   C156      1.0  0.44766  0.03203  0.34710  1.0000
  N   N96       1.0  0.43987  0.50475  0.33389  1.0000
  N   N97       1.0  0.26467  0.12903  0.36996  1.0000
  N   N98       1.0  0.24937  0.13493  0.37037  1.0000
  H   H63       1.0  0.27043  0.12256  0.65152  1.0000
  H   H64       1.0  0.24205  0.13387  0.65234  1.0000
  N   N99       1.0  0.74842  0.38419  0.36423  1.0000
  N   N100      1.0  0.76369  0.37813  0.36448  1.0000
  H   H65       1.0  0.74177  0.38438  0.64571  1.0000
  H   H66       1.0  0.77012  0.37274  0.64620  1.0000
  C   C157      1.0  0.77231  0.13600  0.37926  1.0000
  C   C158      1.0  0.76435  0.13375  0.46368  1.0000
  C   C159      1.0  0.74757  0.12726  0.46442  1.0000
  C   C160      1.0  0.73945  0.12452  0.38068  1.0000
  C   C161      1.0  0.73960  0.12407  0.54827  1.0000
  C   C162      1.0  0.74791  0.12766  0.62989  1.0000
  C   C163      1.0  0.76432  0.13445  0.62917  1.0000
  C   C164      1.0  0.77248  0.13749  0.54686  1.0000
  H   H67       1.0  0.72760  0.11953  0.55110  1.0000
  H   H68       1.0  0.78447  0.14207  0.54870  1.0000
  C   C165      1.0  0.24076  0.37594  0.38211  1.0000
  C   C166      1.0  0.24872  0.37770  0.46665  1.0000
  C   C167      1.0  0.26550  0.38425  0.46789  1.0000
  C   C168      1.0  0.27367  0.38761  0.38444  1.0000
  C   C169      1.0  0.27343  0.38703  0.55200  1.0000
  C   C170      1.0  0.26508  0.38298  0.63332  1.0000
  C   C171      1.0  0.24869  0.37612  0.63209  1.0000
  C   C172      1.0  0.24057  0.37347  0.54954  1.0000
  H   H69       1.0  0.28540  0.39170  0.55523  1.0000
  H   H70       1.0  0.22857  0.36887  0.55104  1.0000
  C   C173      1.0  0.30396  0.03921  0.36264  1.0000
  C   C174      1.0  0.30545  0.02582  0.44914  1.0000
  C   C175      1.0  0.30562  0.49345  0.45468  1.0000
  C   C176      1.0  0.30441  0.47667  0.37324  1.0000
  C   C177      1.0  0.30677  0.47944  0.54051  1.0000
  C   C178      1.0  0.30770  0.49704  0.61937  1.0000
  C   C179      1.0  0.30754  0.02888  0.61382  1.0000
  C   C180      1.0  0.30644  0.04319  0.52939  1.0000
  H   H71       1.0  0.30685  0.45630  0.54683  1.0000
  H   H72       1.0  0.30625  0.06642  0.52747  1.0000
  C   C181      1.0  0.70941  0.47300  0.36059  1.0000
  C   C182      1.0  0.70676  0.48629  0.44634  1.0000
  C   C183      1.0  0.70651  0.01864  0.45206  1.0000
  C   C184      1.0  0.70875  0.03546  0.37143  1.0000
  C   C185      1.0  0.70433  0.03259  0.53733  1.0000
  C   C186      1.0  0.70249  0.01492  0.61555  1.0000
  C   C187      1.0  0.70273  0.48309  0.60983  1.0000
  C   C188      1.0  0.70481  0.46884  0.52588  1.0000
  H   H73       1.0  0.70420  0.05573  0.54374  1.0000
  H   H74       1.0  0.70509  0.44562  0.52391  1.0000
  C   C189      1.0  0.80221  0.28759  0.36046  1.0000
  C   C190      1.0  0.80558  0.27388  0.44484  1.0000
  C   C191      1.0  0.80585  0.24150  0.44922  1.0000
  C   C192      1.0  0.80290  0.22503  0.36866  1.0000
  C   C193      1.0  0.80864  0.22717  0.53339  1.0000
  C   C194      1.0  0.81105  0.24448  0.61182  1.0000
  C   C195      1.0  0.81081  0.27632  0.60741  1.0000
  C   C196      1.0  0.80815  0.29095  0.52456  1.0000
  H   H75       1.0  0.80873  0.20401  0.53900  1.0000
  H   H76       1.0  0.81247  0.28888  0.66466  1.0000
  H   H77       1.0  0.80782  0.31418  0.52369  1.0000
  C   C197      1.0  0.21041  0.22424  0.36347  1.0000
  C   C198      1.0  0.20608  0.23815  0.44617  1.0000
  C   C199      1.0  0.20595  0.27055  0.45020  1.0000
  C   C200      1.0  0.20999  0.28690  0.37092  1.0000
  C   C201      1.0  0.20228  0.28502  0.53308  1.0000
  C   C202      1.0  0.19888  0.26786  0.61060  1.0000
  C   C203      1.0  0.19898  0.23600  0.60654  1.0000
  C   C204      1.0  0.20250  0.22123  0.52495  1.0000
  H   H78       1.0  0.20230  0.30818  0.53860  1.0000
  H   H79       1.0  0.19660  0.22355  0.66317  1.0000
  H   H80       1.0  0.20274  0.19800  0.52450  1.0000
  N   N101      1.0  0.35789  0.13262  0.37817  1.0000
  N   N102      1.0  0.34274  0.12538  0.37825  1.0000
  N   N103      1.0  0.65529  0.38141  0.37789  1.0000
  N   N104      1.0  0.67041  0.38869  0.37546  1.0000
  C   C205      1.0  0.68073  0.12833  0.37220  1.0000
  C   C206      1.0  0.67351  0.13782  0.45419  1.0000
  C   C207      1.0  0.65692  0.14598  0.45344  1.0000
  C   C208      1.0  0.64828  0.14360  0.37116  1.0000
  C   C209      1.0  0.64950  0.15477  0.53539  1.0000
  C   C210      1.0  0.65815  0.15528  0.61655  1.0000
  C   C211      1.0  0.67438  0.14712  0.61735  1.0000
  C   C212      1.0  0.68200  0.13848  0.53696  1.0000
  H   H81       1.0  0.63761  0.16024  0.53764  1.0000
  H   H82       1.0  0.69381  0.13255  0.54004  1.0000
  C   C213      1.0  0.33265  0.38403  0.38368  1.0000
  C   C214      1.0  0.33885  0.37132  0.46451  1.0000
  C   C215      1.0  0.35554  0.36392  0.46844  1.0000
  C   C216      1.0  0.36529  0.36919  0.39133  1.0000
  C   C217      1.0  0.36205  0.35360  0.55112  1.0000
  C   C218      1.0  0.35235  0.34953  0.62747  1.0000
  C   C219      1.0  0.33595  0.35609  0.62296  1.0000
  C   C220      1.0  0.32928  0.36713  0.54248  1.0000
  H   H83       1.0  0.37407  0.35030  0.55814  1.0000
  H   H84       1.0  0.31737  0.37238  0.54230  1.0000
  N   N105      1.0  0.85647  0.37951  0.38797  1.0000
  N   N106      1.0  0.84134  0.37223  0.38451  1.0000
  N   N107      1.0  0.15624  0.13167  0.39168  1.0000
  N   N108      1.0  0.17136  0.13903  0.38843  1.0000
  C   C221      1.0  0.18192  0.37969  0.37567  1.0000
  C   C222      1.0  0.17411  0.38495  0.45937  1.0000
  C   C223      1.0  0.15745  0.39261  0.45903  1.0000
  C   C224      1.0  0.14925  0.39391  0.37514  1.0000
  C   C225      1.0  0.14956  0.39759  0.54235  1.0000
  C   C226      1.0  0.15781  0.39483  0.62442  1.0000
  C   C227      1.0  0.17410  0.38710  0.62479  1.0000
  C   C228      1.0  0.18219  0.38221  0.54307  1.0000
  H   H85       1.0  0.13764  0.40281  0.54459  1.0000
  H   H86       1.0  0.19406  0.37669  0.54575  1.0000
  C   C229      1.0  0.83103  0.13226  0.37430  1.0000
  C   C230      1.0  0.83849  0.12555  0.45805  1.0000
  C   C231      1.0  0.85510  0.11756  0.45839  1.0000
  C   C232      1.0  0.86356  0.11738  0.37524  1.0000
  C   C233      1.0  0.86271  0.11128  0.54180  1.0000
  C   C234      1.0  0.85421  0.11309  0.62332  1.0000
  C   C235      1.0  0.83796  0.12113  0.62303  1.0000
  C   C236      1.0  0.83016  0.12730  0.54118  1.0000
  H   H87       1.0  0.87459  0.10582  0.54458  1.0000
  H   H88       1.0  0.81832  0.13310  0.54339  1.0000
  C   C237      1.0  0.07332  0.20129  0.38159  1.0000
  C   C238      1.0  0.06653  0.17185  0.39790  1.0000
  C   C239      1.0  0.07602  0.14493  0.38256  1.0000
  C   C240      1.0  0.09285  0.14765  0.36594  1.0000
  C   C241      1.0  0.06806  0.11643  0.38363  1.0000
  C   C242      1.0  0.05211  0.11346  0.41149  1.0000
  C   C243      1.0  0.04366  0.13914  0.43967  1.0000
  C   C244      1.0  0.05074  0.16791  0.43192  1.0000
  H   H89       1.0  0.07340  0.09733  0.36029  1.0000
  H   H90       1.0  0.04678  0.09254  0.41320  1.0000
  H   H91       1.0  0.03221  0.13702  0.46326  1.0000
  H   H92       1.0  0.04420  0.18565  0.45589  1.0000
  C   C245      1.0  0.93917  0.30984  0.38224  1.0000
  C   C246      1.0  0.94593  0.33921  0.39993  1.0000
  C   C247      1.0  0.93649  0.36619  0.38455  1.0000
  C   C248      1.0  0.91971  0.36354  0.36630  1.0000
  C   C249      1.0  0.94446  0.39467  0.38748  1.0000
  C   C250      1.0  0.96032  0.39750  0.41701  1.0000
  C   C251      1.0  0.96867  0.37168  0.44512  1.0000
  C   C252      1.0  0.96162  0.34296  0.43550  1.0000
  H   H93       1.0  0.93921  0.41390  0.36443  1.0000
  H   H94       1.0  0.96565  0.41841  0.42013  1.0000
  H   H95       1.0  0.98005  0.37369  0.46990  1.0000
  H   H96       1.0  0.96806  0.32511  0.45963  1.0000
  N   N109      1.0  0.91449  0.17421  0.36204  1.0000
  N   N110      1.0  0.92364  0.19833  0.36068  1.0000
  N   N111      1.0  0.09819  0.33687  0.36190  1.0000
  N   N112      1.0  0.08899  0.31282  0.36077  1.0000
  C   C253      1.0  0.57323  0.45129  0.37711  1.0000
  C   C254      1.0  0.56653  0.42227  0.39962  1.0000
  C   C255      1.0  0.57587  0.39500  0.38667  1.0000
  C   C256      1.0  0.59248  0.39731  0.36365  1.0000
  C   C257      1.0  0.56798  0.36666  0.39764  1.0000
  C   C258      1.0  0.55234  0.36452  0.43126  1.0000
  C   C259      1.0  0.54411  0.39092  0.45536  1.0000
  C   C260      1.0  0.55107  0.41935  0.43891  1.0000
  H   H97       1.0  0.57315  0.34687  0.37879  1.0000
  H   H98       1.0  0.54710  0.34372  0.44018  1.0000
  H   H99       1.0  0.53292  0.38947  0.48303  1.0000
  H   H100      1.0  0.54478  0.43774  0.46070  1.0000
  C   C261      1.0  0.43975  0.06082  0.35577  1.0000
  C   C262      1.0  0.44647  0.08940  0.38345  1.0000
  C   C263      1.0  0.43729  0.11715  0.37439  1.0000
  C   C264      1.0  0.42100  0.11574  0.34432  1.0000
  C   C265      1.0  0.44469  0.14494  0.40014  1.0000
  C   C266      1.0  0.46008  0.14595  0.43748  1.0000
  C   C267      1.0  0.46845  0.11898  0.45246  1.0000
  C   C268      1.0  0.46170  0.09123  0.42613  1.0000
  H   H101      1.0  0.43912  0.16529  0.39410  1.0000
  H   H102      1.0  0.46492  0.16623  0.45733  1.0000
  H   H103      1.0  0.47936  0.11950  0.48370  1.0000
  H   H104      1.0  0.46790  0.07237  0.44478  1.0000
  N   N113      1.0  0.41498  0.42382  0.33838  1.0000
  N   N114      1.0  0.42376  0.44840  0.33374  1.0000
  N   N115      1.0  0.59750  0.08706  0.35643  1.0000
  N   N116      1.0  0.58849  0.06280  0.35362  1.0000
  C   C269      1.0  0.11076  0.03915  0.37718  1.0000
  C   C270      1.0  0.09679  0.02276  0.40471  1.0000
  C   C271      1.0  0.09658  0.48991  0.40082  1.0000
  C   C272      1.0  0.11077  0.47384  0.37536  1.0000
  C   C273      1.0  0.08261  0.47446  0.43039  1.0000
  C   C274      1.0  0.06925  0.49023  0.46345  1.0000
  C   C275      1.0  0.06972  0.02189  0.47068  1.0000
  C   C276      1.0  0.08336  0.03780  0.44244  1.0000
  H   H105      1.0  0.08199  0.45142  0.43249  1.0000
  H   H106      1.0  0.05949  0.47853  0.48640  1.0000
  H   H107      1.0  0.06031  0.03329  0.49903  1.0000
  H   H108      1.0  0.08362  0.06039  0.45611  1.0000
  C   C277      1.0  0.90182  0.47202  0.37711  1.0000
  C   C278      1.0  0.91571  0.48833  0.40639  1.0000
  C   C279      1.0  0.91598  0.02116  0.40264  1.0000
  C   C280      1.0  0.90189  0.03728  0.37583  1.0000
  C   C281      1.0  0.92984  0.03656  0.43401  1.0000
  C   C282      1.0  0.94302  0.02072  0.46893  1.0000
  C   C283      1.0  0.94248  0.48906  0.47610  1.0000
  C   C284      1.0  0.92896  0.47319  0.44577  1.0000
  H   H109      1.0  0.93046  0.05961  0.43630  1.0000
  H   H110      1.0  0.95268  0.03237  0.49349  1.0000
  H   H111      1.0  0.95173  0.47762  0.50595  1.0000
  H   H112      1.0  0.92859  0.45063  0.45969  1.0000
  C   C285      1.0  0.61052  0.28894  0.37198  1.0000
  C   C286      1.0  0.59713  0.27281  0.40844  1.0000
  C   C287      1.0  0.59673  0.24000  0.40495  1.0000
  C   C288      1.0  0.61029  0.22382  0.37120  1.0000
  C   C289      1.0  0.58357  0.22463  0.44480  1.0000
  C   C290      1.0  0.57125  0.24055  0.48843  1.0000
  C   C291      1.0  0.57198  0.27222  0.49508  1.0000
  C   C292      1.0  0.58478  0.28805  0.45587  1.0000
  H   H113      1.0  0.58302  0.20155  0.44753  1.0000
  H   H114      1.0  0.56218  0.22895  0.51938  1.0000
  H   H115      1.0  0.56345  0.28370  0.53100  1.0000
  H   H116      1.0  0.58549  0.31063  0.46943  1.0000
  C   C293      1.0  0.40235  0.22298  0.37095  1.0000
  C   C294      1.0  0.39267  0.23716  0.43799  1.0000
  C   C295      1.0  0.39325  0.26952  0.44813  1.0000
  C   C296      1.0  0.40254  0.28749  0.38714  1.0000
  C   C297      1.0  0.38579  0.28253  0.52502  1.0000
  C   C298      1.0  0.37704  0.26502  0.58665  1.0000
  C   C299      1.0  0.37585  0.23361  0.57415  1.0000
  C   C300      1.0  0.38376  0.21981  0.50151  1.0000
  H   H117      1.0  0.38764  0.30471  0.54135  1.0000
  H   H118      1.0  0.37206  0.27495  0.64232  1.0000
  H   H119      1.0  0.36998  0.22064  0.62071  1.0000
  H   H120      1.0  0.38371  0.19661  0.49976  1.0000
  N   N117      1.0  0.01413  0.25589  0.42843  1.0000
  N   N118      1.0  0.99842  0.25554  0.42849  1.0000
  N   N119      1.0  0.51361  0.00496  0.41125  1.0000
  N   N120      1.0  0.49792  0.00479  0.40799  1.0000
  C   C301      1.0  0.24030  0.63677  0.29463  1.0000
  C   C302      1.0  0.24826  0.63353  0.21053  1.0000
  C   C303      1.0  0.26511  0.62729  0.21000  1.0000
  C   C304      1.0  0.27342  0.62577  0.29350  1.0000
  C   C305      1.0  0.27300  0.62307  0.12642  1.0000
  C   C306      1.0  0.26457  0.62548  0.04477  1.0000
  C   C307      1.0  0.24814  0.63211  0.04523  1.0000
  C   C308      1.0  0.24004  0.63613  0.12737  1.0000
  H   H121      1.0  0.28501  0.61860  0.12382  1.0000
  H   H122      1.0  0.22803  0.64057  0.12553  1.0000
  C   C309      1.0  0.77254  0.87496  0.28839  1.0000
  C   C310      1.0  0.76439  0.87677  0.20447  1.0000
  C   C311      1.0  0.74757  0.88318  0.20421  1.0000
  C   C312      1.0  0.73950  0.88632  0.28803  1.0000
  C   C313      1.0  0.73950  0.88615  0.12068  1.0000
  C   C314      1.0  0.74774  0.88232  0.03890  1.0000
  C   C315      1.0  0.76416  0.87550  0.03919  1.0000
  C   C316      1.0  0.77243  0.87270  0.12125  1.0000
  H   H123      1.0  0.72751  0.89077  0.11828  1.0000
  H   H124      1.0  0.78443  0.86816  0.11925  1.0000
  N   N121      1.0  0.74815  0.62696  0.30385  1.0000
  N   N122      1.0  0.76343  0.63313  0.30318  1.0000
  H   H125      1.0  0.74200  0.62547  0.02321  1.0000
  H   H126      1.0  0.77035  0.63704  0.02199  1.0000
  N   N123      1.0  0.26494  0.88563  0.30753  1.0000
  N   N124      1.0  0.24965  0.87939  0.30632  1.0000
  H   H127      1.0  0.27097  0.88491  0.02683  1.0000
  H   H128      1.0  0.24263  0.87320  0.02471  1.0000
  N   N125      1.0  0.30285  0.99162  0.29405  1.0000
  N   N126      1.0  0.30266  0.52113  0.28915  1.0000
  H   H129      1.0  0.30845  0.98666  0.01424  1.0000
  H   H130      1.0  0.30817  0.54164  0.00464  1.0000
  N   N127      1.0  0.71140  0.52061  0.29303  1.0000
  N   N128      1.0  0.71167  0.99112  0.28797  1.0000
  H   H131      1.0  0.70103  0.52525  0.01008  1.0000
  H   H132      1.0  0.70145  0.97028  0.00023  1.0000
  N   N129      1.0  0.79950  0.74026  0.29181  1.0000
  N   N130      1.0  0.79922  0.76977  0.28800  1.0000
  H   H133      1.0  0.81290  0.73387  0.00559  1.0000
  N   N131      1.0  0.21430  0.77148  0.29583  1.0000
  N   N132      1.0  0.21446  0.74196  0.29238  1.0000
  H   H134      1.0  0.19641  0.77857  0.00350  1.0000
  C   C317      1.0  0.33272  0.62943  0.30697  1.0000
  C   C318      1.0  0.33955  0.64114  0.22633  1.0000
  C   C319      1.0  0.35622  0.64904  0.22579  1.0000
  C   C320      1.0  0.36544  0.64432  0.30516  1.0000
  C   C321      1.0  0.36322  0.65992  0.14497  1.0000
  C   C322      1.0  0.35413  0.66248  0.06568  1.0000
  C   C323      1.0  0.33788  0.65449  0.06587  1.0000
  C   C324      1.0  0.33065  0.64395  0.14540  1.0000
  H   H135      1.0  0.37511  0.66534  0.14203  1.0000
  H   H136      1.0  0.35941  0.66969  0.00735  1.0000
  H   H137      1.0  0.33134  0.65611  0.00782  1.0000
  H   H138      1.0  0.31884  0.63802  0.14269  1.0000
  C   C325      1.0  0.68020  0.88356  0.30387  1.0000
  C   C326      1.0  0.67317  0.87044  0.22569  1.0000
  C   C327      1.0  0.65654  0.86235  0.22808  1.0000
  C   C328      1.0  0.64757  0.86840  0.30756  1.0000
  C   C329      1.0  0.64931  0.85003  0.14978  1.0000
  C   C330      1.0  0.65816  0.84617  0.07006  1.0000
  C   C331      1.0  0.67436  0.85445  0.06727  1.0000
  C   C332      1.0  0.68182  0.86644  0.14434  1.0000
  H   H139      1.0  0.63743  0.84444  0.14898  1.0000
  H   H140      1.0  0.65273  0.83768  0.01363  1.0000
  H   H141      1.0  0.68073  0.85191  0.00887  1.0000
  H   H142      1.0  0.69358  0.87254  0.13949  1.0000
  N   N133      1.0  0.65614  0.63352  0.29708  1.0000
  N   N134      1.0  0.67126  0.62599  0.29813  1.0000
  H   H143      1.0  0.65259  0.66133  0.00861  1.0000
  H   H144      1.0  0.68063  0.64733  0.00994  1.0000
  N   N135      1.0  0.35825  0.88194  0.31819  1.0000
  N   N136      1.0  0.34312  0.88932  0.31541  1.0000
  H   H145      1.0  0.35730  0.84236  0.02018  1.0000
  H   H146      1.0  0.32893  0.85350  0.01224  1.0000
  C   C333      1.0  0.83169  0.87747  0.31236  1.0000
  C   C334      1.0  0.83890  0.89056  0.23467  1.0000
  C   C335      1.0  0.85553  0.89862  0.23815  1.0000
  C   C336      1.0  0.86434  0.89259  0.31825  1.0000
  C   C337      1.0  0.86293  0.91090  0.16027  1.0000
  C   C338      1.0  0.85427  0.91476  0.07995  1.0000
  C   C339      1.0  0.83807  0.90651  0.07609  1.0000
  C   C340      1.0  0.83045  0.89456  0.15268  1.0000
  H   H147      1.0  0.87482  0.91646  0.16020  1.0000
  H   H148      1.0  0.85981  0.92323  0.02388  1.0000
  H   H149      1.0  0.83183  0.90906  0.01725  1.0000
  H   H150      1.0  0.81869  0.88849  0.14695  1.0000
  C   C341      1.0  0.18102  0.63406  0.31612  1.0000
  C   C342      1.0  0.17382  0.62117  0.23810  1.0000
  C   C343      1.0  0.15719  0.61305  0.24135  1.0000
  C   C344      1.0  0.14838  0.61875  0.32162  1.0000
  C   C345      1.0  0.14981  0.60101  0.16309  1.0000
  C   C346      1.0  0.15848  0.59744  0.08268  1.0000
  C   C347      1.0  0.17468  0.60573  0.07909  1.0000
  C   C348      1.0  0.18229  0.61744  0.15604  1.0000
  H   H151      1.0  0.13793  0.59540  0.16283  1.0000
  H   H152      1.0  0.15294  0.58915  0.02635  1.0000
  H   H153      1.0  0.18092  0.60340  0.02019  1.0000
  H   H154      1.0  0.19404  0.62356  0.15055  1.0000
  N   N137      1.0  0.15768  0.88786  0.29909  1.0000
  N   N138      1.0  0.17287  0.88075  0.29968  1.0000
  H   H155      1.0  0.15193  0.89825  0.01735  1.0000
  H   H156      1.0  0.18008  0.88501  0.01796  1.0000
  N   N139      1.0  0.85546  0.62482  0.29920  1.0000
  N   N140      1.0  0.84031  0.63221  0.29917  1.0000
  H   H157      1.0  0.85988  0.60875  0.01635  1.0000
  H   H158      1.0  0.83181  0.62256  0.01582  1.0000
  N   N141      1.0  0.09817  0.67683  0.35797  1.0000
  N   N142      1.0  0.08928  0.70130  0.36352  1.0000
  N   N143      1.0  0.91440  0.83439  0.35719  1.0000
  N   N144      1.0  0.92326  0.80989  0.36290  1.0000
  C   C349      1.0  0.93960  0.69815  0.34308  1.0000
  C   C350      1.0  0.94610  0.66888  0.32019  1.0000
  C   C351      1.0  0.93602  0.64216  0.32395  1.0000
  C   C352      1.0  0.91945  0.64516  0.34726  1.0000
  C   C353      1.0  0.94270  0.61376  0.29775  1.0000
  C   C354      1.0  0.95865  0.61091  0.26996  1.0000
  C   C355      1.0  0.96830  0.63669  0.26446  1.0000
  C   C356      1.0  0.96204  0.66514  0.28800  1.0000
  H   H159      1.0  0.93607  0.59452  0.29354  1.0000
  H   H160      1.0  0.96300  0.59029  0.24956  1.0000
  H   H161      1.0  0.97972  0.63492  0.23997  1.0000
  H   H162      1.0  0.96935  0.68300  0.27514  1.0000
  C   C357      1.0  0.07301  0.81308  0.34349  1.0000
  C   C358      1.0  0.06655  0.84240  0.32067  1.0000
  C   C359      1.0  0.07672  0.86904  0.32377  1.0000
  C   C360      1.0  0.09329  0.86595  0.34697  1.0000
  C   C361      1.0  0.07009  0.89743  0.29708  1.0000
  C   C362      1.0  0.05412  0.90043  0.26995  1.0000
  C   C363      1.0  0.04437  0.87476  0.26556  1.0000
  C   C364      1.0  0.05057  0.84629  0.28930  1.0000
  H   H163      1.0  0.07678  0.91658  0.29217  1.0000
  H   H164      1.0  0.04980  0.92107  0.24960  1.0000
  H   H165      1.0  0.03290  0.87664  0.24191  1.0000
  H   H166      1.0  0.04315  0.82852  0.27731  1.0000
  N   N145      1.0  0.59777  0.92630  0.35039  1.0000
  N   N146      1.0  0.58902  0.95094  0.35520  1.0000
  N   N147      1.0  0.41569  0.58708  0.32575  1.0000
  N   N148      1.0  0.42416  0.56208  0.33003  1.0000
  C   C365      1.0  0.43953  0.94876  0.31165  1.0000
  C   C366      1.0  0.44604  0.91970  0.28657  1.0000
  C   C367      1.0  0.43635  0.89255  0.29405  1.0000
  C   C368      1.0  0.42006  0.89482  0.32288  1.0000
  C   C369      1.0  0.44305  0.86431  0.26705  1.0000
  C   C370      1.0  0.45865  0.86216  0.23310  1.0000
  C   C371      1.0  0.46788  0.88840  0.22295  1.0000
  C   C372      1.0  0.46159  0.91666  0.24842  1.0000
  H   H167      1.0  0.43657  0.84477  0.26710  1.0000
  H   H168      1.0  0.46304  0.84167  0.21192  1.0000
  H   H169      1.0  0.47898  0.88707  0.19419  1.0000
  H   H170      1.0  0.46842  0.93498  0.23243  1.0000
  C   C373      1.0  0.57259  0.56280  0.33441  1.0000
  C   C374      1.0  0.56601  0.59202  0.31175  1.0000
  C   C375      1.0  0.57589  0.61894  0.31827  1.0000
  C   C376      1.0  0.59243  0.61608  0.34232  1.0000
  C   C377      1.0  0.56903  0.64741  0.29424  1.0000
  C   C378      1.0  0.55318  0.65002  0.26455  1.0000
  C   C379      1.0  0.54381  0.62399  0.25516  1.0000
  C   C380      1.0  0.55019  0.59554  0.27753  1.0000
  H   H171      1.0  0.57542  0.66699  0.29401  1.0000
  H   H172      1.0  0.54869  0.67073  0.24604  1.0000
  H   H173      1.0  0.53247  0.62566  0.22956  1.0000
  H   H174      1.0  0.54311  0.57756  0.26229  1.0000
  N   N149      1.0  0.12359  0.99173  0.35634  1.0000
  N   N150      1.0  0.12353  0.52133  0.35635  1.0000
  N   N151      1.0  0.88910  0.51949  0.35537  1.0000
  N   N152      1.0  0.88913  0.98989  0.35511  1.0000
  N   N153      1.0  0.62279  0.74143  0.34461  1.0000
  N   N154      1.0  0.62281  0.77101  0.34412  1.0000
  N   N155      1.0  0.41232  0.77155  0.33067  1.0000
  N   N156      1.0  0.41230  0.74164  0.32348  1.0000
  C   C381      1.0  0.98936  0.75524  0.35237  1.0000
  C   C382      1.0  0.99767  0.75535  0.26861  1.0000
  C   C383      1.0  0.01485  0.75595  0.26855  1.0000
  C   C384      1.0  0.02317  0.75612  0.35224  1.0000
  C   C385      1.0  0.02306  0.75615  0.18488  1.0000
  C   C386      1.0  0.01463  0.75587  0.10297  1.0000
  C   C387      1.0  0.99784  0.75536  0.10303  1.0000
  C   C388      1.0  0.98944  0.75511  0.18501  1.0000
  H   H175      1.0  0.03529  0.75648  0.18230  1.0000
  H   H176      1.0  0.02072  0.75603  0.04319  1.0000
  H   H177      1.0  0.99174  0.75517  0.04330  1.0000
  H   H178      1.0  0.97721  0.75480  0.18252  1.0000
  C   C389      1.0  0.48940  0.50470  0.32995  1.0000
  C   C390      1.0  0.49822  0.50488  0.24794  1.0000
  C   C391      1.0  0.51538  0.50531  0.25149  1.0000
  C   C392      1.0  0.52312  0.50520  0.33694  1.0000
  C   C393      1.0  0.52414  0.50562  0.16959  1.0000
  C   C394      1.0  0.51625  0.50563  0.08598  1.0000
  C   C395      1.0  0.49948  0.50531  0.08254  1.0000
  C   C396      1.0  0.49054  0.50495  0.16270  1.0000
  H   H179      1.0  0.53638  0.50579  0.16955  1.0000
  H   H180      1.0  0.52273  0.50587  0.02751  1.0000
  H   H181      1.0  0.49377  0.50535  0.02157  1.0000
  H   H182      1.0  0.47833  0.50478  0.15766  1.0000
  C   C397      1.0  0.31738  0.61582  0.31476  1.0000
  N   N157      1.0  0.30300  0.62969  0.29774  1.0000
  C   C398      1.0  0.28895  0.61381  0.30541  1.0000
  N   N158      1.0  0.28949  0.58410  0.32880  1.0000
  C   C399      1.0  0.30358  0.57028  0.34596  1.0000
  N   N159      1.0  0.31738  0.58604  0.33839  1.0000
  C   C400      1.0  0.69561  0.89694  0.30968  1.0000
  N   N160      1.0  0.70990  0.88287  0.29174  1.0000
  C   C401      1.0  0.72402  0.89850  0.29951  1.0000
  N   N161      1.0  0.72366  0.92807  0.32448  1.0000
  C   C402      1.0  0.70967  0.94200  0.34312  1.0000
  N   N162      1.0  0.69581  0.92654  0.33512  1.0000
  C   C403      1.0  0.69574  0.61387  0.36735  1.0000
  N   N163      1.0  0.71015  0.62850  0.37229  1.0000
  C   C404      1.0  0.72403  0.61211  0.37187  1.0000
  N   N164      1.0  0.72337  0.58140  0.37023  1.0000
  C   C405      1.0  0.70914  0.56695  0.36682  1.0000
  N   N165      1.0  0.69539  0.58310  0.36618  1.0000
  C   C406      1.0  0.31754  0.89824  0.37621  1.0000
  N   N166      1.0  0.30308  0.88367  0.38047  1.0000
  C   C407      1.0  0.28915  0.89994  0.37630  1.0000
  N   N167      1.0  0.28982  0.93063  0.37203  1.0000
  C   C408      1.0  0.30404  0.94513  0.36873  1.0000
  N   N168      1.0  0.31779  0.92901  0.37178  1.0000
  C   C409      1.0  0.81627  0.86406  0.31647  1.0000
  N   N169      1.0  0.80207  0.87824  0.29707  1.0000
  C   C410      1.0  0.78793  0.86256  0.30113  1.0000
  N   N170      1.0  0.78816  0.83278  0.32398  1.0000
  C   C411      1.0  0.80205  0.81870  0.34418  1.0000
  N   N171      1.0  0.81595  0.83427  0.33984  1.0000
  C   C412      1.0  0.19645  0.64753  0.32045  1.0000
  N   N172      1.0  0.21070  0.63335  0.30203  1.0000
  C   C413      1.0  0.22483  0.64907  0.30658  1.0000
  N   N173      1.0  0.22451  0.67891  0.32856  1.0000
  C   C414      1.0  0.21059  0.69306  0.34755  1.0000
  N   N174      1.0  0.19671  0.67740  0.34309  1.0000
  C   C415      1.0  0.19697  0.86542  0.36829  1.0000
  N   N175      1.0  0.21141  0.88000  0.37322  1.0000
  C   C416      1.0  0.22532  0.86365  0.37104  1.0000
  N   N176      1.0  0.22463  0.83293  0.36821  1.0000
  C   C417      1.0  0.21040  0.81844  0.36494  1.0000
  N   N177      1.0  0.19666  0.83464  0.36626  1.0000
  C   C418      1.0  0.81603  0.64662  0.36689  1.0000
  N   N178      1.0  0.80162  0.63198  0.37153  1.0000
  C   C419      1.0  0.78771  0.64831  0.36885  1.0000
  N   N179      1.0  0.78836  0.67902  0.36608  1.0000
  C   C420      1.0  0.80258  0.69352  0.36300  1.0000
  N   N180      1.0  0.81634  0.67739  0.36463  1.0000
  C   C421      1.0  0.10472  0.62413  0.36043  1.0000
  N   N181      1.0  0.10195  0.59361  0.37244  1.0000
  C   C422      1.0  0.11331  0.57116  0.36717  1.0000
  N   N182      1.0  0.12839  0.58104  0.34792  1.0000
  C   C423      1.0  0.13220  0.61072  0.33641  1.0000
  N   N183      1.0  0.12032  0.63175  0.34383  1.0000
  C   C424      1.0  0.90788  0.88709  0.36000  1.0000
  N   N184      1.0  0.91063  0.91759  0.37253  1.0000
  C   C425      1.0  0.89929  0.94005  0.36645  1.0000
  N   N185      1.0  0.88427  0.93023  0.34579  1.0000
  C   C426      1.0  0.88049  0.90058  0.33357  1.0000
  N   N186      1.0  0.89233  0.87952  0.34199  1.0000
  C   C427      1.0  0.90750  0.62202  0.35624  1.0000
  N   N187      1.0  0.91053  0.59144  0.36240  1.0000
  C   C428      1.0  0.89912  0.56922  0.36917  1.0000
  N   N188      1.0  0.88371  0.57924  0.36998  1.0000
  C   C429      1.0  0.87977  0.60906  0.36600  1.0000
  N   N189      1.0  0.89170  0.62999  0.36025  1.0000
  C   C430      1.0  0.10528  0.88906  0.35582  1.0000
  N   N190      1.0  0.10224  0.91963  0.36189  1.0000
  C   C431      1.0  0.11361  0.94191  0.36866  1.0000
  N   N191      1.0  0.12903  0.93192  0.36946  1.0000
  C   C432      1.0  0.13302  0.90211  0.36542  1.0000
  N   N192      1.0  0.12109  0.88113  0.35995  1.0000
  C   C433      1.0  0.60425  0.87372  0.35553  1.0000
  N   N193      1.0  0.60160  0.84324  0.36877  1.0000
  C   C434      1.0  0.61292  0.82087  0.36012  1.0000
  N   N194      1.0  0.62778  0.83065  0.33599  1.0000
  C   C435      1.0  0.63143  0.86029  0.32267  1.0000
  N   N195      1.0  0.61967  0.88131  0.33413  1.0000
  C   C436      1.0  0.40940  0.63968  0.33563  1.0000
  N   N196      1.0  0.41219  0.67029  0.34740  1.0000
  C   C437      1.0  0.40042  0.69197  0.34616  1.0000
  N   N197      1.0  0.38523  0.68208  0.33169  1.0000
  C   C438      1.0  0.38167  0.65257  0.31610  1.0000
  N   N198      1.0  0.39376  0.63189  0.32018  1.0000
  C   C439      1.0  0.40864  0.87121  0.34084  1.0000
  N   N199      1.0  0.41171  0.84049  0.34907  1.0000
  C   C440      1.0  0.40051  0.81957  0.37669  1.0000
  N   N200      1.0  0.38552  0.83067  0.39102  1.0000
  C   C441      1.0  0.38148  0.86026  0.38168  1.0000
  N   N201      1.0  0.39319  0.87990  0.35688  1.0000
  C   C442      1.0  0.60435  0.63926  0.35173  1.0000
  N   N202      1.0  0.60136  0.66985  0.35800  1.0000
  C   C443      1.0  0.61287  0.69189  0.36415  1.0000
  N   N203      1.0  0.62825  0.68180  0.36451  1.0000
  C   C444      1.0  0.63212  0.65197  0.36076  1.0000
  N   N204      1.0  0.62013  0.63116  0.35537  1.0000
  C   C445      1.0  0.06489  0.78453  0.35262  1.0000
  N   N205      1.0  0.04860  0.78278  0.35200  1.0000
  C   C446      1.0  0.04016  0.75666  0.36121  1.0000
  N   N206      1.0  0.04877  0.73075  0.37055  1.0000
  C   C447      1.0  0.06508  0.72975  0.37472  1.0000
  N   N207      1.0  0.07273  0.75727  0.36459  1.0000
  C   C448      1.0  0.94769  0.72671  0.35230  1.0000
  N   N208      1.0  0.96398  0.72850  0.35181  1.0000
  C   C449      1.0  0.97238  0.75464  0.36140  1.0000
  N   N209      1.0  0.96375  0.78051  0.37105  1.0000
  C   C450      1.0  0.94744  0.78143  0.37505  1.0000
  N   N210      1.0  0.93982  0.75391  0.36450  1.0000
  C   C451      1.0  0.56461  0.53412  0.34261  1.0000
  N   N211      1.0  0.54834  0.53213  0.33994  1.0000
  C   C452      1.0  0.54001  0.50592  0.34931  1.0000
  N   N212      1.0  0.54864  0.98017  0.36136  1.0000
  C   C453      1.0  0.56494  0.97956  0.36759  1.0000
  N   N213      1.0  0.57252  0.50707  0.35668  1.0000
  C   C454      1.0  0.44759  0.97736  0.32116  1.0000
  N   N214      1.0  0.46388  0.97861  0.32311  1.0000
  C   C455      1.0  0.47240  0.00450  0.33537  1.0000
  N   N215      1.0  0.46396  0.53057  0.34556  1.0000
  C   C456      1.0  0.44766  0.53203  0.34710  1.0000
  N   N216      1.0  0.43987  0.00475  0.33389  1.0000
  N   N217      1.0  0.26467  0.62903  0.36996  1.0000
  N   N218      1.0  0.24937  0.63493  0.37037  1.0000
  H   H183      1.0  0.27043  0.62256  0.65152  1.0000
  H   H184      1.0  0.24205  0.63387  0.65234  1.0000
  N   N219      1.0  0.74842  0.88419  0.36423  1.0000
  N   N220      1.0  0.76369  0.87813  0.36448  1.0000
  H   H185      1.0  0.74177  0.88438  0.64571  1.0000
  H   H186      1.0  0.77012  0.87274  0.64620  1.0000
  C   C457      1.0  0.77231  0.63600  0.37926  1.0000
  C   C458      1.0  0.76435  0.63375  0.46368  1.0000
  C   C459      1.0  0.74757  0.62726  0.46442  1.0000
  C   C460      1.0  0.73945  0.62452  0.38068  1.0000
  C   C461      1.0  0.73960  0.62407  0.54827  1.0000
  C   C462      1.0  0.74791  0.62766  0.62989  1.0000
  C   C463      1.0  0.76432  0.63445  0.62917  1.0000
  C   C464      1.0  0.77248  0.63749  0.54686  1.0000
  H   H187      1.0  0.72760  0.61953  0.55110  1.0000
  H   H188      1.0  0.78447  0.64207  0.54870  1.0000
  C   C465      1.0  0.24076  0.87594  0.38211  1.0000
  C   C466      1.0  0.24872  0.87769  0.46665  1.0000
  C   C467      1.0  0.26550  0.88426  0.46789  1.0000
  C   C468      1.0  0.27367  0.88761  0.38444  1.0000
  C   C469      1.0  0.27343  0.88703  0.55200  1.0000
  C   C470      1.0  0.26508  0.88297  0.63332  1.0000
  C   C471      1.0  0.24869  0.87612  0.63209  1.0000
  C   C472      1.0  0.24057  0.87347  0.54954  1.0000
  H   H189      1.0  0.28540  0.89170  0.55523  1.0000
  H   H190      1.0  0.22857  0.86887  0.55104  1.0000
  C   C473      1.0  0.30396  0.53921  0.36264  1.0000
  C   C474      1.0  0.30545  0.52582  0.44914  1.0000
  C   C475      1.0  0.30562  0.99345  0.45468  1.0000
  C   C476      1.0  0.30441  0.97667  0.37324  1.0000
  C   C477      1.0  0.30677  0.97944  0.54051  1.0000
  C   C478      1.0  0.30770  0.99704  0.61937  1.0000
  C   C479      1.0  0.30754  0.52888  0.61382  1.0000
  C   C480      1.0  0.30644  0.54319  0.52939  1.0000
  H   H191      1.0  0.30685  0.95630  0.54683  1.0000
  H   H192      1.0  0.30625  0.56642  0.52747  1.0000
  C   C481      1.0  0.70941  0.97299  0.36059  1.0000
  C   C482      1.0  0.70676  0.98629  0.44634  1.0000
  C   C483      1.0  0.70651  0.51864  0.45206  1.0000
  C   C484      1.0  0.70875  0.53546  0.37143  1.0000
  C   C485      1.0  0.70433  0.53259  0.53733  1.0000
  C   C486      1.0  0.70249  0.51492  0.61555  1.0000
  C   C487      1.0  0.70273  0.98309  0.60983  1.0000
  C   C488      1.0  0.70481  0.96884  0.52588  1.0000
  H   H193      1.0  0.70420  0.55573  0.54374  1.0000
  H   H194      1.0  0.70509  0.94562  0.52391  1.0000
  C   C489      1.0  0.80221  0.78759  0.36046  1.0000
  C   C490      1.0  0.80558  0.77388  0.44484  1.0000
  C   C491      1.0  0.80585  0.74150  0.44922  1.0000
  C   C492      1.0  0.80290  0.72503  0.36866  1.0000
  C   C493      1.0  0.80864  0.72717  0.53339  1.0000
  C   C494      1.0  0.81105  0.74447  0.61182  1.0000
  C   C495      1.0  0.81081  0.77633  0.60741  1.0000
  C   C496      1.0  0.80815  0.79095  0.52456  1.0000
  H   H195      1.0  0.80873  0.70401  0.53900  1.0000
  H   H196      1.0  0.81247  0.78888  0.66466  1.0000
  H   H197      1.0  0.80782  0.81418  0.52369  1.0000
  C   C497      1.0  0.21041  0.72424  0.36347  1.0000
  C   C498      1.0  0.20608  0.73815  0.44617  1.0000
  C   C499      1.0  0.20595  0.77055  0.45020  1.0000
  C   C500      1.0  0.20999  0.78690  0.37092  1.0000
  C   C501      1.0  0.20228  0.78502  0.53308  1.0000
  C   C502      1.0  0.19888  0.76786  0.61060  1.0000
  C   C503      1.0  0.19898  0.73600  0.60654  1.0000
  C   C504      1.0  0.20250  0.72123  0.52495  1.0000
  H   H198      1.0  0.20230  0.80818  0.53860  1.0000
  H   H199      1.0  0.19660  0.72355  0.66317  1.0000
  H   H200      1.0  0.20274  0.69800  0.52450  1.0000
  N   N221      1.0  0.35789  0.63262  0.37817  1.0000
  N   N222      1.0  0.34274  0.62538  0.37825  1.0000
  N   N223      1.0  0.65529  0.88141  0.37789  1.0000
  N   N224      1.0  0.67041  0.88869  0.37546  1.0000
  C   C505      1.0  0.68073  0.62832  0.37220  1.0000
  C   C506      1.0  0.67351  0.63782  0.45419  1.0000
  C   C507      1.0  0.65692  0.64598  0.45344  1.0000
  C   C508      1.0  0.64828  0.64360  0.37116  1.0000
  C   C509      1.0  0.64950  0.65477  0.53539  1.0000
  C   C510      1.0  0.65815  0.65528  0.61655  1.0000
  C   C511      1.0  0.67438  0.64712  0.61735  1.0000
  C   C512      1.0  0.68200  0.63848  0.53696  1.0000
  H   H201      1.0  0.63761  0.66024  0.53764  1.0000
  H   H202      1.0  0.69381  0.63255  0.54004  1.0000
  C   C513      1.0  0.33265  0.88403  0.38368  1.0000
  C   C514      1.0  0.33885  0.87132  0.46451  1.0000
  C   C515      1.0  0.35554  0.86392  0.46844  1.0000
  C   C516      1.0  0.36529  0.86919  0.39133  1.0000
  C   C517      1.0  0.36205  0.85359  0.55112  1.0000
  C   C518      1.0  0.35235  0.84953  0.62747  1.0000
  C   C519      1.0  0.33595  0.85609  0.62296  1.0000
  C   C520      1.0  0.32928  0.86714  0.54248  1.0000
  H   H203      1.0  0.37407  0.85030  0.55814  1.0000
  H   H204      1.0  0.31737  0.87238  0.54230  1.0000
  N   N225      1.0  0.85647  0.87951  0.38797  1.0000
  N   N226      1.0  0.84134  0.87223  0.38451  1.0000
  N   N227      1.0  0.15624  0.63167  0.39168  1.0000
  N   N228      1.0  0.17136  0.63903  0.38843  1.0000
  C   C521      1.0  0.18192  0.87969  0.37567  1.0000
  C   C522      1.0  0.17411  0.88496  0.45937  1.0000
  C   C523      1.0  0.15745  0.89261  0.45903  1.0000
  C   C524      1.0  0.14925  0.89390  0.37514  1.0000
  C   C525      1.0  0.14956  0.89760  0.54235  1.0000
  C   C526      1.0  0.15781  0.89483  0.62442  1.0000
  C   C527      1.0  0.17410  0.88710  0.62479  1.0000
  C   C528      1.0  0.18219  0.88221  0.54307  1.0000
  H   H205      1.0  0.13764  0.90281  0.54459  1.0000
  H   H206      1.0  0.19406  0.87669  0.54575  1.0000
  C   C529      1.0  0.83103  0.63226  0.37430  1.0000
  C   C530      1.0  0.83849  0.62555  0.45805  1.0000
  C   C531      1.0  0.85510  0.61756  0.45839  1.0000
  C   C532      1.0  0.86356  0.61738  0.37524  1.0000
  C   C533      1.0  0.86271  0.61128  0.54180  1.0000
  C   C534      1.0  0.85421  0.61308  0.62332  1.0000
  C   C535      1.0  0.83796  0.62113  0.62303  1.0000
  C   C536      1.0  0.83016  0.62730  0.54118  1.0000
  H   H207      1.0  0.87459  0.60582  0.54458  1.0000
  H   H208      1.0  0.81832  0.63310  0.54339  1.0000
  C   C537      1.0  0.07332  0.70129  0.38159  1.0000
  C   C538      1.0  0.06653  0.67185  0.39790  1.0000
  C   C539      1.0  0.07602  0.64493  0.38256  1.0000
  C   C540      1.0  0.09285  0.64765  0.36594  1.0000
  C   C541      1.0  0.06806  0.61643  0.38363  1.0000
  C   C542      1.0  0.05211  0.61346  0.41149  1.0000
  C   C543      1.0  0.04366  0.63914  0.43967  1.0000
  C   C544      1.0  0.05074  0.66791  0.43192  1.0000
  H   H209      1.0  0.07340  0.59733  0.36029  1.0000
  H   H210      1.0  0.04678  0.59254  0.41320  1.0000
  H   H211      1.0  0.03221  0.63702  0.46326  1.0000
  H   H212      1.0  0.04420  0.68565  0.45589  1.0000
  C   C545      1.0  0.93917  0.80984  0.38224  1.0000
  C   C546      1.0  0.94593  0.83921  0.39993  1.0000
  C   C547      1.0  0.93649  0.86619  0.38455  1.0000
  C   C548      1.0  0.91971  0.86355  0.36630  1.0000
  C   C549      1.0  0.94446  0.89467  0.38748  1.0000
  C   C550      1.0  0.96032  0.89750  0.41701  1.0000
  C   C551      1.0  0.96867  0.87168  0.44512  1.0000
  C   C552      1.0  0.96162  0.84296  0.43550  1.0000
  H   H213      1.0  0.93921  0.91390  0.36443  1.0000
  H   H214      1.0  0.96565  0.91840  0.42013  1.0000
  H   H215      1.0  0.98005  0.87369  0.46990  1.0000
  H   H216      1.0  0.96806  0.82511  0.45963  1.0000
  N   N229      1.0  0.91449  0.67421  0.36204  1.0000
  N   N230      1.0  0.92364  0.69833  0.36068  1.0000
  N   N231      1.0  0.09819  0.83687  0.36190  1.0000
  N   N232      1.0  0.08899  0.81282  0.36077  1.0000
  C   C553      1.0  0.57323  0.95129  0.37711  1.0000
  C   C554      1.0  0.56653  0.92227  0.39962  1.0000
  C   C555      1.0  0.57587  0.89500  0.38667  1.0000
  C   C556      1.0  0.59248  0.89731  0.36365  1.0000
  C   C557      1.0  0.56798  0.86666  0.39764  1.0000
  C   C558      1.0  0.55234  0.86452  0.43126  1.0000
  C   C559      1.0  0.54411  0.89092  0.45536  1.0000
  C   C560      1.0  0.55107  0.91935  0.43891  1.0000
  H   H217      1.0  0.57315  0.84687  0.37879  1.0000
  H   H218      1.0  0.54710  0.84372  0.44018  1.0000
  H   H219      1.0  0.53292  0.88947  0.48303  1.0000
  H   H220      1.0  0.54478  0.93774  0.46070  1.0000
  C   C561      1.0  0.43975  0.56082  0.35577  1.0000
  C   C562      1.0  0.44647  0.58940  0.38345  1.0000
  C   C563      1.0  0.43729  0.61714  0.37439  1.0000
  C   C564      1.0  0.42100  0.61574  0.34432  1.0000
  C   C565      1.0  0.44469  0.64494  0.40014  1.0000
  C   C566      1.0  0.46008  0.64595  0.43748  1.0000
  C   C567      1.0  0.46845  0.61898  0.45246  1.0000
  C   C568      1.0  0.46170  0.59123  0.42613  1.0000
  H   H221      1.0  0.43912  0.66529  0.39410  1.0000
  H   H222      1.0  0.46492  0.66623  0.45733  1.0000
  H   H223      1.0  0.47936  0.61950  0.48370  1.0000
  H   H224      1.0  0.46790  0.57237  0.44478  1.0000
  N   N233      1.0  0.41498  0.92382  0.33838  1.0000
  N   N234      1.0  0.42376  0.94840  0.33374  1.0000
  N   N235      1.0  0.59750  0.58706  0.35643  1.0000
  N   N236      1.0  0.58849  0.56280  0.35362  1.0000
  C   C569      1.0  0.11076  0.53915  0.37718  1.0000
  C   C570      1.0  0.09679  0.52276  0.40471  1.0000
  C   C571      1.0  0.09658  0.98991  0.40082  1.0000
  C   C572      1.0  0.11077  0.97384  0.37536  1.0000
  C   C573      1.0  0.08261  0.97446  0.43039  1.0000
  C   C574      1.0  0.06925  0.99023  0.46345  1.0000
  C   C575      1.0  0.06972  0.52189  0.47068  1.0000
  C   C576      1.0  0.08336  0.53780  0.44244  1.0000
  H   H225      1.0  0.08199  0.95142  0.43249  1.0000
  H   H226      1.0  0.05949  0.97853  0.48640  1.0000
  H   H227      1.0  0.06031  0.53329  0.49903  1.0000
  H   H228      1.0  0.08362  0.56039  0.45611  1.0000
  C   C577      1.0  0.90182  0.97202  0.37711  1.0000
  C   C578      1.0  0.91571  0.98832  0.40639  1.0000
  C   C579      1.0  0.91598  0.52116  0.40264  1.0000
  C   C580      1.0  0.90189  0.53729  0.37583  1.0000
  C   C581      1.0  0.92984  0.53656  0.43401  1.0000
  C   C582      1.0  0.94302  0.52072  0.46893  1.0000
  C   C583      1.0  0.94248  0.98906  0.47610  1.0000
  C   C584      1.0  0.92896  0.97319  0.44577  1.0000
  H   H229      1.0  0.93046  0.55961  0.43630  1.0000
  H   H230      1.0  0.95268  0.53236  0.49349  1.0000
  H   H231      1.0  0.95173  0.97762  0.50595  1.0000
  H   H232      1.0  0.92859  0.95063  0.45969  1.0000
  C   C585      1.0  0.61052  0.78894  0.37198  1.0000
  C   C586      1.0  0.59713  0.77282  0.40844  1.0000
  C   C587      1.0  0.59673  0.74000  0.40495  1.0000
  C   C588      1.0  0.61029  0.72382  0.37120  1.0000
  C   C589      1.0  0.58357  0.72463  0.44480  1.0000
  C   C590      1.0  0.57125  0.74055  0.48843  1.0000
  C   C591      1.0  0.57198  0.77222  0.49508  1.0000
  C   C592      1.0  0.58478  0.78805  0.45587  1.0000
  H   H233      1.0  0.58302  0.70155  0.44753  1.0000
  H   H234      1.0  0.56218  0.72895  0.51938  1.0000
  H   H235      1.0  0.56345  0.78370  0.53100  1.0000
  H   H236      1.0  0.58549  0.81063  0.46943  1.0000
  C   C593      1.0  0.40235  0.72298  0.37095  1.0000
  C   C594      1.0  0.39267  0.73716  0.43799  1.0000
  C   C595      1.0  0.39325  0.76952  0.44813  1.0000
  C   C596      1.0  0.40254  0.78749  0.38714  1.0000
  C   C597      1.0  0.38579  0.78253  0.52502  1.0000
  C   C598      1.0  0.37704  0.76502  0.58665  1.0000
  C   C599      1.0  0.37585  0.73362  0.57415  1.0000
  C   C600      1.0  0.38376  0.71981  0.50151  1.0000
  H   H237      1.0  0.38764  0.80471  0.54135  1.0000
  H   H238      1.0  0.37206  0.77495  0.64232  1.0000
  H   H239      1.0  0.36998  0.72064  0.62071  1.0000
  H   H240      1.0  0.38371  0.69661  0.49976  1.0000
  N   N237      1.0  0.01413  0.75589  0.42843  1.0000
  N   N238      1.0  0.99842  0.75554  0.42849  1.0000
  N   N239      1.0  0.51361  0.50496  0.41125  1.0000
  N   N240      1.0  0.49792  0.50479  0.40799  1.0000
