data_image0
_chemical_formula_structural       C3HCH3CHC3HCH3CHC3HCH3CHC3HCH3CHC3HCH3CHC3HCH3CHC3HCH3CHC3HCH3CHC3HCH3CHC3HCH3CHC3HCH3CHC3HCH3CHC3HCH3CHC3HCH3CHC3HCH3CHC3HCH3CHC3HCH3CHC3HCH3CHC3HCH3CHC3HCH3CHC3HCH3CHC3HCH3CHC3HCH3CHC3HCH3CHC3HCH3CHC3HCH3CHC3HCH3CHC3HCH3CHC3HCH3CHC3HCH3CHC3HCH3CHC3HCH3CHC3HCH3CHC3HCH3CHC3HCH3CHC3HCH3CHC6H3N3C6H3N3C6H3N3C6H3N3C6H3N3C6H3N3C6H3N3C6H3N3C6H3N3C6H3N3C6H3N3C6H3N3C6H3N3C6H3N3C6H3N3C6H3N3C6H3N3C6H3N3C6H3N3C6H3N3C6H3N3C6H3N3C6H3N3C6H3N3C3HCH3CHC3HCH3CHC3HCH3CHC3HCH3CHC3HCH3CHC3HCH3CHC3HCH3CHC3HCH3CHC3HCH3CHC3HCH3CHC3HCH3CHC3HCH3CHC3HCH3CHC3HCH3CHC3HCH3CHC3HCH3CHC3HCH3CHC3HCH3CHC3HCH3CHC3HCH3CHC3HCH3CHC3HCH3CHC3HCH3CHC3HCH3CHC3HCH3CHC3HCH3CHC3HCH3CHC3HCH3CHC3HCH3CHC3HCH3CHC3HCH3CHC3HCH3CHC3HCH3CHC3HCH3CHC3HCH3CHC3HCH3CH
_chemical_formula_sum              "C504 H432 N72"
_cell_length_a       83.6231
_cell_length_b       83.6232
_cell_length_c       14.7935
_cell_angle_alpha    90
_cell_angle_beta     90
_cell_angle_gamma    120

_space_group_name_H-M_alt    "P 1"
_space_group_IT_number       1

loop_
  _space_group_symop_operation_xyz
  'x, y, z'

loop_
  _atom_site_type_symbol
  _atom_site_label
  _atom_site_symmetry_multiplicity
  _atom_site_fract_x
  _atom_site_fract_y
  _atom_site_fract_z
  _atom_site_occupancy
  C   C1        1.0  0.13037  0.41214  0.34217  1.0000
  C   C2        1.0  0.13274  0.42468  0.27090  1.0000
  C   C3        1.0  0.14154  0.44389  0.28908  1.0000
  H   H1        1.0  0.14404  0.45283  0.23650  1.0000
  C   C4        1.0  0.12701  0.41895  0.17537  1.0000
  H   H2        1.0  0.11948  0.40402  0.16588  1.0000
  H   H3        1.0  0.13919  0.42475  0.13192  1.0000
  H   H4        1.0  0.11798  0.42410  0.15284  1.0000
  C   C5        1.0  0.12568  0.39400  0.32208  1.0000
  H   H5        1.0  0.13422  0.39230  0.28164  1.0000
  C   C6        1.0  0.60530  0.72173  0.34209  1.0000
  C   C7        1.0  0.59277  0.71155  0.27080  1.0000
  C   C8        1.0  0.57356  0.70114  0.28897  1.0000
  H   H6        1.0  0.56463  0.69470  0.23641  1.0000
  C   C9        1.0  0.59852  0.71157  0.17530  1.0000
  H   H7        1.0  0.61344  0.71897  0.16585  1.0000
  H   H8        1.0  0.59271  0.71794  0.13184  1.0000
  H   H9        1.0  0.59337  0.69739  0.15274  1.0000
  C   C10       1.0  0.62345  0.73520  0.32211  1.0000
  H   H10       1.0  0.62515  0.74543  0.28160  1.0000
  C   C11       1.0  0.29573  0.88707  0.34217  1.0000
  C   C12       1.0  0.30591  0.88471  0.27089  1.0000
  C   C13       1.0  0.31632  0.87591  0.28907  1.0000
  H   H11       1.0  0.32274  0.87340  0.23650  1.0000
  C   C14       1.0  0.30590  0.89043  0.17537  1.0000
  H   H12       1.0  0.29850  0.89796  0.16588  1.0000
  H   H13       1.0  0.29952  0.87825  0.13192  1.0000
  H   H14       1.0  0.32008  0.89946  0.15284  1.0000
  C   C15       1.0  0.28228  0.89177  0.32209  1.0000
  H   H15       1.0  0.27204  0.88323  0.28164  1.0000
  C   C16       1.0  0.89055  0.60181  0.34209  1.0000
  C   C17       1.0  0.88820  0.58928  0.27080  1.0000
  C   C18       1.0  0.87940  0.57007  0.28897  1.0000
  H   H16       1.0  0.87691  0.56114  0.23641  1.0000
  C   C19       1.0  0.89393  0.59502  0.17530  1.0000
  H   H17       1.0  0.90145  0.60995  0.16585  1.0000
  H   H18       1.0  0.88175  0.58922  0.13184  1.0000
  H   H19       1.0  0.90296  0.58987  0.15274  1.0000
  C   C20       1.0  0.89523  0.61996  0.32211  1.0000
  H   H20       1.0  0.88670  0.62166  0.28161  1.0000
  C   C21       1.0  0.41564  0.29224  0.34218  1.0000
  C   C22       1.0  0.42818  0.30242  0.27088  1.0000
  C   C23       1.0  0.44739  0.31283  0.28907  1.0000
  H   H21       1.0  0.45632  0.31926  0.23649  1.0000
  C   C24       1.0  0.42244  0.30241  0.17535  1.0000
  H   H22       1.0  0.40752  0.29501  0.16586  1.0000
  H   H23       1.0  0.42825  0.29603  0.13190  1.0000
  H   H24       1.0  0.42759  0.31659  0.15282  1.0000
  C   C25       1.0  0.39750  0.27879  0.32207  1.0000
  H   H25       1.0  0.39580  0.26855  0.28162  1.0000
  C   C26       1.0  0.72521  0.12689  0.34209  1.0000
  C   C27       1.0  0.71503  0.12924  0.27080  1.0000
  C   C28       1.0  0.70462  0.13804  0.28897  1.0000
  H   H26       1.0  0.69818  0.14053  0.23641  1.0000
  C   C29       1.0  0.71505  0.12351  0.17529  1.0000
  H   H27       1.0  0.72245  0.11599  0.16584  1.0000
  H   H28       1.0  0.72143  0.13570  0.13184  1.0000
  H   H29       1.0  0.70087  0.11448  0.15274  1.0000
  C   C30       1.0  0.73868  0.12221  0.32211  1.0000
  H   H30       1.0  0.74891  0.13074  0.28161  1.0000
  C   C31       1.0  0.45493  0.14479  0.32011  1.0000
  C   C32       1.0  0.44211  0.14152  0.25027  1.0000
  C   C33       1.0  0.42286  0.13297  0.26604  1.0000
  H   H31       1.0  0.44704  0.14644  0.18681  1.0000
  C   C34       1.0  0.41065  0.13145  0.18893  1.0000
  H   H32       1.0  0.41820  0.13705  0.12587  1.0000
  H   H33       1.0  0.40341  0.13895  0.20447  1.0000
  H   H34       1.0  0.40053  0.11696  0.17698  1.0000
  C   C35       1.0  0.47378  0.15667  0.30411  1.0000
  H   H35       1.0  0.47713  0.16508  0.25093  1.0000
  C   C36       1.0  0.70379  0.56252  0.32017  1.0000
  C   C37       1.0  0.71333  0.57534  0.25027  1.0000
  C   C38       1.0  0.72406  0.59459  0.26604  1.0000
  H   H36       1.0  0.71334  0.57040  0.18685  1.0000
  C   C39       1.0  0.73477  0.60679  0.18892  1.0000
  H   H37       1.0  0.73281  0.59923  0.12587  1.0000
  H   H38       1.0  0.74950  0.61399  0.20446  1.0000
  H   H39       1.0  0.73043  0.61693  0.17695  1.0000
  C   C40       1.0  0.69682  0.54367  0.30415  1.0000
  H   H40       1.0  0.70190  0.54034  0.25098  1.0000
  C   C41       1.0  0.87267  0.31363  0.32011  1.0000
  C   C42       1.0  0.87594  0.30408  0.25027  1.0000
  C   C43       1.0  0.88448  0.29337  0.26603  1.0000
  H   H41       1.0  0.87102  0.30410  0.18682  1.0000
  C   C44       1.0  0.88600  0.28268  0.18893  1.0000
  H   H42       1.0  0.88040  0.28463  0.12587  1.0000
  H   H43       1.0  0.87849  0.26795  0.20446  1.0000
  H   H44       1.0  0.90048  0.28704  0.17698  1.0000
  C   C45       1.0  0.86080  0.32062  0.30412  1.0000
  H   H45       1.0  0.85239  0.31555  0.25091  1.0000
  C   C46       1.0  0.56601  0.86920  0.32017  1.0000
  C   C47       1.0  0.57883  0.87248  0.25027  1.0000
  C   C48       1.0  0.59808  0.88099  0.26604  1.0000
  H   H46       1.0  0.57389  0.86753  0.18685  1.0000
  C   C49       1.0  0.61028  0.88249  0.18892  1.0000
  H   H47       1.0  0.60272  0.87689  0.12587  1.0000
  H   H48       1.0  0.61748  0.87496  0.20446  1.0000
  H   H49       1.0  0.62042  0.89697  0.17695  1.0000
  C   C50       1.0  0.54716  0.85732  0.30415  1.0000
  H   H50       1.0  0.54383  0.84891  0.25098  1.0000
  C   C51       1.0  0.31712  0.45144  0.32011  1.0000
  C   C52       1.0  0.30757  0.43861  0.25027  1.0000
  C   C53       1.0  0.29686  0.41936  0.26604  1.0000
  H   H51       1.0  0.30758  0.44355  0.18682  1.0000
  C   C54       1.0  0.28617  0.40715  0.18894  1.0000
  H   H52       1.0  0.28812  0.41470  0.12588  1.0000
  H   H53       1.0  0.27144  0.39992  0.20448  1.0000
  H   H54       1.0  0.29053  0.39703  0.17698  1.0000
  C   C55       1.0  0.32410  0.47029  0.30412  1.0000
  H   H55       1.0  0.31904  0.47364  0.25093  1.0000
  C   C56       1.0  0.14825  0.70031  0.32018  1.0000
  C   C57       1.0  0.14497  0.70984  0.25029  1.0000
  C   C58       1.0  0.13645  0.72057  0.26606  1.0000
  H   H56       1.0  0.14992  0.70986  0.18687  1.0000
  C   C59       1.0  0.13496  0.73128  0.18895  1.0000
  H   H57       1.0  0.14056  0.72932  0.12589  1.0000
  H   H58       1.0  0.14248  0.74601  0.20450  1.0000
  H   H59       1.0  0.12048  0.72694  0.17698  1.0000
  C   C60       1.0  0.16013  0.69333  0.30416  1.0000
  H   H60       1.0  0.16854  0.69842  0.25099  1.0000
  C   C61       1.0  0.25234  0.52532  0.31949  1.0000
  C   C62       1.0  0.26134  0.52116  0.25041  1.0000
  C   C63       1.0  0.27761  0.52040  0.26646  1.0000
  H   H61       1.0  0.25536  0.51768  0.18764  1.0000
  C   C64       1.0  0.28538  0.51459  0.19065  1.0000
  H   H62       1.0  0.27740  0.51163  0.12829  1.0000
  H   H63       1.0  0.28568  0.50212  0.20934  1.0000
  H   H64       1.0  0.29941  0.52558  0.17582  1.0000
  C   C65       1.0  0.23476  0.52274  0.30350  1.0000
  H   H65       1.0  0.22792  0.51543  0.24921  1.0000
  C   C66       1.0  0.49211  0.73049  0.31946  1.0000
  C   C67       1.0  0.49626  0.74364  0.25031  1.0000
  C   C68       1.0  0.49705  0.76069  0.26637  1.0000
  H   H66       1.0  0.49975  0.74114  0.18758  1.0000
  C   C69       1.0  0.50287  0.77426  0.19054  1.0000
  H   H67       1.0  0.50581  0.76922  0.12817  1.0000
  H   H68       1.0  0.51536  0.78703  0.20919  1.0000
  H   H69       1.0  0.49190  0.77733  0.17573  1.0000
  C   C70       1.0  0.49467  0.71548  0.30341  1.0000
  H   H70       1.0  0.50198  0.71595  0.24913  1.0000
  C   C71       1.0  0.28695  0.76511  0.31944  1.0000
  C   C72       1.0  0.27379  0.75611  0.25033  1.0000
  C   C73       1.0  0.25675  0.73984  0.26636  1.0000
  H   H71       1.0  0.27629  0.76208  0.18756  1.0000
  C   C74       1.0  0.24318  0.73207  0.19053  1.0000
  H   H72       1.0  0.24821  0.74004  0.12816  1.0000
  H   H73       1.0  0.23041  0.73177  0.20917  1.0000
  H   H74       1.0  0.24014  0.71804  0.17573  1.0000
  C   C75       1.0  0.30195  0.78269  0.30346  1.0000
  H   H75       1.0  0.30148  0.78953  0.24917  1.0000
  C   C76       1.0  0.76860  0.48862  0.31946  1.0000
  C   C77       1.0  0.75960  0.49277  0.25031  1.0000
  C   C78       1.0  0.74334  0.49356  0.26637  1.0000
  H   H76       1.0  0.76558  0.49626  0.18758  1.0000
  C   C79       1.0  0.73559  0.49938  0.19054  1.0000
  H   H77       1.0  0.74357  0.50232  0.12816  1.0000
  H   H78       1.0  0.73532  0.51187  0.20919  1.0000
  H   H79       1.0  0.72155  0.48841  0.17573  1.0000
  C   C80       1.0  0.78618  0.49118  0.30341  1.0000
  H   H80       1.0  0.79301  0.49849  0.24913  1.0000
  C   C81       1.0  0.52882  0.28346  0.31949  1.0000
  C   C82       1.0  0.52465  0.27030  0.25041  1.0000
  C   C83       1.0  0.52389  0.25326  0.26647  1.0000
  H   H81       1.0  0.52117  0.27279  0.18765  1.0000
  C   C84       1.0  0.51809  0.23969  0.19066  1.0000
  H   H82       1.0  0.51513  0.24471  0.12830  1.0000
  H   H83       1.0  0.50561  0.22691  0.20935  1.0000
  H   H84       1.0  0.52907  0.23665  0.17583  1.0000
  C   C85       1.0  0.52624  0.29846  0.30351  1.0000
  H   H85       1.0  0.51893  0.29799  0.24922  1.0000
  C   C86       1.0  0.73398  0.24884  0.31954  1.0000
  C   C87       1.0  0.74713  0.25784  0.25038  1.0000
  C   C88       1.0  0.76418  0.27411  0.26641  1.0000
  H   H86       1.0  0.74464  0.25185  0.18766  1.0000
  C   C89       1.0  0.77775  0.28186  0.19058  1.0000
  H   H87       1.0  0.77271  0.27388  0.12823  1.0000
  H   H88       1.0  0.79051  0.28214  0.20924  1.0000
  H   H89       1.0  0.78081  0.29589  0.17575  1.0000
  C   C90       1.0  0.71898  0.23126  0.30355  1.0000
  H   H90       1.0  0.71945  0.22443  0.24925  1.0000
  C   C91       1.0  0.18621  0.61147  0.34183  1.0000
  C   C92       1.0  0.18675  0.60087  0.26718  1.0000
  C   C93       1.0  0.18592  0.58376  0.28335  1.0000
  H   H91       1.0  0.18739  0.57679  0.22995  1.0000
  C   C94       1.0  0.18890  0.60696  0.17089  1.0000
  H   H92       1.0  0.18818  0.61951  0.16117  1.0000
  H   H93       1.0  0.17791  0.59619  0.13010  1.0000
  H   H94       1.0  0.20218  0.60944  0.14506  1.0000
  C   C95       1.0  0.19167  0.63007  0.32894  1.0000
  H   H95       1.0  0.20384  0.63775  0.29915  1.0000
  C   C96       1.0  0.40598  0.57824  0.34170  1.0000
  C   C97       1.0  0.41660  0.58936  0.26707  1.0000
  C   C98       1.0  0.43370  0.60564  0.28327  1.0000
  H   H96       1.0  0.44069  0.61407  0.22985  1.0000
  C   C99       1.0  0.41052  0.58540  0.17078  1.0000
  H   H97       1.0  0.39796  0.57214  0.16110  1.0000
  H   H98       1.0  0.42129  0.58517  0.13006  1.0000
  H   H99       1.0  0.40805  0.59620  0.14487  1.0000
  C   C100      1.0  0.38738  0.56510  0.32890  1.0000
  H   H100      1.0  0.37971  0.56958  0.29906  1.0000
  C   C101      1.0  0.43921  0.83122  0.34182  1.0000
  C   C102      1.0  0.42808  0.83069  0.26717  1.0000
  C   C103      1.0  0.41180  0.83152  0.28335  1.0000
  H   H101      1.0  0.40336  0.83006  0.22993  1.0000
  C   C104      1.0  0.43202  0.82854  0.17088  1.0000
  H   H102      1.0  0.44528  0.82925  0.16118  1.0000
  H   H103      1.0  0.43225  0.83954  0.13010  1.0000
  H   H104      1.0  0.42122  0.81526  0.14504  1.0000
  C   C105      1.0  0.45234  0.82576  0.32896  1.0000
  H   H105      1.0  0.44786  0.81359  0.29919  1.0000
  C   C106      1.0  0.83471  0.40248  0.34172  1.0000
  C   C107      1.0  0.83421  0.41310  0.26709  1.0000
  C   C108      1.0  0.83503  0.43020  0.28328  1.0000
  H   H106      1.0  0.83359  0.43719  0.22986  1.0000
  C   C109      1.0  0.83208  0.40701  0.17080  1.0000
  H   H107      1.0  0.83278  0.39446  0.16113  1.0000
  H   H108      1.0  0.84309  0.41779  0.13007  1.0000
  H   H109      1.0  0.81881  0.40454  0.14490  1.0000
  C   C110      1.0  0.82925  0.38388  0.32893  1.0000
  H   H110      1.0  0.81709  0.37620  0.29910  1.0000
  C   C111      1.0  0.61497  0.43572  0.34182  1.0000
  C   C112      1.0  0.60437  0.42459  0.26717  1.0000
  C   C113      1.0  0.58726  0.40832  0.28335  1.0000
  H   H111      1.0  0.58029  0.39988  0.22993  1.0000
  C   C114      1.0  0.61046  0.42854  0.17088  1.0000
  H   H112      1.0  0.62302  0.44179  0.16118  1.0000
  H   H113      1.0  0.59969  0.42876  0.13010  1.0000
  H   H114      1.0  0.61294  0.41773  0.14504  1.0000
  C   C115      1.0  0.63357  0.44886  0.32896  1.0000
  H   H115      1.0  0.64125  0.44437  0.29921  1.0000
  C   C116      1.0  0.58173  0.18273  0.34170  1.0000
  C   C117      1.0  0.59285  0.18323  0.26707  1.0000
  C   C118      1.0  0.60913  0.18241  0.28326  1.0000
  H   H116      1.0  0.61756  0.18385  0.22984  1.0000
  C   C119      1.0  0.58889  0.18536  0.17078  1.0000
  H   H117      1.0  0.57564  0.18466  0.16110  1.0000
  H   H118      1.0  0.58866  0.17435  0.13005  1.0000
  H   H119      1.0  0.59970  0.19863  0.14487  1.0000
  C   C120      1.0  0.56859  0.18819  0.32891  1.0000
  H   H120      1.0  0.57307  0.20035  0.29906  1.0000
  C   C121      1.0  0.03022  0.30411  0.32758  1.0000
  C   C122      1.0  0.01769  0.30076  0.25606  1.0000
  C   C123      1.0  0.99821  0.29099  0.26790  1.0000
  H   H121      1.0  0.02297  0.30640  0.19405  1.0000
  C   C124      1.0  0.98632  0.28927  0.18904  1.0000
  H   H122      1.0  0.99422  0.29542  0.12739  1.0000
  H   H123      1.0  0.97842  0.29612  0.20385  1.0000
  H   H124      1.0  0.97677  0.27471  0.17512  1.0000
  C   C125      1.0  0.04918  0.31676  0.31548  1.0000
  H   H125      1.0  0.05227  0.32708  0.27249  1.0000
  C   C126      1.0  0.71334  0.72960  0.32767  1.0000
  C   C127      1.0  0.71667  0.72040  0.25612  1.0000
  C   C128      1.0  0.72643  0.71068  0.26796  1.0000
  H   H126      1.0  0.71101  0.72002  0.19417  1.0000
  C   C129      1.0  0.72811  0.70049  0.18912  1.0000
  H   H127      1.0  0.72195  0.70223  0.12749  1.0000
  H   H128      1.0  0.72125  0.68574  0.20400  1.0000
  H   H129      1.0  0.74267  0.70548  0.17512  1.0000
  C   C130      1.0  0.70068  0.73591  0.31552  1.0000
  H   H130      1.0  0.69037  0.72868  0.27252  1.0000
  C   C131      1.0  0.28785  0.98723  0.32760  1.0000
  C   C132      1.0  0.29704  0.99976  0.25608  1.0000
  C   C133      1.0  0.30674  0.01924  0.26791  1.0000
  H   H131      1.0  0.29739  0.99448  0.19407  1.0000
  C   C134      1.0  0.31691  0.03113  0.18906  1.0000
  H   H132      1.0  0.31517  0.02323  0.12741  1.0000
  H   H133      1.0  0.33166  0.03904  0.20387  1.0000
  H   H134      1.0  0.31189  0.04068  0.17513  1.0000
  C   C135      1.0  0.28155  0.96827  0.31550  1.0000
  H   H135      1.0  0.28877  0.96518  0.27251  1.0000
  C   C136      1.0  0.99072  0.70985  0.32768  1.0000
  C   C137      1.0  0.00324  0.71318  0.25613  1.0000
  C   C138      1.0  0.02272  0.72293  0.26797  1.0000
  H   H136      1.0  0.99796  0.70751  0.19417  1.0000
  C   C139      1.0  0.03460  0.72462  0.18913  1.0000
  H   H137      1.0  0.02670  0.71846  0.12750  1.0000
  H   H138      1.0  0.04249  0.71776  0.20401  1.0000
  H   H139      1.0  0.04417  0.73918  0.17513  1.0000
  C   C140      1.0  0.97176  0.69719  0.31553  1.0000
  H   H140      1.0  0.96866  0.68687  0.27253  1.0000
  C   C141      1.0  0.30760  0.28436  0.32759  1.0000
  C   C142      1.0  0.30426  0.29355  0.25607  1.0000
  C   C143      1.0  0.29448  0.30325  0.26790  1.0000
  H   H141      1.0  0.30989  0.29390  0.19406  1.0000
  C   C144      1.0  0.29276  0.31342  0.18905  1.0000
  H   H142      1.0  0.29892  0.31168  0.12739  1.0000
  H   H143      1.0  0.29961  0.32818  0.20385  1.0000
  H   H144      1.0  0.27820  0.30841  0.17512  1.0000
  C   C145      1.0  0.32026  0.27806  0.31548  1.0000
  H   H145      1.0  0.33058  0.28528  0.27249  1.0000
  C   C146      1.0  0.73309  0.02673  0.32767  1.0000
  C   C147      1.0  0.72389  0.01420  0.25612  1.0000
  C   C148      1.0  0.71417  0.99472  0.26796  1.0000
  H   H146      1.0  0.72352  0.01949  0.19416  1.0000
  C   C149      1.0  0.70398  0.98284  0.18912  1.0000
  H   H147      1.0  0.70572  0.99074  0.12749  1.0000
  H   H148      1.0  0.68923  0.97495  0.20400  1.0000
  H   H149      1.0  0.70897  0.97328  0.17512  1.0000
  C   C150      1.0  0.73940  0.04569  0.31552  1.0000
  H   H150      1.0  0.73217  0.04878  0.27251  1.0000
  C   C151      1.0  0.19114  0.33398  0.32521  1.0000
  C   C152      1.0  0.18169  0.33710  0.25416  1.0000
  C   C153      1.0  0.16485  0.33710  0.26707  1.0000
  H   H151      1.0  0.18782  0.34049  0.19173  1.0000
  C   C154      1.0  0.15688  0.34197  0.18868  1.0000
  H   H152      1.0  0.16487  0.34449  0.12665  1.0000
  H   H153      1.0  0.15631  0.35446  0.20370  1.0000
  H   H154      1.0  0.14293  0.33068  0.17521  1.0000
  C   C155      1.0  0.20946  0.33792  0.31203  1.0000
  H   H155      1.0  0.21662  0.34726  0.26456  1.0000
  C   C156      1.0  0.68349  0.86066  0.32532  1.0000
  C   C157      1.0  0.68034  0.84807  0.25429  1.0000
  C   C158      1.0  0.68033  0.83123  0.26725  1.0000
  H   H156      1.0  0.67690  0.85079  0.19192  1.0000
  C   C159      1.0  0.67540  0.81836  0.18892  1.0000
  H   H157      1.0  0.67286  0.82382  0.12691  1.0000
  H   H158      1.0  0.66291  0.80532  0.20410  1.0000
  H   H159      1.0  0.68667  0.81568  0.17531  1.0000
  C   C160      1.0  0.67955  0.87504  0.31206  1.0000
  H   H160      1.0  0.67020  0.87284  0.26463  1.0000
  C   C161      1.0  0.15679  0.82631  0.32520  1.0000
  C   C162      1.0  0.16937  0.83576  0.25417  1.0000
  C   C163      1.0  0.18620  0.85260  0.26710  1.0000
  H   H161      1.0  0.16663  0.82963  0.19174  1.0000
  C   C164      1.0  0.19906  0.86057  0.18871  1.0000
  H   H162      1.0  0.19358  0.85257  0.12668  1.0000
  H   H163      1.0  0.21211  0.86113  0.20375  1.0000
  H   H164      1.0  0.20171  0.87452  0.17522  1.0000
  C   C165      1.0  0.14241  0.80799  0.31201  1.0000
  H   H165      1.0  0.14459  0.80084  0.26456  1.0000
  C   C166      1.0  0.82981  0.68000  0.32532  1.0000
  C   C167      1.0  0.83925  0.67685  0.25429  1.0000
  C   C168      1.0  0.85608  0.67684  0.26725  1.0000
  H   H166      1.0  0.83310  0.67341  0.19192  1.0000
  C   C169      1.0  0.86402  0.67191  0.18892  1.0000
  H   H167      1.0  0.85601  0.66937  0.12691  1.0000
  H   H168      1.0  0.86457  0.65941  0.20410  1.0000
  H   H169      1.0  0.87797  0.68318  0.17531  1.0000
  C   C170      1.0  0.81149  0.67606  0.31206  1.0000
  H   H170      1.0  0.80434  0.66671  0.26463  1.0000
  C   C171      1.0  0.33747  0.15331  0.32522  1.0000
  C   C172      1.0  0.34061  0.16590  0.25419  1.0000
  C   C173      1.0  0.34060  0.18273  0.26711  1.0000
  H   H171      1.0  0.34400  0.16316  0.19177  1.0000
  C   C174      1.0  0.34549  0.19559  0.18874  1.0000
  H   H172      1.0  0.34801  0.19012  0.12670  1.0000
  H   H173      1.0  0.35798  0.20864  0.20379  1.0000
  H   H174      1.0  0.33420  0.19825  0.17525  1.0000
  C   C175      1.0  0.34142  0.13894  0.31204  1.0000
  H   H175      1.0  0.35075  0.14112  0.26456  1.0000
  C   C176      1.0  0.86414  0.18764  0.32531  1.0000
  C   C177      1.0  0.85155  0.17821  0.25428  1.0000
  C   C178      1.0  0.83471  0.16137  0.26725  1.0000
  H   H176      1.0  0.85427  0.18435  0.19191  1.0000
  C   C179      1.0  0.82184  0.15343  0.18892  1.0000
  H   H177      1.0  0.82730  0.16143  0.12691  1.0000
  H   H178      1.0  0.80880  0.15288  0.20410  1.0000
  H   H179      1.0  0.81916  0.13948  0.17531  1.0000
  C   C180      1.0  0.87852  0.20596  0.31205  1.0000
  H   H180      1.0  0.87633  0.21312  0.26462  1.0000
  C   C181      1.0  0.20879  0.52398  0.35203  1.0000
  C   C182      1.0  0.20443  0.53821  0.35044  1.0000
  C   C183      1.0  0.18590  0.53421  0.34270  1.0000
  C   C184      1.0  0.17165  0.51551  0.33621  1.0000
  C   C185      1.0  0.17561  0.50095  0.34288  1.0000
  C   C186      1.0  0.19428  0.50548  0.34944  1.0000
  H   H181      1.0  0.15825  0.51245  0.32867  1.0000
  H   H182      1.0  0.19742  0.49511  0.35135  1.0000
  H   H183      1.0  0.21493  0.55166  0.35211  1.0000
  N   N1        1.0  0.22622  0.52780  0.35881  1.0000
  N   N2        1.0  0.18219  0.54796  0.33470  1.0000
  N   N3        1.0  0.16251  0.48313  0.33608  1.0000
  C   C187      1.0  0.49347  0.68829  0.35209  1.0000
  C   C188      1.0  0.47924  0.66971  0.35058  1.0000
  C   C189      1.0  0.48325  0.65518  0.34270  1.0000
  C   C190      1.0  0.50195  0.65963  0.33617  1.0000
  C   C191      1.0  0.51651  0.67816  0.34285  1.0000
  C   C192      1.0  0.51197  0.69229  0.34945  1.0000
  H   H184      1.0  0.50500  0.64929  0.32862  1.0000
  H   H185      1.0  0.52234  0.70580  0.35134  1.0000
  H   H186      1.0  0.46579  0.66676  0.35216  1.0000
  N   N4        1.0  0.48964  0.70190  0.35884  1.0000
  N   N5        1.0  0.46949  0.63772  0.33467  1.0000
  N   N6        1.0  0.53432  0.68287  0.33603  1.0000
  C   C193      1.0  0.32916  0.80866  0.35203  1.0000
  C   C194      1.0  0.34774  0.81301  0.35044  1.0000
  C   C195      1.0  0.36227  0.83155  0.34270  1.0000
  C   C196      1.0  0.35782  0.84580  0.33622  1.0000
  C   C197      1.0  0.33930  0.84184  0.34289  1.0000
  C   C198      1.0  0.32517  0.82317  0.34944  1.0000
  H   H187      1.0  0.36817  0.85920  0.32867  1.0000
  H   H188      1.0  0.31166  0.82003  0.35134  1.0000
  H   H189      1.0  0.35069  0.80251  0.35211  1.0000
  N   N7        1.0  0.31555  0.79123  0.35879  1.0000
  N   N8        1.0  0.37974  0.83526  0.33470  1.0000
  N   N9        1.0  0.33458  0.85493  0.33608  1.0000
  C   C199      1.0  0.81216  0.48998  0.35209  1.0000
  C   C200      1.0  0.81651  0.47574  0.35058  1.0000
  C   C201      1.0  0.83504  0.47975  0.34270  1.0000
  C   C202      1.0  0.84929  0.49845  0.33617  1.0000
  C   C203      1.0  0.84533  0.51301  0.34285  1.0000
  C   C204      1.0  0.82666  0.50847  0.34944  1.0000
  H   H190      1.0  0.86269  0.50150  0.32862  1.0000
  H   H191      1.0  0.82352  0.51884  0.35134  1.0000
  H   H192      1.0  0.80601  0.46229  0.35216  1.0000
  N   N10       1.0  0.79472  0.48615  0.35884  1.0000
  N   N11       1.0  0.83875  0.46599  0.33468  1.0000
  N   N12       1.0  0.85843  0.53082  0.33603  1.0000
  C   C205      1.0  0.52747  0.32567  0.35203  1.0000
  C   C206      1.0  0.54171  0.34426  0.35044  1.0000
  C   C207      1.0  0.53770  0.35879  0.34269  1.0000
  C   C208      1.0  0.51900  0.35434  0.33620  1.0000
  C   C209      1.0  0.50444  0.33581  0.34287  1.0000
  C   C210      1.0  0.50898  0.32168  0.34944  1.0000
  H   H193      1.0  0.51595  0.36468  0.32865  1.0000
  H   H194      1.0  0.49861  0.30817  0.35135  1.0000
  H   H195      1.0  0.55516  0.34721  0.35211  1.0000
  N   N13       1.0  0.53130  0.31206  0.35881  1.0000
  N   N14       1.0  0.55146  0.37626  0.33469  1.0000
  N   N15       1.0  0.48663  0.33110  0.33607  1.0000
  C   C211      1.0  0.69178  0.20528  0.35210  1.0000
  C   C212      1.0  0.67319  0.20093  0.35053  1.0000
  C   C213      1.0  0.65867  0.18240  0.34268  1.0000
  C   C214      1.0  0.66312  0.16815  0.33614  1.0000
  C   C215      1.0  0.68164  0.17211  0.34284  1.0000
  C   C216      1.0  0.69577  0.19078  0.34945  1.0000
  H   H196      1.0  0.65277  0.15475  0.32860  1.0000
  H   H197      1.0  0.70928  0.19392  0.35138  1.0000
  H   H198      1.0  0.67024  0.21143  0.35217  1.0000
  N   N16       1.0  0.70539  0.22272  0.35888  1.0000
  N   N17       1.0  0.64120  0.17869  0.33465  1.0000
  N   N18       1.0  0.68635  0.15901  0.33602  1.0000
  C   C217      1.0  0.52737  0.20588  0.34823  1.0000
  C   C218      1.0  0.54173  0.20172  0.34780  1.0000
  C   C219      1.0  0.53810  0.18322  0.35131  1.0000
  C   C220      1.0  0.51943  0.16881  0.35621  1.0000
  C   C221      1.0  0.50469  0.17253  0.35253  1.0000
  C   C222      1.0  0.50896  0.19115  0.34935  1.0000
  H   H199      1.0  0.51650  0.15539  0.36063  1.0000
  H   H200      1.0  0.49841  0.19401  0.34763  1.0000
  H   H201      1.0  0.55505  0.21245  0.34711  1.0000
  N   N19       1.0  0.53145  0.22341  0.34041  1.0000
  N   N20       1.0  0.55162  0.17899  0.35528  1.0000
  N   N21       1.0  0.48693  0.15924  0.35871  1.0000
  C   C223      1.0  0.69249  0.49010  0.34827  1.0000
  C   C224      1.0  0.67395  0.47573  0.34779  1.0000
  C   C225      1.0  0.65909  0.47935  0.35140  1.0000
  C   C226      1.0  0.66333  0.49802  0.35631  1.0000
  C   C227      1.0  0.68180  0.51277  0.35259  1.0000
  C   C228      1.0  0.69615  0.50851  0.34938  1.0000
  H   H202      1.0  0.65284  0.50094  0.36071  1.0000
  H   H203      1.0  0.70956  0.51907  0.34765  1.0000
  H   H204      1.0  0.67138  0.46242  0.34709  1.0000
  N   N22       1.0  0.70594  0.48603  0.34034  1.0000
  N   N23       1.0  0.64134  0.46583  0.35533  1.0000
  N   N24       1.0  0.68625  0.53052  0.35876  1.0000
  C   C229      1.0  0.81157  0.32497  0.34821  1.0000
  C   C230      1.0  0.81573  0.34350  0.34779  1.0000
  C   C231      1.0  0.83422  0.35836  0.35133  1.0000
  C   C232      1.0  0.84865  0.35412  0.35624  1.0000
  C   C233      1.0  0.84492  0.33565  0.35255  1.0000
  C   C234      1.0  0.82631  0.32130  0.34935  1.0000
  H   H205      1.0  0.86206  0.36460  0.36069  1.0000
  H   H206      1.0  0.82345  0.30789  0.34762  1.0000
  H   H207      1.0  0.80500  0.34608  0.34707  1.0000
  N   N25       1.0  0.79405  0.31152  0.34033  1.0000
  N   N26       1.0  0.83846  0.37611  0.35530  1.0000
  N   N27       1.0  0.85822  0.33119  0.35874  1.0000
  C   C235      1.0  0.49359  0.80809  0.34825  1.0000
  C   C236      1.0  0.47922  0.81224  0.34775  1.0000
  C   C237      1.0  0.48284  0.83073  0.35140  1.0000
  C   C238      1.0  0.50150  0.84516  0.35630  1.0000
  C   C239      1.0  0.51626  0.84144  0.35259  1.0000
  C   C240      1.0  0.51200  0.82283  0.34938  1.0000
  H   H208      1.0  0.50443  0.85857  0.36072  1.0000
  H   H209      1.0  0.52256  0.81998  0.34765  1.0000
  H   H210      1.0  0.46591  0.80151  0.34709  1.0000
  N   N28       1.0  0.48952  0.79056  0.34033  1.0000
  N   N29       1.0  0.46932  0.83496  0.35533  1.0000
  N   N30       1.0  0.53401  0.85474  0.35875  1.0000
  C   C241      1.0  0.32847  0.52387  0.34822  1.0000
  C   C242      1.0  0.34700  0.53824  0.34780  1.0000
  C   C243      1.0  0.36186  0.53461  0.35131  1.0000
  C   C244      1.0  0.35761  0.51594  0.35622  1.0000
  C   C245      1.0  0.33914  0.50119  0.35253  1.0000
  C   C246      1.0  0.32480  0.50547  0.34935  1.0000
  H   H211      1.0  0.36810  0.51301  0.36064  1.0000
  H   H212      1.0  0.31138  0.49491  0.34763  1.0000
  H   H213      1.0  0.34959  0.55155  0.34711  1.0000
  N   N31       1.0  0.31502  0.52795  0.34041  1.0000
  N   N32       1.0  0.37962  0.54812  0.35528  1.0000
  N   N33       1.0  0.33468  0.48344  0.35871  1.0000
  C   C247      1.0  0.20936  0.68898  0.34823  1.0000
  C   C248      1.0  0.20519  0.67045  0.34773  1.0000
  C   C249      1.0  0.18671  0.65559  0.35138  1.0000
  C   C250      1.0  0.17228  0.65983  0.35629  1.0000
  C   C251      1.0  0.17600  0.67830  0.35258  1.0000
  C   C252      1.0  0.19462  0.69265  0.34936  1.0000
  H   H214      1.0  0.15887  0.64935  0.36072  1.0000
  H   H215      1.0  0.19747  0.70606  0.34764  1.0000
  H   H216      1.0  0.21593  0.66787  0.34708  1.0000
  N   N34       1.0  0.22688  0.70243  0.34034  1.0000
  N   N35       1.0  0.18247  0.63784  0.35533  1.0000
  N   N36       1.0  0.16270  0.68276  0.35875  1.0000
  C   C253      1.0  0.10653  0.36176  0.35013  1.0000
  C   C254      1.0  0.08756  0.34844  0.35478  1.0000
  C   C255      1.0  0.08116  0.32921  0.35084  1.0000
  C   C256      1.0  0.09463  0.32357  0.34725  1.0000
  C   C257      1.0  0.11391  0.33649  0.34633  1.0000
  C   C258      1.0  0.11940  0.35550  0.34614  1.0000
  H   H217      1.0  0.09032  0.30976  0.34556  1.0000
  H   H218      1.0  0.13317  0.36506  0.34398  1.0000
  H   H219      1.0  0.07820  0.35287  0.36093  1.0000
  N   N37       1.0  0.11176  0.37971  0.35725  1.0000
  N   N38       1.0  0.06287  0.31670  0.35627  1.0000
  N   N39       1.0  0.12668  0.33111  0.33809  1.0000
  C   C259      1.0  0.65569  0.74826  0.34999  1.0000
  C   C260      1.0  0.66900  0.74261  0.35474  1.0000
  C   C261      1.0  0.68824  0.75544  0.35087  1.0000
  C   C262      1.0  0.69389  0.77456  0.34727  1.0000
  C   C263      1.0  0.68097  0.78092  0.34629  1.0000
  C   C264      1.0  0.66196  0.76741  0.34608  1.0000
  H   H220      1.0  0.70769  0.78405  0.34565  1.0000
  H   H221      1.0  0.65240  0.77161  0.34391  1.0000
  H   H222      1.0  0.66457  0.72882  0.36087  1.0000
  N   N40       1.0  0.63774  0.73555  0.35718  1.0000
  N   N41       1.0  0.70075  0.74966  0.35632  1.0000
  N   N42       1.0  0.68636  0.79908  0.33816  1.0000
  C   C265      1.0  0.26920  0.91092  0.35013  1.0000
  C   C266      1.0  0.27484  0.92988  0.35478  1.0000
  C   C267      1.0  0.26202  0.93629  0.35085  1.0000
  C   C268      1.0  0.24290  0.92282  0.34725  1.0000
  C   C269      1.0  0.23654  0.90354  0.34634  1.0000
  C   C270      1.0  0.25006  0.89805  0.34614  1.0000
  H   H223      1.0  0.23340  0.92713  0.34557  1.0000
  H   H224      1.0  0.24585  0.88428  0.34399  1.0000
  H   H225      1.0  0.28863  0.93924  0.36093  1.0000
  N   N43       1.0  0.28191  0.90569  0.35725  1.0000
  N   N44       1.0  0.26779  0.95458  0.35628  1.0000
  N   N45       1.0  0.21839  0.89077  0.33811  1.0000
  C   C271      1.0  0.91440  0.65219  0.34999  1.0000
  C   C272      1.0  0.93336  0.66551  0.35474  1.0000
  C   C273      1.0  0.93977  0.68474  0.35087  1.0000
  C   C274      1.0  0.92631  0.69039  0.34727  1.0000
  C   C275      1.0  0.90703  0.67748  0.34630  1.0000
  C   C276      1.0  0.90153  0.65846  0.34608  1.0000
  H   H226      1.0  0.93062  0.70420  0.34565  1.0000
  H   H227      1.0  0.88776  0.64890  0.34391  1.0000
  H   H228      1.0  0.94272  0.66107  0.36087  1.0000
  N   N46       1.0  0.90917  0.63425  0.35718  1.0000
  N   N47       1.0  0.95806  0.69725  0.35632  1.0000
  N   N48       1.0  0.89426  0.68287  0.33817  1.0000
  C   C277      1.0  0.36526  0.26571  0.35012  1.0000
  C   C278      1.0  0.35194  0.27135  0.35478  1.0000
  C   C279      1.0  0.33271  0.25853  0.35084  1.0000
  C   C280      1.0  0.32706  0.23941  0.34725  1.0000
  C   C281      1.0  0.33998  0.23305  0.34634  1.0000
  C   C282      1.0  0.35899  0.24657  0.34614  1.0000
  H   H229      1.0  0.31326  0.22992  0.34557  1.0000
  H   H230      1.0  0.36856  0.24237  0.34399  1.0000
  H   H231      1.0  0.35637  0.28515  0.36092  1.0000
  N   N49       1.0  0.38321  0.27843  0.35725  1.0000
  N   N50       1.0  0.32019  0.26430  0.35627  1.0000
  N   N51       1.0  0.33460  0.21490  0.33812  1.0000
  C   C283      1.0  0.75175  0.10304  0.34999  1.0000
  C   C284      1.0  0.74610  0.08408  0.35473  1.0000
  C   C285      1.0  0.75893  0.07767  0.35087  1.0000
  C   C286      1.0  0.77805  0.09114  0.34727  1.0000
  C   C287      1.0  0.78440  0.11041  0.34629  1.0000
  C   C288      1.0  0.77089  0.11591  0.34608  1.0000
  H   H232      1.0  0.78754  0.08682  0.34565  1.0000
  H   H233      1.0  0.77510  0.12968  0.34390  1.0000
  H   H234      1.0  0.73231  0.07472  0.36087  1.0000
  N   N52       1.0  0.73903  0.10827  0.35717  1.0000
  N   N53       1.0  0.75315  0.05938  0.35632  1.0000
  N   N54       1.0  0.80256  0.12318  0.33816  1.0000
  C   C289      1.0  0.36550  0.10335  0.34974  1.0000
  C   C290      1.0  0.35210  0.08440  0.34504  1.0000
  C   C291      1.0  0.33288  0.07807  0.34873  1.0000
  C   C292      1.0  0.32733  0.09162  0.35218  1.0000
  C   C293      1.0  0.34033  0.11087  0.35322  1.0000
  C   C294      1.0  0.35932  0.11629  0.35361  1.0000
  H   H235      1.0  0.31354  0.08740  0.35271  1.0000
  H   H236      1.0  0.36890  0.13007  0.35474  1.0000
  H   H237      1.0  0.35650  0.07503  0.33816  1.0000
  N   N55       1.0  0.38342  0.10850  0.34179  1.0000
  N   N56       1.0  0.32019  0.05988  0.34103  1.0000
  N   N57       1.0  0.33521  0.12387  0.35881  1.0000
  C   C295      1.0  0.75181  0.65195  0.34982  1.0000
  C   C296      1.0  0.74625  0.66534  0.34506  1.0000
  C   C297      1.0  0.75914  0.68457  0.34869  1.0000
  C   C298      1.0  0.77824  0.69012  0.35220  1.0000
  C   C299      1.0  0.78449  0.67713  0.35326  1.0000
  C   C300      1.0  0.77094  0.65814  0.35361  1.0000
  H   H238      1.0  0.78781  0.70391  0.35272  1.0000
  H   H239      1.0  0.77514  0.64856  0.35477  1.0000
  H   H240      1.0  0.73249  0.66094  0.33814  1.0000
  N   N58       1.0  0.73904  0.63403  0.34179  1.0000
  N   N59       1.0  0.75363  0.69725  0.34101  1.0000
  N   N60       1.0  0.80261  0.68225  0.35884  1.0000
  C   C301      1.0  0.91410  0.26564  0.34975  1.0000
  C   C302      1.0  0.93305  0.27120  0.34504  1.0000
  C   C303      1.0  0.93938  0.25830  0.34873  1.0000
  C   C304      1.0  0.92583  0.23921  0.35218  1.0000
  C   C305      1.0  0.90659  0.23296  0.35322  1.0000
  C   C306      1.0  0.90116  0.24652  0.35361  1.0000
  H   H241      1.0  0.93005  0.22964  0.35271  1.0000
  H   H242      1.0  0.88738  0.24232  0.35474  1.0000
  H   H243      1.0  0.94242  0.28496  0.33816  1.0000
  N   N61       1.0  0.90895  0.27841  0.34179  1.0000
  N   N62       1.0  0.95757  0.26381  0.34103  1.0000
  N   N63       1.0  0.89359  0.21484  0.35881  1.0000
  C   C307      1.0  0.65544  0.91061  0.34982  1.0000
  C   C308      1.0  0.66883  0.92956  0.34506  1.0000
  C   C309      1.0  0.68806  0.93589  0.34869  1.0000
  C   C310      1.0  0.69361  0.92235  0.35220  1.0000
  C   C311      1.0  0.68061  0.90311  0.35326  1.0000
  C   C312      1.0  0.66163  0.89767  0.35362  1.0000
  H   H244      1.0  0.70740  0.92657  0.35272  1.0000
  H   H245      1.0  0.65205  0.88389  0.35478  1.0000
  H   H246      1.0  0.66443  0.93892  0.33814  1.0000
  N   N64       1.0  0.63752  0.90546  0.34179  1.0000
  N   N65       1.0  0.70074  0.95409  0.34101  1.0000
  N   N66       1.0  0.68574  0.89011  0.35884  1.0000
  C   C313      1.0  0.26914  0.36201  0.34976  1.0000
  C   C314      1.0  0.27469  0.34862  0.34506  1.0000
  C   C315      1.0  0.26179  0.32939  0.34874  1.0000
  C   C316      1.0  0.24270  0.32384  0.35217  1.0000
  C   C317      1.0  0.23646  0.33685  0.35322  1.0000
  C   C318      1.0  0.25001  0.35583  0.35361  1.0000
  H   H247      1.0  0.23313  0.31006  0.35270  1.0000
  H   H248      1.0  0.24581  0.36541  0.35475  1.0000
  H   H249      1.0  0.28846  0.35302  0.33817  1.0000
  N   N67       1.0  0.28190  0.37993  0.34180  1.0000
  N   N68       1.0  0.26730  0.31671  0.34103  1.0000
  N   N69       1.0  0.21833  0.33172  0.35880  1.0000
  C   C319      1.0  0.10683  0.74832  0.34984  1.0000
  C   C320      1.0  0.08789  0.74276  0.34508  1.0000
  C   C321      1.0  0.08155  0.75565  0.34871  1.0000
  C   C322      1.0  0.09509  0.77475  0.35220  1.0000
  C   C323      1.0  0.11434  0.78100  0.35326  1.0000
  C   C324      1.0  0.11978  0.76745  0.35362  1.0000
  H   H250      1.0  0.09088  0.78432  0.35271  1.0000
  H   H251      1.0  0.13356  0.77165  0.35478  1.0000
  H   H252      1.0  0.07852  0.72900  0.33817  1.0000
  N   N70       1.0  0.11199  0.73555  0.34181  1.0000
  N   N71       1.0  0.06336  0.75013  0.34102  1.0000
  N   N72       1.0  0.12734  0.79912  0.35882  1.0000
  C   C325      1.0  0.14808  0.45121  0.37606  1.0000
  C   C326      1.0  0.14485  0.43849  0.44637  1.0000
  C   C327      1.0  0.13633  0.41922  0.43125  1.0000
  H   H253      1.0  0.14975  0.44350  0.50973  1.0000
  C   C328      1.0  0.13486  0.40713  0.50885  1.0000
  H   H254      1.0  0.14051  0.41478  0.57162  1.0000
  H   H255      1.0  0.14233  0.39986  0.49362  1.0000
  H   H256      1.0  0.12037  0.39703  0.52118  1.0000
  C   C329      1.0  0.15979  0.47010  0.39175  1.0000
  H   H257      1.0  0.16791  0.47359  0.44616  1.0000
  C   C330      1.0  0.56625  0.70037  0.37596  1.0000
  C   C331      1.0  0.57896  0.70984  0.44631  1.0000
  C   C332      1.0  0.59823  0.72061  0.43118  1.0000
  H   H258      1.0  0.57394  0.70974  0.50964  1.0000
  C   C333      1.0  0.61031  0.73124  0.50878  1.0000
  H   H259      1.0  0.60266  0.72923  0.57156  1.0000
  H   H260      1.0  0.61756  0.74598  0.49355  1.0000
  H   H261      1.0  0.62042  0.72687  0.52112  1.0000
  C   C334      1.0  0.54736  0.69318  0.39168  1.0000
  H   H262      1.0  0.54388  0.69783  0.44607  1.0000
  C   C335      1.0  0.31708  0.86936  0.37606  1.0000
  C   C336      1.0  0.30760  0.87260  0.44637  1.0000
  C   C337      1.0  0.29685  0.88111  0.43125  1.0000
  H   H263      1.0  0.30771  0.86769  0.50973  1.0000
  C   C338      1.0  0.28624  0.88259  0.50885  1.0000
  H   H264      1.0  0.28823  0.87694  0.57162  1.0000
  H   H265      1.0  0.27149  0.87511  0.49363  1.0000
  H   H266      1.0  0.29062  0.89707  0.52118  1.0000
  C   C339      1.0  0.32426  0.85765  0.39175  1.0000
  H   H267      1.0  0.31963  0.84953  0.44615  1.0000
  C   C340      1.0  0.87286  0.56276  0.37596  1.0000
  C   C341      1.0  0.87611  0.57547  0.44631  1.0000
  C   C342      1.0  0.88460  0.59474  0.43118  1.0000
  H   H268      1.0  0.87118  0.57045  0.50964  1.0000
  C   C343      1.0  0.88605  0.60682  0.50878  1.0000
  H   H269      1.0  0.88041  0.59916  0.57156  1.0000
  H   H270      1.0  0.87855  0.61406  0.49355  1.0000
  H   H271      1.0  0.90053  0.61693  0.52112  1.0000
  C   C344      1.0  0.86115  0.54386  0.39168  1.0000
  H   H272      1.0  0.85303  0.54039  0.44607  1.0000
  C   C345      1.0  0.45470  0.31360  0.37606  1.0000
  C   C346      1.0  0.44198  0.30411  0.44637  1.0000
  C   C347      1.0  0.42271  0.29336  0.43126  1.0000
  H   H273      1.0  0.44700  0.30423  0.50974  1.0000
  C   C348      1.0  0.41062  0.28275  0.50886  1.0000
  H   H274      1.0  0.41827  0.28475  0.57164  1.0000
  H   H275      1.0  0.40336  0.26800  0.49364  1.0000
  H   H276      1.0  0.40053  0.28713  0.52118  1.0000
  C   C349      1.0  0.47359  0.32078  0.39175  1.0000
  H   H277      1.0  0.47708  0.31616  0.44615  1.0000
  C   C350      1.0  0.70385  0.14457  0.37596  1.0000
  C   C351      1.0  0.71332  0.14133  0.44631  1.0000
  C   C352      1.0  0.72409  0.13284  0.43118  1.0000
  H   H278      1.0  0.71323  0.14626  0.50964  1.0000
  C   C353      1.0  0.73472  0.13139  0.50878  1.0000
  H   H279      1.0  0.73271  0.13703  0.57156  1.0000
  H   H280      1.0  0.74947  0.13889  0.49354  1.0000
  H   H281      1.0  0.73036  0.11691  0.52111  1.0000
  C   C354      1.0  0.69666  0.15628  0.39168  1.0000
  H   H282      1.0  0.70130  0.16440  0.44608  1.0000
  C   C355      1.0  0.41591  0.12704  0.35533  1.0000
  C   C356      1.0  0.42855  0.12942  0.42609  1.0000
  C   C357      1.0  0.44774  0.13824  0.40726  1.0000
  H   H283      1.0  0.45675  0.14079  0.45955  1.0000
  C   C358      1.0  0.42295  0.12370  0.52175  1.0000
  H   H284      1.0  0.40804  0.11615  0.53169  1.0000
  H   H285      1.0  0.42879  0.13590  0.56515  1.0000
  H   H286      1.0  0.42816  0.11470  0.54395  1.0000
  C   C359      1.0  0.39781  0.12243  0.37620  1.0000
  H   H287      1.0  0.39623  0.13105  0.41662  1.0000
  C   C360      1.0  0.72509  0.60154  0.35533  1.0000
  C   C361      1.0  0.71481  0.58891  0.42611  1.0000
  C   C362      1.0  0.70445  0.56972  0.40732  1.0000
  H   H288      1.0  0.69798  0.56071  0.45959  1.0000
  C   C363      1.0  0.71472  0.59453  0.52175  1.0000
  H   H289      1.0  0.72209  0.60944  0.53163  1.0000
  H   H290      1.0  0.72107  0.58869  0.56517  1.0000
  H   H291      1.0  0.70051  0.58933  0.54398  1.0000
  C   C364      1.0  0.73860  0.61964  0.37608  1.0000
  H   H292      1.0  0.74879  0.62122  0.41656  1.0000
  C   C365      1.0  0.89040  0.29235  0.35533  1.0000
  C   C366      1.0  0.88804  0.30263  0.42612  1.0000
  C   C367      1.0  0.87922  0.31300  0.40727  1.0000
  H   H293      1.0  0.87667  0.31945  0.45955  1.0000
  C   C368      1.0  0.89375  0.30273  0.52177  1.0000
  H   H294      1.0  0.90130  0.29536  0.53171  1.0000
  H   H295      1.0  0.88156  0.29639  0.56518  1.0000
  H   H296      1.0  0.90276  0.31694  0.54396  1.0000
  C   C369      1.0  0.89501  0.27887  0.37620  1.0000
  H   H297      1.0  0.88640  0.26866  0.41662  1.0000
  C   C370      1.0  0.60503  0.88692  0.35534  1.0000
  C   C371      1.0  0.59240  0.88456  0.42611  1.0000
  C   C372      1.0  0.57321  0.87574  0.40732  1.0000
  H   H298      1.0  0.56420  0.87320  0.45959  1.0000
  C   C373      1.0  0.59802  0.89027  0.52176  1.0000
  H   H299      1.0  0.61293  0.89782  0.53164  1.0000
  H   H300      1.0  0.59218  0.87809  0.56517  1.0000
  H   H301      1.0  0.59282  0.89928  0.54398  1.0000
  C   C374      1.0  0.62313  0.89151  0.37608  1.0000
  H   H302      1.0  0.62471  0.88290  0.41655  1.0000
  C   C375      1.0  0.29585  0.41242  0.35535  1.0000
  C   C376      1.0  0.30612  0.42506  0.42612  1.0000
  C   C377      1.0  0.31649  0.44425  0.40727  1.0000
  H   H303      1.0  0.32294  0.45325  0.45955  1.0000
  C   C378      1.0  0.30623  0.41945  0.52177  1.0000
  H   H304      1.0  0.29886  0.40454  0.53171  1.0000
  H   H305      1.0  0.29988  0.42530  0.56519  1.0000
  H   H306      1.0  0.32044  0.42466  0.54396  1.0000
  C   C379      1.0  0.28236  0.39432  0.37621  1.0000
  H   H307      1.0  0.27216  0.39274  0.41664  1.0000
  C   C380      1.0  0.13053  0.72160  0.35536  1.0000
  C   C381      1.0  0.13289  0.71132  0.42613  1.0000
  C   C382      1.0  0.14171  0.70096  0.40733  1.0000
  H   H308      1.0  0.14425  0.69449  0.45961  1.0000
  C   C383      1.0  0.12717  0.71123  0.52177  1.0000
  H   H309      1.0  0.11962  0.71859  0.53166  1.0000
  H   H310      1.0  0.13936  0.71757  0.56519  1.0000
  H   H311      1.0  0.11816  0.69702  0.54399  1.0000
  C   C384      1.0  0.12593  0.73510  0.37610  1.0000
  H   H312      1.0  0.13454  0.74529  0.41659  1.0000
  C   C385      1.0  0.28545  0.52432  0.35502  1.0000
  C   C386      1.0  0.27709  0.52944  0.42481  1.0000
  C   C387      1.0  0.26071  0.52984  0.40571  1.0000
  H   H313      1.0  0.25430  0.53265  0.45722  1.0000
  C   C388      1.0  0.28418  0.53395  0.51939  1.0000
  H   H314      1.0  0.29728  0.53432  0.52924  1.0000
  H   H315      1.0  0.27409  0.52369  0.56568  1.0000
  H   H316      1.0  0.28634  0.54753  0.53791  1.0000
  C   C389      1.0  0.29889  0.51986  0.37688  1.0000
  H   H317      1.0  0.29522  0.50918  0.41816  1.0000
  C   C390      1.0  0.49315  0.76462  0.35495  1.0000
  C   C391      1.0  0.48802  0.75115  0.42477  1.0000
  C   C392      1.0  0.48762  0.73437  0.40570  1.0000
  H   H318      1.0  0.48479  0.72513  0.45721  1.0000
  C   C393      1.0  0.48353  0.75375  0.51934  1.0000
  H   H319      1.0  0.48316  0.76648  0.52912  1.0000
  H   H320      1.0  0.49379  0.75392  0.56561  1.0000
  H   H321      1.0  0.46995  0.74233  0.53791  1.0000
  C   C394      1.0  0.49763  0.78253  0.37666  1.0000
  H   H322      1.0  0.50829  0.78953  0.41808  1.0000
  C   C395      1.0  0.25282  0.73200  0.35493  1.0000
  C   C396      1.0  0.26630  0.74035  0.42474  1.0000
  C   C397      1.0  0.28308  0.75674  0.40566  1.0000
  H   H323      1.0  0.29231  0.76315  0.45719  1.0000
  C   C398      1.0  0.26371  0.73327  0.51932  1.0000
  H   H324      1.0  0.25098  0.72017  0.52915  1.0000
  H   H325      1.0  0.26354  0.74335  0.56559  1.0000
  H   H326      1.0  0.27513  0.73111  0.53787  1.0000
  C   C399      1.0  0.23492  0.71857  0.37675  1.0000
  H   H327      1.0  0.22791  0.72223  0.41812  1.0000
  C   C400      1.0  0.73551  0.48966  0.35495  1.0000
  C   C401      1.0  0.74385  0.48453  0.42477  1.0000
  C   C402      1.0  0.76023  0.48413  0.40570  1.0000
  H   H328      1.0  0.76664  0.48130  0.45721  1.0000
  C   C403      1.0  0.73677  0.48004  0.51934  1.0000
  H   H329      1.0  0.72367  0.47967  0.52913  1.0000
  H   H330      1.0  0.74685  0.49030  0.56561  1.0000
  H   H331      1.0  0.73460  0.46646  0.53791  1.0000
  C   C404      1.0  0.72208  0.49414  0.37666  1.0000
  H   H332      1.0  0.72574  0.50480  0.41808  1.0000
  C   C405      1.0  0.52781  0.24934  0.35503  1.0000
  C   C406      1.0  0.53293  0.26282  0.42482  1.0000
  C   C407      1.0  0.53333  0.27960  0.40571  1.0000
  H   H333      1.0  0.53615  0.28883  0.45723  1.0000
  C   C408      1.0  0.53744  0.26025  0.51940  1.0000
  H   H334      1.0  0.53782  0.24752  0.52925  1.0000
  H   H335      1.0  0.52719  0.26008  0.56569  1.0000
  H   H336      1.0  0.55102  0.27167  0.53791  1.0000
  C   C409      1.0  0.52335  0.23145  0.37688  1.0000
  H   H337      1.0  0.51267  0.22443  0.41817  1.0000
  C   C410      1.0  0.76811  0.28195  0.35499  1.0000
  C   C411      1.0  0.75464  0.27360  0.42482  1.0000
  C   C412      1.0  0.73786  0.25721  0.40577  1.0000
  H   H338      1.0  0.72863  0.25080  0.45728  1.0000
  C   C413      1.0  0.75723  0.28069  0.51938  1.0000
  H   H339      1.0  0.76996  0.29380  0.52915  1.0000
  H   H340      1.0  0.75741  0.27061  0.56566  1.0000
  H   H341      1.0  0.74581  0.28285  0.53795  1.0000
  C   C414      1.0  0.78602  0.29537  0.37669  1.0000
  H   H342      1.0  0.79302  0.29172  0.41813  1.0000
  C   C415      1.0  0.18448  0.57668  0.37141  1.0000
  C   C416      1.0  0.18314  0.58691  0.44395  1.0000
  C   C417      1.0  0.18403  0.60414  0.43112  1.0000
  H   H343      1.0  0.18240  0.58210  0.50843  1.0000
  C   C418      1.0  0.18365  0.61444  0.51269  1.0000
  H   H344      1.0  0.18228  0.60707  0.57576  1.0000
  H   H345      1.0  0.17193  0.61675  0.50841  1.0000
  H   H346      1.0  0.19638  0.62775  0.51682  1.0000
  C   C419      1.0  0.18713  0.56176  0.38882  1.0000
  H   H347      1.0  0.19424  0.56242  0.44418  1.0000
  C   C420      1.0  0.44077  0.61129  0.37132  1.0000
  C   C421      1.0  0.43054  0.59971  0.44388  1.0000
  C   C422      1.0  0.41330  0.58339  0.43103  1.0000
  H   H348      1.0  0.43533  0.60381  0.50837  1.0000
  C   C423      1.0  0.40298  0.57273  0.51262  1.0000
  H   H349      1.0  0.41034  0.57873  0.57570  1.0000
  H   H350      1.0  0.40066  0.55870  0.50846  1.0000
  H   H351      1.0  0.38968  0.57217  0.51666  1.0000
  C   C424      1.0  0.45570  0.62886  0.38881  1.0000
  H   H352      1.0  0.45503  0.63529  0.44421  1.0000
  C   C425      1.0  0.40616  0.83296  0.37140  1.0000
  C   C426      1.0  0.41773  0.83430  0.44396  1.0000
  C   C427      1.0  0.43406  0.83340  0.43113  1.0000
  H   H353      1.0  0.41365  0.83503  0.50843  1.0000
  C   C428      1.0  0.44475  0.83378  0.51271  1.0000
  H   H354      1.0  0.43875  0.83515  0.57577  1.0000
  H   H355      1.0  0.45877  0.84549  0.50843  1.0000
  H   H356      1.0  0.44532  0.82104  0.51682  1.0000
  C   C429      1.0  0.38859  0.83031  0.38881  1.0000
  H   H357      1.0  0.38214  0.82320  0.44418  1.0000
  C   C430      1.0  0.83646  0.43728  0.37133  1.0000
  C   C431      1.0  0.83779  0.42704  0.44390  1.0000
  C   C432      1.0  0.83688  0.40980  0.43105  1.0000
  H   H358      1.0  0.83849  0.43183  0.50838  1.0000
  C   C433      1.0  0.83722  0.39948  0.51265  1.0000
  H   H359      1.0  0.83858  0.40684  0.57572  1.0000
  H   H360      1.0  0.84893  0.39715  0.50847  1.0000
  H   H361      1.0  0.82448  0.38618  0.51669  1.0000
  C   C434      1.0  0.83381  0.45220  0.38881  1.0000
  H   H362      1.0  0.82671  0.45154  0.44422  1.0000
  C   C435      1.0  0.58018  0.40267  0.37140  1.0000
  C   C436      1.0  0.59042  0.41425  0.44395  1.0000
  C   C437      1.0  0.60764  0.43058  0.43112  1.0000
  H   H363      1.0  0.58560  0.41017  0.50842  1.0000
  C   C438      1.0  0.61795  0.44126  0.51271  1.0000
  H   H364      1.0  0.61058  0.43527  0.57577  1.0000
  H   H365      1.0  0.62026  0.45529  0.50843  1.0000
  H   H366      1.0  0.63126  0.44184  0.51683  1.0000
  C   C439      1.0  0.56525  0.38510  0.38881  1.0000
  H   H367      1.0  0.56592  0.37866  0.44418  1.0000
  C   C440      1.0  0.61478  0.18098  0.37131  1.0000
  C   C441      1.0  0.60320  0.17965  0.44388  1.0000
  C   C442      1.0  0.58688  0.18056  0.43103  1.0000
  H   H368      1.0  0.60730  0.17895  0.50837  1.0000
  C   C443      1.0  0.57622  0.18023  0.51263  1.0000
  H   H369      1.0  0.58222  0.17886  0.57570  1.0000
  H   H370      1.0  0.56219  0.16852  0.50846  1.0000
  H   H371      1.0  0.57566  0.19297  0.51666  1.0000
  C   C444      1.0  0.63235  0.18363  0.38880  1.0000
  H   H372      1.0  0.63878  0.19073  0.44420  1.0000
  C   C445      1.0  0.99051  0.28390  0.35495  1.0000
  C   C446      1.0  0.00298  0.28665  0.42751  1.0000
  C   C447      1.0  0.02240  0.29655  0.41261  1.0000
  H   H373      1.0  0.03111  0.29919  0.46637  1.0000
  C   C448      1.0  0.99678  0.28014  0.52170  1.0000
  H   H374      1.0  0.98183  0.27187  0.52864  1.0000
  H   H375      1.0  0.00170  0.29199  0.56693  1.0000
  H   H376      1.0  0.00250  0.27158  0.54401  1.0000
  C   C449      1.0  0.97190  0.27837  0.37280  1.0000
  H   H377      1.0  0.96983  0.28705  0.41034  1.0000
  C   C450      1.0  0.73353  0.71009  0.35501  1.0000
  C   C451      1.0  0.73081  0.71982  0.42755  1.0000
  C   C452      1.0  0.72090  0.72935  0.41267  1.0000
  H   H378      1.0  0.71829  0.73544  0.46640  1.0000
  C   C453      1.0  0.73734  0.72015  0.52169  1.0000
  H   H379      1.0  0.74560  0.71345  0.52858  1.0000
  H   H380      1.0  0.72550  0.71323  0.56700  1.0000
  H   H381      1.0  0.74592  0.73443  0.54395  1.0000
  C   C454      1.0  0.73905  0.69700  0.37272  1.0000
  H   H382      1.0  0.73039  0.68626  0.41030  1.0000
  C   C455      1.0  0.30734  0.02694  0.35496  1.0000
  C   C456      1.0  0.29763  0.01447  0.42752  1.0000
  C   C457      1.0  0.28811  0.99504  0.41262  1.0000
  H   H383      1.0  0.28204  0.98634  0.46637  1.0000
  C   C458      1.0  0.29731  0.02067  0.52170  1.0000
  H   H384      1.0  0.30400  0.03562  0.52864  1.0000
  H   H385      1.0  0.30425  0.01576  0.56694  1.0000
  H   H386      1.0  0.28303  0.01495  0.54402  1.0000
  C   C459      1.0  0.32043  0.04555  0.37281  1.0000
  H   H387      1.0  0.33117  0.04762  0.41036  1.0000
  C   C460      1.0  0.03041  0.73004  0.35502  1.0000
  C   C461      1.0  0.01796  0.72731  0.42756  1.0000
  C   C462      1.0  0.99853  0.71741  0.41268  1.0000
  H   H388      1.0  0.98983  0.71480  0.46641  1.0000
  C   C463      1.0  0.02416  0.73385  0.52170  1.0000
  H   H389      1.0  0.03912  0.74211  0.52859  1.0000
  H   H390      1.0  0.01925  0.72201  0.56701  1.0000
  H   H391      1.0  0.01846  0.74243  0.54396  1.0000
  C   C464      1.0  0.04904  0.73556  0.37274  1.0000
  H   H392      1.0  0.05111  0.72690  0.41032  1.0000
  C   C465      1.0  0.28739  0.30386  0.35495  1.0000
  C   C466      1.0  0.29015  0.29415  0.42751  1.0000
  C   C467      1.0  0.30005  0.28462  0.41261  1.0000
  H   H393      1.0  0.30268  0.27855  0.46637  1.0000
  C   C468      1.0  0.28363  0.29382  0.52170  1.0000
  H   H394      1.0  0.27537  0.30052  0.52864  1.0000
  H   H395      1.0  0.29548  0.30077  0.56693  1.0000
  H   H396      1.0  0.27507  0.27955  0.54401  1.0000
  C   C469      1.0  0.28186  0.31695  0.37281  1.0000
  H   H397      1.0  0.29054  0.32769  0.41035  1.0000
  C   C470      1.0  0.71358  0.98703  0.35501  1.0000
  C   C471      1.0  0.72331  0.99949  0.42755  1.0000
  C   C472      1.0  0.73284  0.01891  0.41267  1.0000
  H   H398      1.0  0.73893  0.02762  0.46639  1.0000
  C   C473      1.0  0.72364  0.99328  0.52169  1.0000
  H   H399      1.0  0.71694  0.97832  0.52858  1.0000
  H   H400      1.0  0.71672  0.99820  0.56700  1.0000
  H   H401      1.0  0.73792  0.99899  0.54395  1.0000
  C   C474      1.0  0.70049  0.96841  0.37272  1.0000
  H   H402      1.0  0.68975  0.96634  0.41030  1.0000
  C   C475      1.0  0.15658  0.33351  0.35476  1.0000
  C   C476      1.0  0.16557  0.32958  0.42673  1.0000
  C   C477      1.0  0.18250  0.32988  0.41080  1.0000
  H   H403      1.0  0.18923  0.32805  0.46422  1.0000
  C   C478      1.0  0.15850  0.32573  0.52142  1.0000
  H   H404      1.0  0.14501  0.32460  0.52908  1.0000
  H   H405      1.0  0.16820  0.33675  0.56588  1.0000
  H   H406      1.0  0.15713  0.31268  0.54412  1.0000
  C   C479      1.0  0.14296  0.33822  0.37422  1.0000
  H   H407      1.0  0.14691  0.34891  0.41574  1.0000
  C   C480      1.0  0.68396  0.82658  0.35493  1.0000
  C   C481      1.0  0.68792  0.83951  0.42682  1.0000
  C   C482      1.0  0.68762  0.85614  0.41088  1.0000
  H   H408      1.0  0.68948  0.86472  0.46426  1.0000
  C   C483      1.0  0.69179  0.83629  0.52148  1.0000
  H   H409      1.0  0.69290  0.82392  0.52912  1.0000
  H   H410      1.0  0.68079  0.83500  0.56603  1.0000
  H   H411      1.0  0.70486  0.84797  0.54408  1.0000
  C   C484      1.0  0.67924  0.80823  0.37428  1.0000
  H   H412      1.0  0.66852  0.80148  0.41567  1.0000
  C   C485      1.0  0.19088  0.86088  0.35477  1.0000
  C   C486      1.0  0.17796  0.85188  0.42671  1.0000
  C   C487      1.0  0.16132  0.83495  0.41079  1.0000
  H   H413      1.0  0.15277  0.82822  0.46421  1.0000
  C   C488      1.0  0.18119  0.85895  0.52141  1.0000
  H   H414      1.0  0.19355  0.87244  0.52907  1.0000
  H   H415      1.0  0.18250  0.84925  0.56586  1.0000
  H   H416      1.0  0.16951  0.86033  0.54410  1.0000
  C   C489      1.0  0.20923  0.87449  0.37420  1.0000
  H   H417      1.0  0.21597  0.87054  0.41569  1.0000
  C   C490      1.0  0.86436  0.68047  0.35493  1.0000
  C   C491      1.0  0.85539  0.68443  0.42682  1.0000
  C   C492      1.0  0.83845  0.68413  0.41088  1.0000
  H   H418      1.0  0.83174  0.68598  0.46426  1.0000
  C   C493      1.0  0.86247  0.68830  0.52148  1.0000
  H   H419      1.0  0.87596  0.68941  0.52912  1.0000
  H   H420      1.0  0.85277  0.67730  0.56603  1.0000
  H   H421      1.0  0.86387  0.70137  0.54408  1.0000
  C   C494      1.0  0.87798  0.67574  0.37428  1.0000
  H   H422      1.0  0.87402  0.66503  0.41567  1.0000
  C   C495      1.0  0.33701  0.18740  0.35481  1.0000
  C   C496      1.0  0.33307  0.17448  0.42677  1.0000
  C   C497      1.0  0.33336  0.15784  0.41082  1.0000
  H   H423      1.0  0.33153  0.14929  0.46423  1.0000
  C   C498      1.0  0.32921  0.17770  0.52145  1.0000
  H   H424      1.0  0.32809  0.19007  0.52912  1.0000
  H   H425      1.0  0.34022  0.17901  0.56594  1.0000
  H   H426      1.0  0.31615  0.16603  0.54411  1.0000
  C   C499      1.0  0.34172  0.20574  0.37425  1.0000
  H   H427      1.0  0.35241  0.21249  0.41576  1.0000
  C   C500      1.0  0.83007  0.15309  0.35493  1.0000
  C   C501      1.0  0.84300  0.16206  0.42682  1.0000
  C   C502      1.0  0.85963  0.17900  0.41088  1.0000
  H   H428      1.0  0.86820  0.18571  0.46424  1.0000
  C   C503      1.0  0.83978  0.15497  0.52147  1.0000
  H   H429      1.0  0.82741  0.14149  0.52912  1.0000
  H   H430      1.0  0.83848  0.16467  0.56603  1.0000
  H   H431      1.0  0.85146  0.15358  0.54406  1.0000
  C   C504      1.0  0.81171  0.13946  0.37428  1.0000
  H   H432      1.0  0.80497  0.14342  0.41568  1.0000
