data_image0
_chemical_formula_structural       N12C4NH3C4NH3C4NH3C4NH3C4NH3C4NH3C4NH3C4NH3C4NH3C4NH3C4NH3C4NH3CNCNCNC18H12CNCNCNC18H12CNCNCNC18H12CNCNCNC18H12CNCNCNC18H12CNCNCNC18H12CNCNCNC18H12CNCNCNC18H12CNCNCNC18H12CNCNCNC18H12CNCNCNC18H12CNCNCNC18H12C4NH3C4NH3C4NH3C4NH3C4NH3C4NH3N24
_chemical_formula_sum              "N90 C324 H198"
_cell_length_a       74.2371
_cell_length_b       74.2371
_cell_length_c       15.0028
_cell_angle_alpha    90
_cell_angle_beta     90
_cell_angle_gamma    120

_space_group_name_H-M_alt    "P 1"
_space_group_IT_number       1

loop_
  _space_group_symop_operation_xyz
  'x, y, z'

loop_
  _atom_site_type_symbol
  _atom_site_label
  _atom_site_symmetry_multiplicity
  _atom_site_fract_x
  _atom_site_fract_y
  _atom_site_fract_z
  _atom_site_occupancy
  N   N1        1.0  0.20664  0.39631  0.28558  1.0000
  N   N2        1.0  0.19639  0.37598  0.28536  1.0000
  N   N3        1.0  0.59012  0.79671  0.28217  1.0000
  N   N4        1.0  0.61045  0.80679  0.28192  1.0000
  N   N5        1.0  0.18949  0.77973  0.28592  1.0000
  N   N6        1.0  0.17940  0.78996  0.28582  1.0000
  N   N7        1.0  0.78502  0.58567  0.27890  1.0000
  N   N8        1.0  0.79526  0.60600  0.27873  1.0000
  N   N9        1.0  0.40078  0.18513  0.28640  1.0000
  N   N10       1.0  0.38045  0.17504  0.28626  1.0000
  N   N11       1.0  0.80127  0.20214  0.28431  1.0000
  N   N12       1.0  0.81134  0.19188  0.28404  1.0000
  C   C1        1.0  0.20450  0.17808  0.31402  1.0000
  C   C2        1.0  0.20775  0.19184  0.24284  1.0000
  C   C3        1.0  0.19650  0.20255  0.23782  1.0000
  C   C4        1.0  0.18234  0.19936  0.30813  1.0000
  N   N13       1.0  0.19915  0.21471  0.16558  1.0000
  H   H1        1.0  0.20849  0.21599  0.11727  1.0000
  H   H2        1.0  0.19052  0.22093  0.15593  1.0000
  H   H3        1.0  0.21786  0.19357  0.19275  1.0000
  C   C5        1.0  0.80823  0.01290  0.31425  1.0000
  C   C6        1.0  0.79448  0.00235  0.24310  1.0000
  C   C7        1.0  0.78380  0.98039  0.23820  1.0000
  C   C8        1.0  0.78699  0.96945  0.30864  1.0000
  N   N14       1.0  0.77165  0.97085  0.16597  1.0000
  H   H4        1.0  0.77022  0.97886  0.11787  1.0000
  H   H5        1.0  0.76528  0.95597  0.15670  1.0000
  H   H6        1.0  0.79276  0.01071  0.19287  1.0000
  C   C9        1.0  0.97335  0.78175  0.31360  1.0000
  C   C10       1.0  0.98387  0.77855  0.24232  1.0000
  C   C11       1.0  0.00583  0.78982  0.23726  1.0000
  C   C12       1.0  0.01680  0.80396  0.30764  1.0000
  N   N15       1.0  0.01535  0.78721  0.16497  1.0000
  H   H7        1.0  0.00730  0.77788  0.11663  1.0000
  H   H8        1.0  0.03021  0.79585  0.15533  1.0000
  H   H9        1.0  0.97550  0.76845  0.19219  1.0000
  C   C13       1.0  0.78622  0.80371  0.31424  1.0000
  C   C14       1.0  0.78301  0.78994  0.24317  1.0000
  C   C15       1.0  0.79428  0.77924  0.23840  1.0000
  C   C16       1.0  0.80841  0.78246  0.30884  1.0000
  N   N16       1.0  0.79165  0.76706  0.16626  1.0000
  H   H10       1.0  0.78234  0.76576  0.11789  1.0000
  H   H11       1.0  0.80030  0.76084  0.15681  1.0000
  H   H12       1.0  0.77292  0.78819  0.19297  1.0000
  C   C17       1.0  0.18251  0.96896  0.31393  1.0000
  C   C18       1.0  0.19626  0.97945  0.24268  1.0000
  C   C19       1.0  0.20697  0.00141  0.23757  1.0000
  C   C20       1.0  0.20382  0.01240  0.30787  1.0000
  N   N17       1.0  0.21912  0.01090  0.16526  1.0000
  H   H13       1.0  0.22038  0.00283  0.11699  1.0000
  H   H14       1.0  0.22535  0.02576  0.15556  1.0000
  H   H15       1.0  0.19797  0.97106  0.19261  1.0000
  C   C21       1.0  0.01737  0.20007  0.31418  1.0000
  C   C22       1.0  0.00684  0.20329  0.24298  1.0000
  C   C23       1.0  0.98488  0.19202  0.23798  1.0000
  C   C24       1.0  0.97392  0.17789  0.30837  1.0000
  N   N18       1.0  0.97537  0.19465  0.16569  1.0000
  H   H16       1.0  0.98339  0.20408  0.11767  1.0000
  H   H17       1.0  0.96048  0.18613  0.15635  1.0000
  H   H18       1.0  0.01521  0.21337  0.19279  1.0000
  C   C25       1.0  0.21335  0.58140  0.34209  1.0000
  C   C26       1.0  0.20808  0.58649  0.25892  1.0000
  C   C27       1.0  0.20802  0.60541  0.24766  1.0000
  C   C28       1.0  0.21248  0.61846  0.32340  1.0000
  N   N19       1.0  0.20472  0.61092  0.16548  1.0000
  H   H19       1.0  0.20168  0.60176  0.11437  1.0000
  H   H20       1.0  0.20428  0.62365  0.15611  1.0000
  H   H21       1.0  0.20637  0.57755  0.20418  1.0000
  C   C29       1.0  0.40505  0.61840  0.34225  1.0000
  C   C30       1.0  0.39996  0.60811  0.25893  1.0000
  C   C31       1.0  0.38103  0.58914  0.24758  1.0000
  C   C32       1.0  0.36798  0.58049  0.32326  1.0000
  N   N20       1.0  0.37548  0.58041  0.16527  1.0000
  H   H22       1.0  0.38462  0.58656  0.11413  1.0000
  H   H23       1.0  0.36274  0.56726  0.15581  1.0000
  H   H24       1.0  0.40890  0.61538  0.20422  1.0000
  C   C33       1.0  0.36792  0.77301  0.34267  1.0000
  C   C34       1.0  0.37829  0.77816  0.25953  1.0000
  C   C35       1.0  0.39724  0.77814  0.24860  1.0000
  C   C36       1.0  0.40574  0.77363  0.32455  1.0000
  N   N21       1.0  0.40605  0.78133  0.16644  1.0000
  H   H25       1.0  0.39998  0.78438  0.11520  1.0000
  H   H26       1.0  0.41918  0.78169  0.15719  1.0000
  H   H27       1.0  0.37109  0.77985  0.20462  1.0000
  C   C37       1.0  0.77765  0.40058  0.34232  1.0000
  C   C38       1.0  0.78288  0.39548  0.25909  1.0000
  C   C39       1.0  0.78286  0.37652  0.24784  1.0000
  C   C40       1.0  0.77845  0.36348  0.32358  1.0000
  N   N22       1.0  0.78607  0.37096  0.16560  1.0000
  H   H28       1.0  0.78898  0.38005  0.11433  1.0000
  H   H29       1.0  0.78634  0.35816  0.15607  1.0000
  H   H30       1.0  0.78452  0.40441  0.20436  1.0000
  C   C41       1.0  0.58599  0.36352  0.34240  1.0000
  C   C42       1.0  0.59115  0.37395  0.25940  1.0000
  C   C43       1.0  0.61010  0.39292  0.24851  1.0000
  C   C44       1.0  0.62314  0.40144  0.32432  1.0000
  N   N23       1.0  0.61567  0.40178  0.16644  1.0000
  H   H31       1.0  0.60654  0.39572  0.11521  1.0000
  H   H32       1.0  0.62843  0.41493  0.15725  1.0000
  H   H33       1.0  0.58223  0.36677  0.20452  1.0000
  C   C45       1.0  0.62291  0.20891  0.34217  1.0000
  C   C46       1.0  0.61259  0.20362  0.25893  1.0000
  C   C47       1.0  0.59360  0.20355  0.24760  1.0000
  C   C48       1.0  0.58496  0.20799  0.32323  1.0000
  N   N24       1.0  0.58483  0.20029  0.16535  1.0000
  H   H34       1.0  0.59097  0.19727  0.11425  1.0000
  H   H35       1.0  0.57166  0.19985  0.15590  1.0000
  H   H36       1.0  0.61985  0.20193  0.20424  1.0000
  C   C49       1.0  0.13801  0.24351  0.33668  1.0000
  N   N25       1.0  0.14824  0.26467  0.33687  1.0000
  C   C50       1.0  0.13828  0.27581  0.33821  1.0000
  N   N26       1.0  0.11715  0.26493  0.33857  1.0000
  C   C51       1.0  0.10601  0.24380  0.33815  1.0000
  N   N27       1.0  0.11685  0.23350  0.33715  1.0000
  C   C52       1.0  0.14946  0.29796  0.33940  1.0000
  C   C53       1.0  0.17081  0.30942  0.31626  1.0000
  C   C54       1.0  0.18184  0.33131  0.31854  1.0000
  C   C55       1.0  0.17203  0.34247  0.34653  1.0000
  C   C56       1.0  0.15069  0.33111  0.36905  1.0000
  C   C57       1.0  0.13957  0.30927  0.36475  1.0000
  C   C58       1.0  0.14906  0.23239  0.33303  1.0000
  C   C59       1.0  0.17104  0.24306  0.32548  1.0000
  C   C60       1.0  0.18196  0.23220  0.31804  1.0000
  C   C61       1.0  0.17127  0.21023  0.31713  1.0000
  C   C62       1.0  0.14946  0.19944  0.32809  1.0000
  C   C63       1.0  0.13854  0.21035  0.33515  1.0000
  C   C64       1.0  0.08388  0.23299  0.33522  1.0000
  C   C65       1.0  0.07198  0.21160  0.35715  1.0000
  C   C66       1.0  0.05012  0.20089  0.35197  1.0000
  C   C67       1.0  0.03940  0.21105  0.32228  1.0000
  C   C68       1.0  0.05124  0.23245  0.30126  1.0000
  C   C69       1.0  0.07303  0.24324  0.30829  1.0000
  H   H37       1.0  0.19783  0.24051  0.31256  1.0000
  H   H38       1.0  0.17946  0.25896  0.32411  1.0000
  H   H39       1.0  0.14128  0.18351  0.32847  1.0000
  H   H40       1.0  0.12270  0.20189  0.34105  1.0000
  H   H41       1.0  0.07910  0.20355  0.37760  1.0000
  H   H42       1.0  0.04213  0.18539  0.36747  1.0000
  H   H43       1.0  0.08089  0.25865  0.29121  1.0000
  H   H44       1.0  0.04409  0.24053  0.28152  1.0000
  H   H45       1.0  0.12420  0.30174  0.38246  1.0000
  H   H46       1.0  0.14293  0.33864  0.38794  1.0000
  H   H47       1.0  0.19730  0.33901  0.30213  1.0000
  H   H48       1.0  0.17860  0.30196  0.29681  1.0000
  C   C70       1.0  0.74287  0.88099  0.33746  1.0000
  N   N28       1.0  0.72172  0.87009  0.33735  1.0000
  C   C71       1.0  0.71052  0.84897  0.33821  1.0000
  N   N29       1.0  0.72138  0.83870  0.33839  1.0000
  C   C72       1.0  0.74252  0.84866  0.33829  1.0000
  N   N30       1.0  0.75285  0.86982  0.33773  1.0000
  C   C73       1.0  0.68837  0.83809  0.33883  1.0000
  C   C74       1.0  0.67704  0.84825  0.31810  1.0000
  C   C75       1.0  0.65514  0.83749  0.31973  1.0000
  C   C76       1.0  0.64388  0.81633  0.34469  1.0000
  C   C77       1.0  0.65507  0.80606  0.36497  1.0000
  C   C78       1.0  0.67692  0.81670  0.36119  1.0000
  C   C79       1.0  0.75398  0.90316  0.33394  1.0000
  C   C80       1.0  0.74331  0.91446  0.32647  1.0000
  C   C81       1.0  0.75417  0.93624  0.31894  1.0000
  C   C82       1.0  0.77613  0.94752  0.31782  1.0000
  C   C83       1.0  0.78693  0.93651  0.32874  1.0000
  C   C84       1.0  0.77603  0.91468  0.33593  1.0000
  C   C85       1.0  0.75332  0.83734  0.33523  1.0000
  C   C86       1.0  0.77469  0.84680  0.35726  1.0000
  C   C87       1.0  0.78540  0.83564  0.35200  1.0000
  C   C88       1.0  0.77524  0.81478  0.32218  1.0000
  C   C89       1.0  0.75385  0.80524  0.30097  1.0000
  C   C90       1.0  0.74306  0.81624  0.30806  1.0000
  H   H49       1.0  0.74586  0.94380  0.31352  1.0000
  H   H50       1.0  0.72741  0.90698  0.32525  1.0000
  H   H51       1.0  0.80286  0.94425  0.32896  1.0000
  H   H52       1.0  0.78449  0.90730  0.34171  1.0000
  H   H53       1.0  0.78275  0.86196  0.37790  1.0000
  H   H54       1.0  0.80089  0.84314  0.36769  1.0000
  H   H55       1.0  0.72766  0.80871  0.29092  1.0000
  H   H56       1.0  0.74576  0.79001  0.28117  1.0000
  H   H57       1.0  0.68434  0.80865  0.37706  1.0000
  H   H58       1.0  0.64740  0.79063  0.38191  1.0000
  H   H59       1.0  0.64753  0.84543  0.30522  1.0000
  H   H60       1.0  0.68459  0.86366  0.30097  1.0000
  C   C91       1.0  0.10528  0.84831  0.33661  1.0000
  N   N31       1.0  0.11621  0.83808  0.33691  1.0000
  C   C92       1.0  0.13732  0.84805  0.33841  1.0000
  N   N32       1.0  0.14756  0.86918  0.33878  1.0000
  C   C93       1.0  0.13757  0.88032  0.33824  1.0000
  N   N33       1.0  0.11642  0.86947  0.33709  1.0000
  C   C94       1.0  0.14830  0.83689  0.33971  1.0000
  C   C95       1.0  0.13845  0.81556  0.31630  1.0000
  C   C96       1.0  0.14933  0.80454  0.31862  1.0000
  C   C97       1.0  0.17028  0.81435  0.34694  1.0000
  C   C98       1.0  0.18021  0.83567  0.36975  1.0000
  C   C99       1.0  0.16947  0.84677  0.36541  1.0000
  C   C100      1.0  0.08311  0.83725  0.33281  1.0000
  C   C101      1.0  0.07181  0.81528  0.32509  1.0000
  C   C102      1.0  0.05003  0.80436  0.31752  1.0000
  C   C103      1.0  0.03874  0.81503  0.31668  1.0000
  C   C104      1.0  0.04975  0.83684  0.32779  1.0000
  C   C105      1.0  0.07158  0.84777  0.33495  1.0000
  C   C106      1.0  0.14889  0.90245  0.33527  1.0000
  C   C107      1.0  0.13941  0.91436  0.35704  1.0000
  C   C108      1.0  0.15057  0.93622  0.35178  1.0000
  C   C109      1.0  0.17145  0.94693  0.32216  1.0000
  C   C110      1.0  0.18102  0.93508  0.30132  1.0000
  C   C111      1.0  0.17000  0.91329  0.30844  1.0000
  H   H61       1.0  0.04247  0.78849  0.31194  1.0000
  H   H62       1.0  0.07930  0.80687  0.32368  1.0000
  H   H63       1.0  0.04200  0.84502  0.32822  1.0000
  H   H64       1.0  0.07895  0.86360  0.34099  1.0000
  H   H65       1.0  0.12423  0.90724  0.37741  1.0000
  H   H66       1.0  0.14305  0.94422  0.36715  1.0000
  H   H67       1.0  0.17755  0.90542  0.29146  1.0000
  H   H68       1.0  0.19625  0.94222  0.28164  1.0000
  H   H69       1.0  0.17729  0.86213  0.38332  1.0000
  H   H70       1.0  0.19550  0.84345  0.38882  1.0000
  H   H71       1.0  0.14160  0.78910  0.30197  1.0000
  H   H72       1.0  0.12322  0.80776  0.29657  1.0000
  C   C112      1.0  0.85275  0.73833  0.33825  1.0000
  N   N34       1.0  0.84250  0.71718  0.33813  1.0000
  C   C113      1.0  0.85241  0.70598  0.33879  1.0000
  N   N35       1.0  0.87354  0.71684  0.33874  1.0000
  C   C114      1.0  0.88472  0.73798  0.33871  1.0000
  N   N36       1.0  0.87390  0.74831  0.33833  1.0000
  C   C115      1.0  0.84112  0.68382  0.33907  1.0000
  C   C116      1.0  0.81946  0.67253  0.32131  1.0000
  C   C117      1.0  0.80831  0.65064  0.32232  1.0000
  C   C118      1.0  0.81839  0.63935  0.34363  1.0000
  C   C119      1.0  0.83997  0.65044  0.36123  1.0000
  C   C120      1.0  0.85117  0.67229  0.35798  1.0000
  C   C121      1.0  0.84169  0.74945  0.33468  1.0000
  C   C122      1.0  0.81972  0.73877  0.32697  1.0000
  C   C123      1.0  0.80880  0.74963  0.31924  1.0000
  C   C124      1.0  0.81948  0.77159  0.31818  1.0000
  C   C125      1.0  0.84129  0.78240  0.32933  1.0000
  C   C126      1.0  0.85221  0.77149  0.33671  1.0000
  C   C127      1.0  0.90684  0.74879  0.33540  1.0000
  C   C128      1.0  0.91876  0.77017  0.35732  1.0000
  C   C129      1.0  0.94061  0.78090  0.35180  1.0000
  C   C130      1.0  0.95132  0.77076  0.32182  1.0000
  C   C131      1.0  0.93947  0.74935  0.30072  1.0000
  C   C132      1.0  0.91768  0.73855  0.30804  1.0000
  H   H73       1.0  0.79293  0.74132  0.31364  1.0000
  H   H74       1.0  0.81130  0.72287  0.32568  1.0000
  H   H75       1.0  0.84947  0.79832  0.32960  1.0000
  H   H76       1.0  0.86805  0.77995  0.34264  1.0000
  H   H77       1.0  0.91165  0.77822  0.37808  1.0000
  H   H78       1.0  0.94860  0.79640  0.36741  1.0000
  H   H79       1.0  0.90981  0.72314  0.29103  1.0000
  H   H80       1.0  0.94661  0.74127  0.28081  1.0000
  H   H81       1.0  0.86676  0.67967  0.37162  1.0000
  H   H82       1.0  0.84777  0.64268  0.37583  1.0000
  H   H83       1.0  0.79265  0.64304  0.31003  1.0000
  H   H84       1.0  0.81150  0.68012  0.30686  1.0000
  C   C133      1.0  0.24797  0.10089  0.33641  1.0000
  N   N37       1.0  0.26913  0.11182  0.33679  1.0000
  C   C134      1.0  0.28026  0.13294  0.33832  1.0000
  N   N38       1.0  0.26936  0.14317  0.33868  1.0000
  C   C135      1.0  0.24823  0.13317  0.33808  1.0000
  N   N39       1.0  0.23795  0.11202  0.33690  1.0000
  C   C136      1.0  0.30240  0.14393  0.33974  1.0000
  C   C137      1.0  0.31391  0.13413  0.31611  1.0000
  C   C138      1.0  0.33581  0.14502  0.31854  1.0000
  C   C139      1.0  0.34693  0.16595  0.34716  1.0000
  C   C140      1.0  0.33551  0.17584  0.37017  1.0000
  C   C141      1.0  0.31367  0.16509  0.36576  1.0000
  C   C142      1.0  0.23686  0.07872  0.33266  1.0000
  C   C143      1.0  0.24752  0.06742  0.32502  1.0000
  C   C144      1.0  0.23666  0.04563  0.31758  1.0000
  C   C145      1.0  0.21469  0.03435  0.31678  1.0000
  C   C146      1.0  0.20390  0.04536  0.32779  1.0000
  C   C147      1.0  0.21482  0.06720  0.33484  1.0000
  C   C148      1.0  0.23742  0.14448  0.33515  1.0000
  C   C149      1.0  0.21602  0.13498  0.35689  1.0000
  C   C150      1.0  0.20531  0.14614  0.35170  1.0000
  C   C151      1.0  0.21548  0.16702  0.32217  1.0000
  C   C152      1.0  0.23689  0.17660  0.30134  1.0000
  C   C153      1.0  0.24768  0.16560  0.30837  1.0000
  H   H85       1.0  0.24496  0.03807  0.31206  1.0000
  H   H86       1.0  0.26343  0.07490  0.32360  1.0000
  H   H87       1.0  0.18798  0.03762  0.32825  1.0000
  H   H88       1.0  0.20635  0.07457  0.34082  1.0000
  H   H89       1.0  0.20796  0.11980  0.37723  1.0000
  H   H90       1.0  0.18980  0.13861  0.36706  1.0000
  H   H91       1.0  0.26310  0.17316  0.29145  1.0000
  H   H92       1.0  0.24498  0.19184  0.28173  1.0000
  H   H93       1.0  0.30610  0.17287  0.38383  1.0000
  H   H94       1.0  0.34300  0.19112  0.38945  1.0000
  H   H95       1.0  0.34353  0.13732  0.30171  1.0000
  H   H96       1.0  0.30649  0.11891  0.29613  1.0000
  C   C154      1.0  0.88545  0.13354  0.33697  1.0000
  N   N40       1.0  0.87453  0.14378  0.33700  1.0000
  C   C155      1.0  0.85342  0.13382  0.33813  1.0000
  N   N41       1.0  0.84317  0.11270  0.33843  1.0000
  C   C156      1.0  0.85315  0.10154  0.33816  1.0000
  N   N42       1.0  0.87430  0.11238  0.33735  1.0000
  C   C157      1.0  0.84249  0.14504  0.33909  1.0000
  C   C158      1.0  0.85248  0.16645  0.31678  1.0000
  C   C159      1.0  0.84166  0.17752  0.31882  1.0000
  C   C160      1.0  0.82062  0.16768  0.34576  1.0000
  C   C161      1.0  0.81054  0.14630  0.36751  1.0000
  C   C162      1.0  0.82122  0.13514  0.36339  1.0000
  C   C163      1.0  0.90762  0.14459  0.33338  1.0000
  C   C164      1.0  0.91892  0.16657  0.32593  1.0000
  C   C165      1.0  0.94071  0.17750  0.31848  1.0000
  C   C166      1.0  0.95199  0.16681  0.31742  1.0000
  C   C167      1.0  0.94098  0.14500  0.32829  1.0000
  C   C168      1.0  0.91914  0.13407  0.33540  1.0000
  C   C169      1.0  0.84183  0.07942  0.33519  1.0000
  C   C170      1.0  0.85130  0.06752  0.35722  1.0000
  C   C171      1.0  0.84015  0.04565  0.35200  1.0000
  C   C172      1.0  0.81929  0.03493  0.32226  1.0000
  C   C173      1.0  0.80973  0.04677  0.30109  1.0000
  C   C174      1.0  0.82073  0.06857  0.30810  1.0000
  H   H97       1.0  0.94827  0.19337  0.31310  1.0000
  H   H98       1.0  0.91144  0.17499  0.32470  1.0000
  H   H99       1.0  0.94872  0.13682  0.32856  1.0000
  H   H100      1.0  0.91176  0.11823  0.34119  1.0000
  H   H101      1.0  0.86648  0.07464  0.37778  1.0000
  H   H102      1.0  0.84766  0.03766  0.36766  1.0000
  H   H103      1.0  0.81319  0.07643  0.29101  1.0000
  H   H104      1.0  0.79450  0.03963  0.28133  1.0000
  H   H105      1.0  0.81330  0.11973  0.38044  1.0000
  H   H106      1.0  0.79519  0.13854  0.38571  1.0000
  H   H107      1.0  0.84949  0.19301  0.30307  1.0000
  H   H108      1.0  0.86779  0.17426  0.29813  1.0000
  C   C175      1.0  0.24753  0.52804  0.33687  1.0000
  N   N43       1.0  0.23761  0.50698  0.33243  1.0000
  C   C176      1.0  0.24814  0.49638  0.32364  1.0000
  N   N44       1.0  0.26932  0.50775  0.31866  1.0000
  C   C177      1.0  0.27996  0.52890  0.32119  1.0000
  N   N45       1.0  0.26856  0.53844  0.33108  1.0000
  C   C178      1.0  0.23737  0.47418  0.32484  1.0000
  C   C179      1.0  0.21556  0.46257  0.33821  1.0000
  C   C180      1.0  0.20506  0.44079  0.34594  1.0000
  C   C181      1.0  0.21602  0.42981  0.34127  1.0000
  C   C182      1.0  0.23758  0.44109  0.32365  1.0000
  C   C183      1.0  0.24809  0.46292  0.31629  1.0000
  C   C184      1.0  0.23706  0.53946  0.34752  1.0000
  C   C185      1.0  0.21793  0.53355  0.30461  1.0000
  C   C186      1.0  0.20946  0.54685  0.30519  1.0000
  C   C187      1.0  0.21944  0.56608  0.35125  1.0000
  C   C188      1.0  0.23784  0.57118  0.39906  1.0000
  C   C189      1.0  0.24659  0.55826  0.39643  1.0000
  C   C190      1.0  0.30207  0.54114  0.31650  1.0000
  C   C191      1.0  0.31178  0.56291  0.30248  1.0000
  C   C192      1.0  0.33349  0.57551  0.30239  1.0000
  C   C193      1.0  0.34633  0.56678  0.31658  1.0000
  C   C194      1.0  0.33699  0.54510  0.32911  1.0000
  C   C195      1.0  0.31512  0.53244  0.32825  1.0000
  H   H109      1.0  0.19621  0.54263  0.26929  1.0000
  H   H110      1.0  0.21082  0.52028  0.26699  1.0000
  H   H111      1.0  0.24600  0.58515  0.43132  1.0000
  H   H112      1.0  0.26043  0.56312  0.42864  1.0000
  H   H113      1.0  0.30318  0.57005  0.29303  1.0000
  H   H114      1.0  0.33983  0.59123  0.29392  1.0000
  H   H115      1.0  0.30882  0.51684  0.33947  1.0000
  H   H116      1.0  0.34600  0.53849  0.34055  1.0000
  H   H117      1.0  0.26383  0.47052  0.30632  1.0000
  H   H118      1.0  0.24595  0.43357  0.31933  1.0000
  H   H119      1.0  0.18932  0.43303  0.35656  1.0000
  H   H120      1.0  0.20699  0.46982  0.34448  1.0000
  C   C196      1.0  0.45851  0.70592  0.33767  1.0000
  N   N46       1.0  0.47957  0.71711  0.33263  1.0000
  C   C197      1.0  0.49009  0.73823  0.32356  1.0000
  N   N47       1.0  0.47866  0.74798  0.31890  1.0000
  C   C198      1.0  0.45751  0.73742  0.32204  1.0000
  N   N48       1.0  0.44805  0.71648  0.33215  1.0000
  C   C199      1.0  0.51229  0.74976  0.32417  1.0000
  C   C200      1.0  0.52400  0.73971  0.33857  1.0000
  C   C201      1.0  0.54578  0.75111  0.34590  1.0000
  C   C202      1.0  0.55665  0.77302  0.33943  1.0000
  C   C203      1.0  0.54527  0.78315  0.32074  1.0000
  C   C204      1.0  0.52343  0.77170  0.31403  1.0000
  C   C205      1.0  0.44712  0.68402  0.34834  1.0000
  C   C206      1.0  0.45295  0.67082  0.30475  1.0000
  C   C207      1.0  0.43964  0.64904  0.30524  1.0000
  C   C208      1.0  0.42046  0.63979  0.35168  1.0000
  C   C209      1.0  0.41542  0.65307  0.39998  1.0000
  C   C210      1.0  0.42839  0.67474  0.39765  1.0000
  C   C211      1.0  0.44521  0.74723  0.31758  1.0000
  C   C212      1.0  0.42340  0.73508  0.30507  1.0000
  C   C213      1.0  0.41076  0.74414  0.30514  1.0000
  C   C214      1.0  0.41949  0.76574  0.31781  1.0000
  C   C215      1.0  0.44121  0.77817  0.32883  1.0000
  C   C216      1.0  0.45391  0.76901  0.32795  1.0000
  H   H121      1.0  0.44381  0.64003  0.26902  1.0000
  H   H122      1.0  0.46621  0.67698  0.26703  1.0000
  H   H123      1.0  0.40148  0.64727  0.43247  1.0000
  H   H124      1.0  0.42356  0.68372  0.43017  1.0000
  H   H125      1.0  0.41626  0.71931  0.29667  1.0000
  H   H126      1.0  0.39501  0.73470  0.29771  1.0000
  H   H127      1.0  0.46954  0.77838  0.33809  1.0000
  H   H128      1.0  0.44783  0.79384  0.33927  1.0000
  H   H129      1.0  0.51576  0.77973  0.30327  1.0000
  H   H130      1.0  0.55272  0.79901  0.31534  1.0000
  H   H131      1.0  0.55363  0.74325  0.35757  1.0000
  H   H132      1.0  0.51682  0.72392  0.34621  1.0000
  C   C217      1.0  0.28040  0.73890  0.33653  1.0000
  N   N49       1.0  0.26926  0.74882  0.33211  1.0000
  C   C218      1.0  0.24813  0.73829  0.32334  1.0000
  N   N50       1.0  0.23832  0.71710  0.31835  1.0000
  C   C219      1.0  0.24884  0.70646  0.32084  1.0000
  N   N51       1.0  0.26978  0.71787  0.33073  1.0000
  C   C220      1.0  0.23670  0.74905  0.32463  1.0000
  C   C221      1.0  0.24691  0.77087  0.33774  1.0000
  C   C222      1.0  0.23564  0.78138  0.34558  1.0000
  C   C223      1.0  0.21370  0.77042  0.34129  1.0000
  C   C224      1.0  0.20340  0.74884  0.32391  1.0000
  C   C225      1.0  0.21472  0.73833  0.31644  1.0000
  C   C226      1.0  0.30229  0.74937  0.34732  1.0000
  C   C227      1.0  0.31553  0.76846  0.30420  1.0000
  C   C228      1.0  0.33730  0.77692  0.30501  1.0000
  C   C229      1.0  0.34650  0.76695  0.35151  1.0000
  C   C230      1.0  0.33319  0.74860  0.39949  1.0000
  C   C231      1.0  0.31152  0.73986  0.39664  1.0000
  C   C232      1.0  0.23897  0.68435  0.31621  1.0000
  C   C233      1.0  0.25104  0.67466  0.30222  1.0000
  C   C234      1.0  0.24195  0.65295  0.30225  1.0000
  C   C235      1.0  0.22040  0.64010  0.31651  1.0000
  C   C236      1.0  0.20805  0.64943  0.32901  1.0000
  C   C237      1.0  0.21723  0.67130  0.32801  1.0000
  H   H133      1.0  0.34635  0.79013  0.26896  1.0000
  H   H134      1.0  0.30939  0.77555  0.26629  1.0000
  H   H135      1.0  0.33897  0.74045  0.43207  1.0000
  H   H136      1.0  0.30251  0.72605  0.42900  1.0000
  H   H137      1.0  0.26678  0.68327  0.29273  1.0000
  H   H138      1.0  0.25134  0.64662  0.29382  1.0000
  H   H139      1.0  0.20793  0.67759  0.33929  1.0000
  H   H140      1.0  0.19242  0.64041  0.34055  1.0000
  H   H141      1.0  0.20657  0.72259  0.30666  1.0000
  H   H142      1.0  0.18751  0.74047  0.31987  1.0000
  H   H143      1.0  0.24363  0.79712  0.35598  1.0000
  H   H144      1.0  0.26274  0.77945  0.34373  1.0000
  C   C238      1.0  0.74363  0.45408  0.33798  1.0000
  N   N52       1.0  0.75351  0.47514  0.33289  1.0000
  C   C239      1.0  0.74291  0.48567  0.32382  1.0000
  N   N53       1.0  0.72173  0.47424  0.31917  1.0000
  C   C240      1.0  0.71114  0.45310  0.32236  1.0000
  N   N54       1.0  0.72260  0.44362  0.33247  1.0000
  C   C241      1.0  0.75356  0.50786  0.32413  1.0000
  C   C242      1.0  0.77532  0.51962  0.33866  1.0000
  C   C243      1.0  0.78568  0.54141  0.34550  1.0000
  C   C244      1.0  0.77460  0.55222  0.33807  1.0000
  C   C245      1.0  0.75310  0.54081  0.31950  1.0000
  C   C246      1.0  0.74274  0.51897  0.31346  1.0000
  C   C247      1.0  0.75413  0.44268  0.34858  1.0000
  C   C248      1.0  0.77316  0.44851  0.30505  1.0000
  C   C249      1.0  0.78160  0.43518  0.30545  1.0000
  C   C250      1.0  0.77164  0.41597  0.35170  1.0000
  C   C251      1.0  0.75332  0.41093  0.39995  1.0000
  C   C252      1.0  0.74463  0.42391  0.39771  1.0000
  C   C253      1.0  0.68903  0.44082  0.31783  1.0000
  C   C254      1.0  0.67935  0.41903  0.30481  1.0000
  C   C255      1.0  0.65764  0.40641  0.30473  1.0000
  C   C256      1.0  0.64479  0.41514  0.31784  1.0000
  C   C257      1.0  0.65409  0.43685  0.32932  1.0000
  C   C258      1.0  0.67596  0.44953  0.32856  1.0000
  H   H145      1.0  0.79481  0.43936  0.26931  1.0000
  H   H146      1.0  0.78028  0.46178  0.26746  1.0000
  H   H147      1.0  0.74516  0.39698  0.43233  1.0000
  H   H148      1.0  0.73082  0.41908  0.43018  1.0000
  H   H149      1.0  0.68796  0.41188  0.29610  1.0000
  H   H150      1.0  0.65132  0.39067  0.29689  1.0000
  H   H151      1.0  0.68225  0.46516  0.33905  1.0000
  H   H152      1.0  0.64506  0.44348  0.34001  1.0000
  H   H153      1.0  0.72703  0.51126  0.30267  1.0000
  H   H154      1.0  0.74468  0.54825  0.31368  1.0000
  H   H155      1.0  0.80136  0.54930  0.35750  1.0000
  H   H156      1.0  0.78393  0.51245  0.34682  1.0000
  C   C259      1.0  0.53254  0.27599  0.33645  1.0000
  N   N55       1.0  0.51147  0.26487  0.33217  1.0000
  C   C260      1.0  0.50086  0.24374  0.32348  1.0000
  N   N56       1.0  0.51221  0.23391  0.31846  1.0000
  C   C261      1.0  0.53337  0.24440  0.32082  1.0000
  N   N57       1.0  0.54292  0.26535  0.33063  1.0000
  C   C262      1.0  0.47866  0.23232  0.32486  1.0000
  C   C263      1.0  0.46707  0.24256  0.33779  1.0000
  C   C264      1.0  0.44529  0.23132  0.34567  1.0000
  C   C265      1.0  0.43429  0.20937  0.34162  1.0000
  C   C266      1.0  0.44555  0.19904  0.32446  1.0000
  C   C267      1.0  0.46738  0.21034  0.31693  1.0000
  C   C268      1.0  0.54399  0.29789  0.34716  1.0000
  C   C269      1.0  0.53812  0.31113  0.30421  1.0000
  C   C270      1.0  0.55144  0.33290  0.30497  1.0000
  C   C271      1.0  0.57064  0.34210  0.35125  1.0000
  C   C272      1.0  0.57570  0.32878  0.39905  1.0000
  C   C273      1.0  0.56276  0.30711  0.39625  1.0000
  C   C274      1.0  0.54560  0.23452  0.31616  1.0000
  C   C275      1.0  0.56736  0.24657  0.30198  1.0000
  C   C276      1.0  0.57997  0.23747  0.30199  1.0000
  C   C277      1.0  0.57125  0.21592  0.31644  1.0000
  C   C278      1.0  0.54957  0.20358  0.32909  1.0000
  C   C279      1.0  0.53690  0.21278  0.32813  1.0000
  H   H157      1.0  0.54726  0.34195  0.26907  1.0000
  H   H158      1.0  0.52487  0.30500  0.26647  1.0000
  H   H159      1.0  0.58965  0.33455  0.43146  1.0000
  H   H160      1.0  0.56758  0.29810  0.42849  1.0000
  H   H161      1.0  0.57450  0.26231  0.29235  1.0000
  H   H162      1.0  0.59568  0.24685  0.29342  1.0000
  H   H163      1.0  0.52131  0.20349  0.33947  1.0000
  H   H164      1.0  0.54296  0.18796  0.34071  1.0000
  H   H165      1.0  0.47496  0.20217  0.30730  1.0000
  H   H166      1.0  0.43802  0.18315  0.32059  1.0000
  H   H167      1.0  0.43755  0.23932  0.35590  1.0000
  H   H168      1.0  0.47434  0.25840  0.34358  1.0000
  C   C280      1.0  0.71045  0.24302  0.33723  1.0000
  N   N58       1.0  0.72160  0.23310  0.33255  1.0000
  C   C281      1.0  0.74272  0.24365  0.32363  1.0000
  N   N59       1.0  0.75252  0.26483  0.31879  1.0000
  C   C282      1.0  0.74200  0.27546  0.32157  1.0000
  N   N60       1.0  0.72106  0.26404  0.33155  1.0000
  C   C283      1.0  0.75419  0.23292  0.32461  1.0000
  C   C284      1.0  0.74404  0.21113  0.33853  1.0000
  C   C285      1.0  0.75536  0.20067  0.34613  1.0000
  C   C286      1.0  0.77729  0.21165  0.34060  1.0000
  C   C287      1.0  0.78751  0.23319  0.32234  1.0000
  C   C288      1.0  0.77614  0.24365  0.31525  1.0000
  C   C289      1.0  0.68855  0.23253  0.34786  1.0000
  C   C290      1.0  0.67534  0.21345  0.30467  1.0000
  C   C291      1.0  0.65357  0.20497  0.30528  1.0000
  C   C292      1.0  0.64432  0.21493  0.35146  1.0000
  C   C293      1.0  0.65760  0.23331  0.39934  1.0000
  C   C294      1.0  0.67928  0.24205  0.39687  1.0000
  C   C295      1.0  0.75187  0.29758  0.31696  1.0000
  C   C296      1.0  0.73979  0.30729  0.30343  1.0000
  C   C297      1.0  0.74890  0.32899  0.30337  1.0000
  C   C298      1.0  0.77048  0.34183  0.31701  1.0000
  C   C299      1.0  0.78284  0.33249  0.32899  1.0000
  C   C300      1.0  0.77363  0.31062  0.32822  1.0000
  H   H169      1.0  0.64454  0.19173  0.26937  1.0000
  H   H170      1.0  0.68149  0.20631  0.26721  1.0000
  H   H171      1.0  0.65180  0.24148  0.43163  1.0000
  H   H172      1.0  0.68826  0.25588  0.42912  1.0000
  H   H173      1.0  0.72404  0.29869  0.29434  1.0000
  H   H174      1.0  0.73952  0.33534  0.29520  1.0000
  H   H175      1.0  0.78294  0.30432  0.33903  1.0000
  H   H176      1.0  0.79849  0.34150  0.34005  1.0000
  H   H177      1.0  0.78425  0.25938  0.30482  1.0000
  H   H178      1.0  0.80339  0.24157  0.31749  1.0000
  H   H179      1.0  0.74744  0.18496  0.35729  1.0000
  H   H180      1.0  0.72823  0.20255  0.34551  1.0000
  C   C301      1.0  0.18329  0.36451  0.35206  1.0000
  C   C302      1.0  0.18143  0.37541  0.42530  1.0000
  C   C303      1.0  0.19278  0.39739  0.42782  1.0000
  C   C304      1.0  0.20543  0.40794  0.35284  1.0000
  N   N61       1.0  0.19160  0.40732  0.50190  1.0000
  H   H181      1.0  0.18332  0.39955  0.55319  1.0000
  H   H182      1.0  0.20044  0.42223  0.50945  1.0000
  H   H183      1.0  0.17227  0.36730  0.47833  1.0000
  C   C305      1.0  0.62189  0.80565  0.35005  1.0000
  C   C306      1.0  0.61103  0.79350  0.42468  1.0000
  C   C307      1.0  0.58905  0.78292  0.42720  1.0000
  C   C308      1.0  0.57851  0.78443  0.35084  1.0000
  N   N62       1.0  0.57910  0.77242  0.50240  1.0000
  H   H184      1.0  0.58686  0.77233  0.55457  1.0000
  H   H185      1.0  0.56419  0.76639  0.50955  1.0000
  H   H186      1.0  0.61916  0.79283  0.47849  1.0000
  C   C309      1.0  0.18109  0.80312  0.35239  1.0000
  C   C310      1.0  0.19393  0.80504  0.42539  1.0000
  C   C311      1.0  0.20460  0.79373  0.42779  1.0000
  C   C312      1.0  0.20243  0.78102  0.35293  1.0000
  N   N63       1.0  0.21579  0.79498  0.50168  1.0000
  H   H187      1.0  0.21635  0.80330  0.55291  1.0000
  H   H188      1.0  0.22189  0.78616  0.50919  1.0000
  H   H189      1.0  0.19504  0.81424  0.47837  1.0000
  C   C313      1.0  0.80709  0.61739  0.34862  1.0000
  C   C314      1.0  0.80768  0.60656  0.42478  1.0000
  C   C315      1.0  0.79627  0.58459  0.42709  1.0000
  C   C316      1.0  0.78500  0.57407  0.34912  1.0000
  N   N64       1.0  0.79605  0.57459  0.50340  1.0000
  H   H190      1.0  0.80349  0.58230  0.55639  1.0000
  H   H191      1.0  0.78733  0.55963  0.50969  1.0000
  H   H192      1.0  0.81597  0.61472  0.47961  1.0000
  C   C317      1.0  0.36897  0.17678  0.35266  1.0000
  C   C318      1.0  0.37989  0.18969  0.42551  1.0000
  C   C319      1.0  0.40187  0.20036  0.42794  1.0000
  C   C320      1.0  0.41241  0.19811  0.35328  1.0000
  N   N65       1.0  0.41181  0.21163  0.50169  1.0000
  H   H193      1.0  0.40405  0.21223  0.55279  1.0000
  H   H194      1.0  0.42672  0.21773  0.50925  1.0000
  H   H195      1.0  0.37180  0.19083  0.47838  1.0000
  C   C321      1.0  0.80989  0.17897  0.35126  1.0000
  C   C322      1.0  0.79735  0.17731  0.42502  1.0000
  C   C323      1.0  0.78674  0.18867  0.42758  1.0000
  C   C324      1.0  0.78863  0.20112  0.35211  1.0000
  N   N66       1.0  0.77586  0.18773  0.50212  1.0000
  H   H196      1.0  0.77551  0.17961  0.55373  1.0000
  H   H197      1.0  0.76983  0.19660  0.50957  1.0000
  H   H198      1.0  0.79643  0.16827  0.47833  1.0000
  N   N67       1.0  0.17986  0.18563  0.37357  1.0000
  N   N68       1.0  0.19012  0.17559  0.37613  1.0000
  N   N69       1.0  0.80070  0.98072  0.37409  1.0000
  N   N70       1.0  0.81072  0.00103  0.37651  1.0000
  N   N71       1.0  0.00555  0.80640  0.37319  1.0000
  N   N72       1.0  0.98524  0.79611  0.37577  1.0000
  N   N73       1.0  0.81085  0.79619  0.37419  1.0000
  N   N74       1.0  0.80057  0.80622  0.37652  1.0000
  N   N75       1.0  0.19010  0.00118  0.37339  1.0000
  N   N76       1.0  0.18005  0.98087  0.37603  1.0000
  N   N77       1.0  0.98517  0.17543  0.37386  1.0000
  N   N78       1.0  0.00548  0.18571  0.37638  1.0000
  N   N79       1.0  0.21701  0.61232  0.40133  1.0000
  N   N80       1.0  0.21732  0.59501  0.41002  1.0000
  N   N81       1.0  0.37415  0.59111  0.40132  1.0000
  N   N82       1.0  0.39148  0.60872  0.41021  1.0000
  N   N83       1.0  0.39509  0.76930  0.40247  1.0000
  N   N84       1.0  0.37752  0.76909  0.41090  1.0000
  N   N85       1.0  0.77399  0.36968  0.40157  1.0000
  N   N86       1.0  0.77372  0.38701  0.41034  1.0000
  N   N87       1.0  0.61689  0.39069  0.40205  1.0000
  N   N88       1.0  0.59955  0.37308  0.41051  1.0000
  N   N89       1.0  0.59562  0.21251  0.40121  1.0000
  N   N90       1.0  0.61325  0.21283  0.41009  1.0000
