data_image0
_chemical_formula_structural       C2HC2H2NO2C2HC2H2NO2C2HC2H2NO2C2HC2H2NO2C2HC2H2NO2C2HC2H2NO2C8H3NO2C8H3NO2C8H3NO2C8H3NO2C8H3NO2C8H3NO2C8H3NO2C8H3NO2C8H3NO2C8H3NO2C8H3NO2C8H3NO2CNCNCNCNCNCNCNCNCNCNCNCNCNCNCNCNCNCNCNCNCNCNCNCNCNCNCNCNCNCNCNCNCNCNCNCNC8H3NO2C8H3NO2C8H3NO2C8H3NO2C8H3NO2C8H3NO2C2HC2H2NO2C2HC2H2NO2C2HC2H2NO2C2HC2H2NO2C2HC2H2NO2C2HC2H2NO2C2HC2H2NO2C2HC2H2NO2C2HC2H2NO2C2HC2H2NO2C2HC2H2NO2C2HC2H2NO2
_chemical_formula_sum              "C252 H108 N72 O72"
_cell_length_a       56.2799
_cell_length_b       56.2799
_cell_length_c       14.8843
_cell_angle_alpha    90
_cell_angle_beta     90
_cell_angle_gamma    120

_space_group_name_H-M_alt    "P 1"
_space_group_IT_number       1

loop_
  _space_group_symop_operation_xyz
  'x, y, z'

loop_
  _atom_site_type_symbol
  _atom_site_label
  _atom_site_symmetry_multiplicity
  _atom_site_fract_x
  _atom_site_fract_y
  _atom_site_fract_z
  _atom_site_occupancy
  C   C1        1.0  0.19541  0.42472  0.36934  1.0000
  C   C2        1.0  0.21077  0.45382  0.36492  1.0000
  H   H1        1.0  0.20183  0.46468  0.38746  1.0000
  C   C3        1.0  0.15267  0.33541  0.30117  1.0000
  C   C4        1.0  0.16742  0.36430  0.29933  1.0000
  H   H2        1.0  0.13430  0.32538  0.26803  1.0000
  H   H3        1.0  0.15925  0.37422  0.26456  1.0000
  N   N1        1.0  0.16849  0.41119  0.40523  1.0000
  O   O1        1.0  0.15270  0.41644  0.36057  1.0000
  O   O2        1.0  0.16822  0.41779  0.48572  1.0000
  C   C5        1.0  0.57922  0.76685  0.36936  1.0000
  C   C6        1.0  0.55012  0.75311  0.36494  1.0000
  H   H4        1.0  0.53926  0.73331  0.38752  1.0000
  C   C7        1.0  0.66853  0.81342  0.30119  1.0000
  C   C8        1.0  0.63964  0.79927  0.29936  1.0000
  H   H5        1.0  0.67856  0.80508  0.26807  1.0000
  H   H6        1.0  0.62973  0.78119  0.26460  1.0000
  N   N2        1.0  0.59274  0.75346  0.40529  1.0000
  O   O3        1.0  0.58750  0.73243  0.36066  1.0000
  O   O4        1.0  0.58615  0.74661  0.48579  1.0000
  C   C9        1.0  0.23710  0.80856  0.36934  1.0000
  C   C10       1.0  0.25083  0.79320  0.36492  1.0000
  H   H7        1.0  0.27064  0.80214  0.38747  1.0000
  C   C11       1.0  0.19052  0.85129  0.30116  1.0000
  C   C12       1.0  0.20466  0.83654  0.29932  1.0000
  H   H8        1.0  0.19885  0.86966  0.26800  1.0000
  H   H9        1.0  0.22274  0.84471  0.26454  1.0000
  N   N3        1.0  0.25049  0.83548  0.40521  1.0000
  O   O5        1.0  0.27152  0.85127  0.36054  1.0000
  O   O6        1.0  0.25735  0.83575  0.48571  1.0000
  C   C13       1.0  0.81242  0.57537  0.36934  1.0000
  C   C14       1.0  0.79706  0.54626  0.36492  1.0000
  H   H10       1.0  0.80600  0.53540  0.38746  1.0000
  C   C15       1.0  0.85515  0.66467  0.30116  1.0000
  C   C16       1.0  0.84040  0.63578  0.29932  1.0000
  H   H11       1.0  0.87351  0.67470  0.26800  1.0000
  H   H12       1.0  0.84857  0.62587  0.26454  1.0000
  N   N4        1.0  0.83934  0.58889  0.40521  1.0000
  O   O7        1.0  0.85513  0.58365  0.36054  1.0000
  O   O8        1.0  0.83961  0.58230  0.48570  1.0000
  C   C17       1.0  0.42860  0.23323  0.36934  1.0000
  C   C18       1.0  0.45770  0.24697  0.36492  1.0000
  H   H13       1.0  0.46856  0.26677  0.38748  1.0000
  C   C19       1.0  0.33929  0.18666  0.30118  1.0000
  C   C20       1.0  0.36818  0.20080  0.29934  1.0000
  H   H14       1.0  0.32926  0.19500  0.26804  1.0000
  H   H15       1.0  0.37809  0.21888  0.26457  1.0000
  N   N5        1.0  0.41507  0.24663  0.40524  1.0000
  O   O9        1.0  0.42031  0.26765  0.36059  1.0000
  O   O10       1.0  0.42167  0.25348  0.48573  1.0000
  C   C21       1.0  0.77072  0.19153  0.36934  1.0000
  C   C22       1.0  0.75699  0.20690  0.36492  1.0000
  H   H16       1.0  0.73718  0.19796  0.38750  1.0000
  C   C23       1.0  0.81729  0.14879  0.30118  1.0000
  C   C24       1.0  0.80314  0.16354  0.29934  1.0000
  H   H17       1.0  0.80895  0.13042  0.26806  1.0000
  H   H18       1.0  0.78506  0.15536  0.26460  1.0000
  N   N6        1.0  0.75733  0.16462  0.40527  1.0000
  O   O11       1.0  0.73629  0.14883  0.36065  1.0000
  O   O12       1.0  0.75048  0.16437  0.48577  1.0000
  C   C25       1.0  0.23755  0.16057  0.34876  1.0000
  C   C26       1.0  0.25004  0.18840  0.37511  1.0000
  C   C27       1.0  0.23528  0.20252  0.37551  1.0000
  C   C28       1.0  0.20755  0.18971  0.34746  1.0000
  C   C29       1.0  0.19344  0.20510  0.34711  1.0000
  C   C30       1.0  0.20354  0.23026  0.29942  1.0000
  C   C31       1.0  0.18890  0.24473  0.30228  1.0000
  C   C32       1.0  0.16381  0.23451  0.34924  1.0000
  H   H19       1.0  0.19636  0.26261  0.26661  1.0000
  H   H20       1.0  0.27002  0.19865  0.39620  1.0000
  H   H21       1.0  0.24509  0.22246  0.39708  1.0000
  N   N7        1.0  0.22763  0.24016  0.24673  1.0000
  O   O13       1.0  0.24591  0.26357  0.27189  1.0000
  O   O14       1.0  0.22277  0.24127  0.16491  1.0000
  C   C33       1.0  0.84339  0.07316  0.34876  1.0000
  C   C34       1.0  0.81555  0.05781  0.37505  1.0000
  C   C35       1.0  0.80142  0.02893  0.37544  1.0000
  C   C36       1.0  0.81424  0.01400  0.34745  1.0000
  C   C37       1.0  0.79884  0.98450  0.34709  1.0000
  C   C38       1.0  0.77370  0.96945  0.29935  1.0000
  C   C39       1.0  0.75923  0.94034  0.30221  1.0000
  C   C40       1.0  0.76943  0.92547  0.34921  1.0000
  H   H22       1.0  0.74135  0.92992  0.26650  1.0000
  H   H23       1.0  0.80529  0.06753  0.39609  1.0000
  H   H24       1.0  0.78148  0.01880  0.39697  1.0000
  N   N8        1.0  0.76382  0.98364  0.24661  1.0000
  O   O15       1.0  0.74039  0.97851  0.27170  1.0000
  O   O16       1.0  0.76271  0.97767  0.16479  1.0000
  C   C41       1.0  0.93078  0.76640  0.34874  1.0000
  C   C42       1.0  0.94613  0.75392  0.37511  1.0000
  C   C43       1.0  0.97502  0.76868  0.37551  1.0000
  C   C44       1.0  0.98994  0.79641  0.34743  1.0000
  C   C45       1.0  0.01944  0.81052  0.34708  1.0000
  C   C46       1.0  0.03449  0.80041  0.29942  1.0000
  C   C47       1.0  0.06361  0.81505  0.30227  1.0000
  C   C48       1.0  0.07847  0.84015  0.34920  1.0000
  H   H25       1.0  0.07402  0.80759  0.26663  1.0000
  H   H26       1.0  0.93641  0.73395  0.39622  1.0000
  H   H27       1.0  0.98514  0.75887  0.39711  1.0000
  N   N9        1.0  0.02030  0.77632  0.24676  1.0000
  O   O17       1.0  0.02544  0.75804  0.27196  1.0000
  O   O18       1.0  0.02628  0.78117  0.16493  1.0000
  C   C49       1.0  0.77026  0.83952  0.34876  1.0000
  C   C50       1.0  0.75778  0.81169  0.37515  1.0000
  C   C51       1.0  0.77254  0.79757  0.37554  1.0000
  C   C52       1.0  0.80027  0.81037  0.34744  1.0000
  C   C53       1.0  0.81437  0.79498  0.34709  1.0000
  C   C54       1.0  0.80426  0.76981  0.29944  1.0000
  C   C55       1.0  0.81891  0.75534  0.30230  1.0000
  C   C56       1.0  0.84400  0.76557  0.34921  1.0000
  H   H28       1.0  0.81144  0.73746  0.26666  1.0000
  H   H29       1.0  0.73781  0.80144  0.39627  1.0000
  H   H30       1.0  0.76273  0.77763  0.39715  1.0000
  N   N10       1.0  0.78017  0.75991  0.24680  1.0000
  O   O19       1.0  0.76189  0.73649  0.27201  1.0000
  O   O20       1.0  0.78501  0.75877  0.16497  1.0000
  C   C57       1.0  0.16442  0.92693  0.34876  1.0000
  C   C58       1.0  0.19226  0.94227  0.37510  1.0000
  C   C59       1.0  0.20638  0.97116  0.37550  1.0000
  C   C60       1.0  0.19358  0.98608  0.34745  1.0000
  C   C61       1.0  0.20897  0.01558  0.34710  1.0000
  C   C62       1.0  0.23412  0.03063  0.29941  1.0000
  C   C63       1.0  0.24860  0.05975  0.30227  1.0000
  C   C64       1.0  0.23838  0.07461  0.34924  1.0000
  H   H31       1.0  0.26648  0.07016  0.26660  1.0000
  H   H32       1.0  0.20251  0.93255  0.39618  1.0000
  H   H33       1.0  0.22632  0.98128  0.39707  1.0000
  N   N11       1.0  0.24402  0.01644  0.24671  1.0000
  O   O21       1.0  0.26744  0.02158  0.27187  1.0000
  O   O22       1.0  0.24514  0.02242  0.16489  1.0000
  C   C65       1.0  0.07703  0.23367  0.34877  1.0000
  C   C66       1.0  0.06168  0.24617  0.37507  1.0000
  C   C67       1.0  0.03280  0.23141  0.37547  1.0000
  C   C68       1.0  0.01787  0.20367  0.34746  1.0000
  C   C69       1.0  0.98837  0.18957  0.34711  1.0000
  C   C70       1.0  0.97332  0.19966  0.29938  1.0000
  C   C71       1.0  0.94421  0.18502  0.30223  1.0000
  C   C72       1.0  0.92934  0.15994  0.34922  1.0000
  H   H34       1.0  0.93379  0.19248  0.26654  1.0000
  H   H35       1.0  0.07140  0.26615  0.39613  1.0000
  H   H36       1.0  0.02267  0.24122  0.39702  1.0000
  N   N12       1.0  0.98751  0.22374  0.24666  1.0000
  O   O23       1.0  0.98238  0.24203  0.27178  1.0000
  O   O24       1.0  0.98153  0.21887  0.16484  1.0000
  C   C73       1.0  0.24440  0.55806  0.31332  1.0000
  C   C74       1.0  0.25744  0.58128  0.25663  1.0000
  C   C75       1.0  0.25011  0.60171  0.25845  1.0000
  C   C76       1.0  0.22953  0.59976  0.31740  1.0000
  C   C77       1.0  0.22695  0.62360  0.32791  1.0000
  C   C78       1.0  0.21976  0.63515  0.25516  1.0000
  C   C79       1.0  0.22431  0.66227  0.26224  1.0000
  C   C80       1.0  0.23644  0.67830  0.33967  1.0000
  H   H37       1.0  0.22105  0.67113  0.20705  1.0000
  H   H38       1.0  0.27343  0.58427  0.21623  1.0000
  H   H39       1.0  0.26128  0.61892  0.22021  1.0000
  N   N13       1.0  0.20947  0.61979  0.17500  1.0000
  O   O25       1.0  0.22492  0.63163  0.10919  1.0000
  O   O26       1.0  0.18591  0.61575  0.15721  1.0000
  C   C81       1.0  0.44585  0.68251  0.31342  1.0000
  C   C82       1.0  0.42263  0.67234  0.25675  1.0000
  C   C83       1.0  0.40221  0.64459  0.25854  1.0000
  C   C84       1.0  0.40417  0.62594  0.31738  1.0000
  C   C85       1.0  0.38034  0.59951  0.32784  1.0000
  C   C86       1.0  0.36879  0.58080  0.25502  1.0000
  C   C87       1.0  0.34167  0.55822  0.26206  1.0000
  C   C88       1.0  0.32568  0.55432  0.33956  1.0000
  H   H40       1.0  0.33280  0.54611  0.20684  1.0000
  H   H41       1.0  0.41963  0.68536  0.21644  1.0000
  H   H42       1.0  0.38498  0.63855  0.22035  1.0000
  N   N14       1.0  0.38414  0.58590  0.17484  1.0000
  O   O27       1.0  0.37230  0.58954  0.10909  1.0000
  O   O28       1.0  0.38819  0.56639  0.15693  1.0000
  C   C89       1.0  0.32144  0.75955  0.31339  1.0000
  C   C90       1.0  0.33162  0.74652  0.25669  1.0000
  C   C91       1.0  0.35937  0.75385  0.25849  1.0000
  C   C92       1.0  0.37802  0.77445  0.31738  1.0000
  C   C93       1.0  0.40444  0.77703  0.32787  1.0000
  C   C94       1.0  0.42317  0.78422  0.25508  1.0000
  C   C95       1.0  0.44574  0.77968  0.26213  1.0000
  C   C96       1.0  0.44964  0.76755  0.33956  1.0000
  H   H43       1.0  0.45786  0.78293  0.20692  1.0000
  H   H44       1.0  0.31861  0.73051  0.21633  1.0000
  H   H45       1.0  0.36542  0.74268  0.22025  1.0000
  N   N15       1.0  0.41809  0.79450  0.17493  1.0000
  O   O29       1.0  0.41446  0.77904  0.10913  1.0000
  O   O30       1.0  0.43759  0.81805  0.15711  1.0000
  C   C97       1.0  0.76341  0.44201  0.31337  1.0000
  C   C98       1.0  0.75038  0.41879  0.25667  1.0000
  C   C99       1.0  0.75771  0.39837  0.25846  1.0000
  C   C100      1.0  0.77831  0.40033  0.31736  1.0000
  C   C101      1.0  0.78090  0.37649  0.32784  1.0000
  C   C102      1.0  0.78809  0.36495  0.25506  1.0000
  C   C103      1.0  0.78354  0.33783  0.26210  1.0000
  C   C104      1.0  0.77142  0.32181  0.33953  1.0000
  H   H46       1.0  0.78679  0.32897  0.20689  1.0000
  H   H47       1.0  0.73437  0.41580  0.21632  1.0000
  H   H48       1.0  0.74654  0.38115  0.22023  1.0000
  N   N16       1.0  0.79836  0.38032  0.17490  1.0000
  O   O31       1.0  0.78290  0.36848  0.10910  1.0000
  O   O32       1.0  0.82192  0.38436  0.15707  1.0000
  C   C105      1.0  0.56194  0.31758  0.31332  1.0000
  C   C106      1.0  0.58516  0.32777  0.25665  1.0000
  C   C107      1.0  0.60559  0.35552  0.25847  1.0000
  C   C108      1.0  0.60364  0.37416  0.31741  1.0000
  C   C109      1.0  0.62748  0.40058  0.32792  1.0000
  C   C110      1.0  0.63903  0.41931  0.25515  1.0000
  C   C111      1.0  0.66615  0.44189  0.26220  1.0000
  C   C112      1.0  0.68215  0.44576  0.33967  1.0000
  H   H49       1.0  0.67502  0.45401  0.20702  1.0000
  H   H50       1.0  0.58815  0.31476  0.21626  1.0000
  H   H51       1.0  0.62281  0.36157  0.22023  1.0000
  N   N17       1.0  0.62367  0.41424  0.17500  1.0000
  O   O33       1.0  0.63550  0.41062  0.10918  1.0000
  O   O34       1.0  0.61963  0.43375  0.15720  1.0000
  C   C113      1.0  0.68638  0.24057  0.31341  1.0000
  C   C114      1.0  0.67621  0.25362  0.25673  1.0000
  C   C115      1.0  0.64846  0.24629  0.25853  1.0000
  C   C116      1.0  0.62981  0.22568  0.31738  1.0000
  C   C117      1.0  0.60339  0.22309  0.32786  1.0000
  C   C118      1.0  0.58467  0.21592  0.25505  1.0000
  C   C119      1.0  0.56209  0.22047  0.26209  1.0000
  C   C120      1.0  0.55820  0.23257  0.33958  1.0000
  H   H52       1.0  0.54998  0.21723  0.20688  1.0000
  H   H53       1.0  0.68923  0.26963  0.21640  1.0000
  H   H54       1.0  0.64242  0.25747  0.22032  1.0000
  N   N18       1.0  0.58976  0.20566  0.17488  1.0000
  O   O35       1.0  0.59340  0.22113  0.10911  1.0000
  O   O36       1.0  0.57025  0.18211  0.15700  1.0000
  C   C121      1.0  0.14902  0.24895  0.34917  1.0000
  N   N19       1.0  0.16233  0.27685  0.34698  1.0000
  C   C122      1.0  0.14873  0.29118  0.34569  1.0000
  N   N20       1.0  0.12079  0.27655  0.34623  1.0000
  C   C123      1.0  0.10638  0.24859  0.34855  1.0000
  N   N21       1.0  0.12110  0.23536  0.35009  1.0000
  C   C124      1.0  0.75499  0.89624  0.34914  1.0000
  N   N22       1.0  0.72709  0.88165  0.34696  1.0000
  C   C125      1.0  0.71276  0.85372  0.34567  1.0000
  N   N23       1.0  0.72739  0.84040  0.34622  1.0000
  C   C126      1.0  0.75535  0.85396  0.34854  1.0000
  N   N24       1.0  0.76858  0.88190  0.35007  1.0000
  C   C127      1.0  0.10770  0.85494  0.34914  1.0000
  N   N25       1.0  0.12230  0.84163  0.34696  1.0000
  C   C128      1.0  0.15022  0.85523  0.34567  1.0000
  N   N26       1.0  0.16354  0.88317  0.34622  1.0000
  C   C129      1.0  0.14999  0.89758  0.34853  1.0000
  N   N27       1.0  0.12204  0.88286  0.35007  1.0000
  C   C130      1.0  0.85879  0.75113  0.34914  1.0000
  N   N28       1.0  0.84548  0.72323  0.34696  1.0000
  C   C131      1.0  0.85908  0.70890  0.34567  1.0000
  N   N29       1.0  0.88702  0.72352  0.34621  1.0000
  C   C132      1.0  0.90143  0.75149  0.34852  1.0000
  N   N30       1.0  0.88671  0.76472  0.35006  1.0000
  C   C133      1.0  0.25283  0.10384  0.34916  1.0000
  N   N31       1.0  0.28073  0.11844  0.34698  1.0000
  C   C134      1.0  0.29506  0.14637  0.34569  1.0000
  N   N32       1.0  0.28043  0.15968  0.34623  1.0000
  C   C135      1.0  0.25247  0.14613  0.34854  1.0000
  N   N33       1.0  0.23924  0.11818  0.35009  1.0000
  C   C136      1.0  0.90011  0.14515  0.34915  1.0000
  N   N34       1.0  0.88552  0.15846  0.34696  1.0000
  C   C137      1.0  0.85759  0.14486  0.34567  1.0000
  N   N35       1.0  0.84427  0.11692  0.34622  1.0000
  C   C138      1.0  0.85782  0.10251  0.34854  1.0000
  N   N36       1.0  0.88577  0.11723  0.35009  1.0000
  C   C139      1.0  0.29682  0.53871  0.33433  1.0000
  N   N37       1.0  0.28177  0.51087  0.33527  1.0000
  C   C140      1.0  0.25373  0.49739  0.33195  1.0000
  N   N38       1.0  0.24111  0.51277  0.32629  1.0000
  C   C141      1.0  0.25580  0.54068  0.32213  1.0000
  N   N39       1.0  0.28347  0.55298  0.32704  1.0000
  C   C142      1.0  0.46524  0.75429  0.33439  1.0000
  N   N40       1.0  0.49308  0.76707  0.33529  1.0000
  C   C143      1.0  0.50655  0.75250  0.33196  1.0000
  N   N41       1.0  0.49116  0.72450  0.32635  1.0000
  C   C144      1.0  0.46324  0.71128  0.32221  1.0000
  N   N42       1.0  0.45096  0.72667  0.32712  1.0000
  C   C145      1.0  0.24968  0.70715  0.33445  1.0000
  N   N43       1.0  0.23689  0.72220  0.33534  1.0000
  C   C146      1.0  0.25145  0.75024  0.33199  1.0000
  N   N44       1.0  0.27945  0.76286  0.32634  1.0000
  C   C147      1.0  0.29267  0.74817  0.32221  1.0000
  N   N45       1.0  0.27730  0.72049  0.32716  1.0000
  C   C148      1.0  0.71100  0.46137  0.33445  1.0000
  N   N46       1.0  0.72606  0.48921  0.33534  1.0000
  C   C149      1.0  0.75410  0.50269  0.33198  1.0000
  N   N47       1.0  0.76672  0.48730  0.32632  1.0000
  C   C150      1.0  0.75203  0.45939  0.32219  1.0000
  N   N48       1.0  0.72435  0.44709  0.32713  1.0000
  C   C151      1.0  0.54259  0.24582  0.33435  1.0000
  N   N49       1.0  0.51475  0.23303  0.33529  1.0000
  C   C152      1.0  0.50127  0.24759  0.33196  1.0000
  N   N50       1.0  0.51665  0.27559  0.32630  1.0000
  C   C153      1.0  0.54456  0.28881  0.32214  1.0000
  N   N51       1.0  0.55687  0.27344  0.32706  1.0000
  C   C154      1.0  0.75816  0.29296  0.33437  1.0000
  N   N52       1.0  0.77094  0.27790  0.33527  1.0000
  C   C155      1.0  0.75637  0.24985  0.33195  1.0000
  N   N53       1.0  0.72837  0.23725  0.32632  1.0000
  C   C156      1.0  0.71515  0.25194  0.32219  1.0000
  N   N54       1.0  0.73054  0.27962  0.32710  1.0000
  C   C157      1.0  0.23822  0.46808  0.33390  1.0000
  C   C158      1.0  0.24981  0.45212  0.30518  1.0000
  C   C159      1.0  0.23463  0.42327  0.30713  1.0000
  C   C160      1.0  0.20741  0.40899  0.34023  1.0000
  C   C161      1.0  0.19304  0.37949  0.34333  1.0000
  C   C162      1.0  0.20382  0.36467  0.38870  1.0000
  C   C163      1.0  0.18910  0.33554  0.38763  1.0000
  C   C164      1.0  0.16335  0.32043  0.34463  1.0000
  H   H55       1.0  0.19713  0.32532  0.42143  1.0000
  H   H56       1.0  0.26940  0.46136  0.28056  1.0000
  H   H57       1.0  0.24378  0.41269  0.28373  1.0000
  N   N55       1.0  0.22874  0.37908  0.43715  1.0000
  O   O37       1.0  0.24654  0.37372  0.40833  1.0000
  O   O38       1.0  0.22522  0.37358  0.51959  1.0000
  C   C165      1.0  0.53586  0.76630  0.33390  1.0000
  C   C166      1.0  0.55182  0.79384  0.30513  1.0000
  C   C167      1.0  0.58067  0.80751  0.30708  1.0000
  C   C168      1.0  0.59495  0.79458  0.34022  1.0000
  C   C169      1.0  0.62445  0.80971  0.34332  1.0000
  C   C170      1.0  0.63927  0.83532  0.38866  1.0000
  C   C171      1.0  0.66839  0.84972  0.38759  1.0000
  C   C172      1.0  0.68351  0.83908  0.34461  1.0000
  H   H58       1.0  0.67861  0.86798  0.42136  1.0000
  H   H59       1.0  0.54259  0.80420  0.28048  1.0000
  H   H60       1.0  0.59125  0.82724  0.28366  1.0000
  N   N56       1.0  0.62485  0.84583  0.43709  1.0000
  O   O39       1.0  0.63021  0.86898  0.40823  1.0000
  O   O40       1.0  0.63036  0.84782  0.51952  1.0000
  C   C173      1.0  0.23765  0.76575  0.33392  1.0000
  C   C174      1.0  0.21010  0.75416  0.30521  1.0000
  C   C175      1.0  0.19643  0.76934  0.30716  1.0000
  C   C176      1.0  0.20936  0.79656  0.34025  1.0000
  C   C177      1.0  0.19423  0.81092  0.34334  1.0000
  C   C178      1.0  0.16863  0.80015  0.38872  1.0000
  C   C179      1.0  0.15423  0.81486  0.38764  1.0000
  C   C180      1.0  0.16486  0.84061  0.34463  1.0000
  H   H61       1.0  0.13598  0.80683  0.42145  1.0000
  H   H62       1.0  0.19974  0.73457  0.28061  1.0000
  H   H63       1.0  0.17670  0.76018  0.28377  1.0000
  N   N57       1.0  0.15813  0.77523  0.43719  1.0000
  O   O41       1.0  0.13498  0.75743  0.40839  1.0000
  O   O42       1.0  0.15615  0.77875  0.51963  1.0000
  C   C181      1.0  0.76961  0.53200  0.33392  1.0000
  C   C182      1.0  0.75802  0.54796  0.30521  1.0000
  C   C183      1.0  0.77319  0.57681  0.30716  1.0000
  C   C184      1.0  0.80041  0.59109  0.34025  1.0000
  C   C185      1.0  0.81478  0.62059  0.34334  1.0000
  C   C186      1.0  0.80401  0.63541  0.38872  1.0000
  C   C187      1.0  0.81872  0.66453  0.38764  1.0000
  C   C188      1.0  0.84447  0.67965  0.34463  1.0000
  H   H64       1.0  0.81069  0.67475  0.42144  1.0000
  H   H65       1.0  0.73842  0.53872  0.28061  1.0000
  H   H66       1.0  0.76404  0.58738  0.28377  1.0000
  N   N58       1.0  0.77908  0.62099  0.43719  1.0000
  O   O43       1.0  0.76129  0.62635  0.40838  1.0000
  O   O44       1.0  0.78261  0.62650  0.51962  1.0000
  C   C189      1.0  0.47196  0.23378  0.33391  1.0000
  C   C190      1.0  0.45600  0.20624  0.30518  1.0000
  C   C191      1.0  0.42715  0.19256  0.30713  1.0000
  C   C192      1.0  0.41287  0.20550  0.34024  1.0000
  C   C193      1.0  0.38337  0.19037  0.34333  1.0000
  C   C194      1.0  0.36855  0.16477  0.38869  1.0000
  C   C195      1.0  0.33943  0.15036  0.38762  1.0000
  C   C196      1.0  0.32431  0.16100  0.34463  1.0000
  H   H67       1.0  0.32921  0.13211  0.42141  1.0000
  H   H68       1.0  0.46524  0.19588  0.28056  1.0000
  H   H69       1.0  0.41658  0.17284  0.28373  1.0000
  N   N59       1.0  0.38296  0.15426  0.43715  1.0000
  O   O45       1.0  0.37760  0.13111  0.40832  1.0000
  O   O46       1.0  0.37746  0.15228  0.51958  1.0000
  C   C197      1.0  0.77017  0.23434  0.33388  1.0000
  C   C198      1.0  0.79771  0.24592  0.30511  1.0000
  C   C199      1.0  0.81138  0.23075  0.30706  1.0000
  C   C200      1.0  0.79845  0.20353  0.34021  1.0000
  C   C201      1.0  0.81357  0.18916  0.34331  1.0000
  C   C202      1.0  0.83918  0.19995  0.38865  1.0000
  C   C203      1.0  0.85359  0.18523  0.38758  1.0000
  C   C204      1.0  0.84295  0.15948  0.34461  1.0000
  H   H70       1.0  0.87185  0.19327  0.42135  1.0000
  H   H71       1.0  0.80807  0.26551  0.28047  1.0000
  H   H72       1.0  0.83111  0.23989  0.28364  1.0000
  N   N60       1.0  0.84969  0.22488  0.43708  1.0000
  O   O47       1.0  0.87284  0.24267  0.40822  1.0000
  O   O48       1.0  0.85169  0.22137  0.51952  1.0000
  C   C205      1.0  0.19467  0.16173  0.32047  1.0000
  C   C206      1.0  0.20967  0.14762  0.32225  1.0000
  H   H73       1.0  0.20002  0.12761  0.30143  1.0000
  C   C207      1.0  0.15382  0.20933  0.39527  1.0000
  C   C208      1.0  0.16859  0.19521  0.39549  1.0000
  H   H74       1.0  0.13596  0.20133  0.43123  1.0000
  H   H75       1.0  0.16092  0.17746  0.43189  1.0000
  N   N61       1.0  0.16720  0.14841  0.28941  1.0000
  O   O49       1.0  0.15194  0.12786  0.33688  1.0000
  O   O50       1.0  0.16547  0.14081  0.20911  1.0000
  C   C209      1.0  0.84222  0.02910  0.32053  1.0000
  C   C210      1.0  0.85634  0.05822  0.32232  1.0000
  H   H76       1.0  0.87635  0.06857  0.30154  1.0000
  C   C211      1.0  0.79460  0.94066  0.39530  1.0000
  C   C212      1.0  0.80872  0.96954  0.39552  1.0000
  H   H77       1.0  0.80259  0.93079  0.43129  1.0000
  H   H78       1.0  0.82647  0.97963  0.43197  1.0000
  N   N62       1.0  0.85555  0.01495  0.28953  1.0000
  O   O51       1.0  0.87609  0.02024  0.33707  1.0000
  O   O52       1.0  0.86317  0.02082  0.20926  1.0000
  C   C213      1.0  0.97484  0.80928  0.32041  1.0000
  C   C214      1.0  0.94572  0.79428  0.32219  1.0000
  H   H79       1.0  0.93537  0.80394  0.30135  1.0000
  C   C215      1.0  0.06328  0.85014  0.39522  1.0000
  C   C216      1.0  0.03440  0.83538  0.39542  1.0000
  H   H80       1.0  0.07315  0.86801  0.43115  1.0000
  H   H81       1.0  0.02431  0.84304  0.43182  1.0000
  N   N63       1.0  0.98899  0.83676  0.28931  1.0000
  O   O53       1.0  0.98370  0.85202  0.33675  1.0000
  O   O54       1.0  0.98312  0.83847  0.20901  1.0000
  C   C217      1.0  0.81314  0.83834  0.32040  1.0000
  C   C218      1.0  0.79814  0.85246  0.32219  1.0000
  H   H82       1.0  0.80779  0.87246  0.30133  1.0000
  C   C219      1.0  0.85399  0.79075  0.39521  1.0000
  C   C220      1.0  0.83924  0.80488  0.39542  1.0000
  H   H83       1.0  0.87187  0.79876  0.43113  1.0000
  H   H84       1.0  0.84691  0.82264  0.43181  1.0000
  N   N64       1.0  0.84061  0.85167  0.28929  1.0000
  O   O55       1.0  0.85587  0.87222  0.33671  1.0000
  O   O56       1.0  0.84232  0.85924  0.20899  1.0000
  C   C221      1.0  0.16560  0.97098  0.32046  1.0000
  C   C222      1.0  0.15148  0.94186  0.32225  1.0000
  H   H85       1.0  0.13147  0.93152  0.30143  1.0000
  C   C223      1.0  0.21321  0.05943  0.39527  1.0000
  C   C224      1.0  0.19908  0.03054  0.39548  1.0000
  H   H86       1.0  0.20521  0.06930  0.43123  1.0000
  H   H87       1.0  0.18133  0.02046  0.43189  1.0000
  N   N65       1.0  0.15227  0.98514  0.28941  1.0000
  O   O57       1.0  0.13173  0.97985  0.33688  1.0000
  O   O58       1.0  0.14468  0.97927  0.20911  1.0000
  C   C225      1.0  0.03297  0.19079  0.32051  1.0000
  C   C226      1.0  0.06209  0.20579  0.32230  1.0000
  H   H88       1.0  0.07244  0.19613  0.30151  1.0000
  C   C227      1.0  0.94453  0.14996  0.39530  1.0000
  C   C228      1.0  0.97341  0.16472  0.39551  1.0000
  H   H89       1.0  0.93466  0.13210  0.43127  1.0000
  H   H90       1.0  0.98350  0.15706  0.43195  1.0000
  N   N66       1.0  0.01882  0.16331  0.28950  1.0000
  O   O59       1.0  0.02411  0.14806  0.33701  1.0000
  O   O60       1.0  0.02469  0.16157  0.20922  1.0000
  C   C229      1.0  0.21567  0.57620  0.37315  1.0000
  C   C230      1.0  0.22288  0.55534  0.36919  1.0000
  H   H91       1.0  0.21371  0.53912  0.41267  1.0000
  C   C231      1.0  0.24278  0.66631  0.41236  1.0000
  C   C232      1.0  0.23781  0.63928  0.40704  1.0000
  H   H92       1.0  0.25310  0.67790  0.46718  1.0000
  H   H93       1.0  0.24478  0.63221  0.45826  1.0000
  N   N67       1.0  0.19541  0.57445  0.43338  1.0000
  O   O61       1.0  0.20176  0.57334  0.51360  1.0000
  O   O62       1.0  0.17248  0.55373  0.41725  1.0000
  C   C233      1.0  0.42775  0.63563  0.37303  1.0000
  C   C234      1.0  0.44860  0.66370  0.36913  1.0000
  H   H94       1.0  0.46484  0.67074  0.41254  1.0000
  C   C235      1.0  0.33764  0.57260  0.41236  1.0000
  C   C236      1.0  0.36466  0.59467  0.40701  1.0000
  H   H95       1.0  0.32605  0.57131  0.46720  1.0000
  H   H96       1.0  0.37174  0.60869  0.45827  1.0000
  N   N68       1.0  0.42952  0.61709  0.43313  1.0000
  O   O63       1.0  0.43065  0.62453  0.51339  1.0000
  O   O64       1.0  0.45023  0.61490  0.41684  1.0000
  C   C237      1.0  0.36832  0.78831  0.37310  1.0000
  C   C238      1.0  0.34025  0.78110  0.36918  1.0000
  H   H97       1.0  0.33320  0.79028  0.41264  1.0000
  C   C239      1.0  0.43133  0.76121  0.41230  1.0000
  C   C240      1.0  0.40927  0.76617  0.40699  1.0000
  H   H98       1.0  0.43261  0.75089  0.46712  1.0000
  H   H99       1.0  0.39524  0.75921  0.45822  1.0000
  N   N69       1.0  0.38685  0.80859  0.43327  1.0000
  O   O65       1.0  0.37940  0.80226  0.51352  1.0000
  O   O66       1.0  0.38904  0.83151  0.41709  1.0000
  C   C241      1.0  0.79217  0.42389  0.37307  1.0000
  C   C242      1.0  0.78496  0.44475  0.36916  1.0000
  H   H100      1.0  0.79414  0.46097  0.41262  1.0000
  C   C243      1.0  0.76508  0.33378  0.41228  1.0000
  C   C244      1.0  0.77004  0.36081  0.40697  1.0000
  H   H101      1.0  0.75477  0.32219  0.46710  1.0000
  H   H102      1.0  0.76308  0.36788  0.45820  1.0000
  N   N70       1.0  0.81246  0.42565  0.43324  1.0000
  O   O67       1.0  0.80613  0.42676  0.51348  1.0000
  O   O68       1.0  0.83538  0.44637  0.41705  1.0000
  C   C245      1.0  0.58008  0.36446  0.37314  1.0000
  C   C246      1.0  0.55922  0.33639  0.36919  1.0000
  H   H103      1.0  0.54300  0.32934  0.41266  1.0000
  C   C247      1.0  0.67019  0.42746  0.41242  1.0000
  C   C248      1.0  0.64316  0.40539  0.40706  1.0000
  H   H104      1.0  0.68178  0.42873  0.46723  1.0000
  H   H105      1.0  0.63609  0.39136  0.45827  1.0000
  N   N71       1.0  0.57833  0.38297  0.43336  1.0000
  O   O69       1.0  0.57722  0.37552  0.51359  1.0000
  O   O70       1.0  0.55761  0.38518  0.41722  1.0000
  C   C249      1.0  0.63950  0.21180  0.37305  1.0000
  C   C250      1.0  0.66757  0.21901  0.36914  1.0000
  H   H106      1.0  0.67461  0.20982  0.41257  1.0000
  C   C251      1.0  0.57649  0.23890  0.41237  1.0000
  C   C252      1.0  0.59855  0.23393  0.40702  1.0000
  H   H107      1.0  0.57520  0.24920  0.46720  1.0000
  H   H108      1.0  0.61258  0.24088  0.45826  1.0000
  N   N72       1.0  0.62097  0.19150  0.43317  1.0000
  O   O71       1.0  0.62840  0.19781  0.51343  1.0000
  O   O72       1.0  0.61877  0.16859  0.41692  1.0000
