data_image0
_chemical_formula_structural       C6H4C4HNH2C5H2C19H12C2H2CHNH2C6H4C4HNH2C5H2C19H12C2H2CHNH2C6H4C4HNH2C5H2C19H12C2H2CHNH2C6H4C4HNH2C5H2C19H12C2H2CHNH2C6H4C4HNH2C5H2C19H12C2H2CHNH2C6H4C4HNH2C5H2C19H12C2H2CHNH2C6H4C4HNH2C5H2C19H12C2H2CHNH2C6H4C4HNH2C5H2C19H12C2H2CHNH2C6H4C4HNH2C5H2C19H12C2H2CHNH2
_chemical_formula_sum              "C333 H234 N18"
_cell_length_a       36.5261
_cell_length_b       36.5268
_cell_length_c       15.1026
_cell_angle_alpha    90
_cell_angle_beta     90
_cell_angle_gamma    90.0697

_space_group_name_H-M_alt    "P 1"
_space_group_IT_number       1

loop_
  _space_group_symop_operation_xyz
  'x, y, z'

loop_
  _atom_site_type_symbol
  _atom_site_label
  _atom_site_symmetry_multiplicity
  _atom_site_fract_x
  _atom_site_fract_y
  _atom_site_fract_z
  _atom_site_occupancy
  C   C1        1.0  0.06843  0.03029  0.05751  1.0000
  C   C2        1.0  0.08470  0.33047  0.08491  1.0000
  C   C3        1.0  0.06839  0.29714  0.05838  1.0000
  C   C4        1.0  0.25508  0.29718  0.04735  1.0000
  C   C5        1.0  0.23836  0.99729  0.07057  1.0000
  C   C6        1.0  0.25522  0.03056  0.04633  1.0000
  H   H1        1.0  0.08064  0.05482  0.07237  1.0000
  H   H2        1.0  0.08072  0.27268  0.07296  1.0000
  H   H3        1.0  0.24233  0.27278  0.06053  1.0000
  H   H4        1.0  0.24251  0.05503  0.05865  1.0000
  C   C7        1.0  0.99794  0.20151  0.35582  1.0000
  C   C8        1.0  0.99801  0.18270  0.27418  1.0000
  C   C9        1.0  0.33142  0.14384  0.27145  1.0000
  C   C10       1.0  0.33145  0.12441  0.35315  1.0000
  H   H5        1.0  0.99807  0.19744  0.21651  1.0000
  N   N1        1.0  0.33149  0.12640  0.19194  1.0000
  H   H6        1.0  0.33143  0.14005  0.13659  1.0000
  H   H7        1.0  0.33150  0.09984  0.18778  1.0000
  C   C11       1.0  0.18252  0.99726  0.15954  1.0000
  C   C12       1.0  0.14406  0.99722  0.16505  1.0000
  C   C13       1.0  0.12314  0.99706  0.08680  1.0000
  C   C14       1.0  0.14082  0.99694  0.00368  1.0000
  C   C15       1.0  0.19997  0.99715  0.07598  1.0000
  H   H8        1.0  0.19761  0.99740  0.21667  1.0000
  H   H9        1.0  0.13156  0.99734  0.22568  1.0000
  C   C16       1.0  0.33126  0.23983  0.36411  1.0000
  C   C17       1.0  0.29791  0.25617  0.38954  1.0000
  C   C18       1.0  0.29786  0.28520  0.45035  1.0000
  C   C19       1.0  0.33081  0.29838  0.48894  1.0000
  C   C20       1.0  0.03077  0.28503  0.45278  1.0000
  C   C21       1.0  0.03113  0.25584  0.39240  1.0000
  C   C22       1.0  0.33054  0.99669  0.55429  1.0000
  C   C23       1.0  0.33098  0.02799  0.48801  1.0000
  C   C24       1.0  0.03102  0.04123  0.45184  1.0000
  C   C25       1.0  0.03152  0.07013  0.39067  1.0000
  C   C26       1.0  0.33170  0.08599  0.36207  1.0000
  C   C27       1.0  0.29824  0.06971  0.38731  1.0000
  C   C28       1.0  0.29809  0.04090  0.44872  1.0000
  C   C29       1.0  0.29869  0.99691  0.61892  1.0000
  C   C30       1.0  0.02806  0.33018  0.62173  1.0000
  C   C31       1.0  0.04050  0.03003  0.66047  1.0000
  C   C32       1.0  0.04057  0.29716  0.66097  1.0000
  C   C33       1.0  0.28516  0.29720  0.65633  1.0000
  C   C34       1.0  0.28522  0.03018  0.65511  1.0000
  H   H10       1.0  0.03107  0.05470  0.63821  1.0000
  H   H11       1.0  0.03118  0.27239  0.63908  1.0000
  H   H12       1.0  0.29507  0.27243  0.63602  1.0000
  H   H13       1.0  0.29523  0.05482  0.63402  1.0000
  H   H14       1.0  0.27326  0.03115  0.46908  1.0000
  H   H15       1.0  0.27383  0.08193  0.37182  1.0000
  H   H16       1.0  0.05604  0.08252  0.37679  1.0000
  H   H17       1.0  0.05559  0.03165  0.47438  1.0000
  H   H18       1.0  0.05539  0.29470  0.47491  1.0000
  H   H19       1.0  0.27306  0.29506  0.47055  1.0000
  H   H20       1.0  0.27346  0.24387  0.37452  1.0000
  H   H21       1.0  0.05566  0.24350  0.37863  1.0000
  C   C35       1.0  0.33111  0.14362  0.43442  1.0000
  C   C36       1.0  0.99766  0.18165  0.43579  1.0000
  H   H22       1.0  0.33101  0.13011  0.49400  1.0000
  H   H23       1.0  0.99748  0.19465  0.49599  1.0000
  C   C37       1.0  0.17910  0.99699  0.66284  1.0000
  H   H24       1.0  0.12537  0.99685  0.61353  1.0000
  N   N2        1.0  0.19349  0.99688  0.57941  1.0000
  H   H25       1.0  0.17791  0.99677  0.52706  1.0000
  H   H26       1.0  0.21957  0.99688  0.56853  1.0000
  C   C38       1.0  0.06843  0.36363  0.05751  1.0000
  C   C39       1.0  0.08470  0.66380  0.08491  1.0000
  C   C40       1.0  0.06839  0.63047  0.05838  1.0000
  C   C41       1.0  0.25508  0.63051  0.04735  1.0000
  C   C42       1.0  0.23836  0.33063  0.07057  1.0000
  C   C43       1.0  0.25522  0.36389  0.04633  1.0000
  H   H27       1.0  0.08064  0.38815  0.07237  1.0000
  H   H28       1.0  0.08072  0.60601  0.07296  1.0000
  H   H29       1.0  0.24233  0.60611  0.06053  1.0000
  H   H30       1.0  0.24251  0.38836  0.05865  1.0000
  C   C44       1.0  0.99794  0.53484  0.35582  1.0000
  C   C45       1.0  0.99801  0.51604  0.27418  1.0000
  C   C46       1.0  0.33142  0.47717  0.27145  1.0000
  C   C47       1.0  0.33145  0.45775  0.35315  1.0000
  H   H31       1.0  0.99807  0.53078  0.21651  1.0000
  N   N3        1.0  0.33149  0.45973  0.19194  1.0000
  H   H32       1.0  0.33143  0.47338  0.13659  1.0000
  H   H33       1.0  0.33150  0.43317  0.18778  1.0000
  C   C48       1.0  0.18252  0.33059  0.15954  1.0000
  C   C49       1.0  0.14406  0.33055  0.16505  1.0000
  C   C50       1.0  0.12314  0.33039  0.08680  1.0000
  C   C51       1.0  0.14082  0.33028  0.00368  1.0000
  C   C52       1.0  0.19998  0.33048  0.07598  1.0000
  H   H34       1.0  0.19761  0.33074  0.21667  1.0000
  H   H35       1.0  0.13156  0.33067  0.22568  1.0000
  C   C53       1.0  0.33126  0.57316  0.36411  1.0000
  C   C54       1.0  0.29791  0.58950  0.38954  1.0000
  C   C55       1.0  0.29786  0.61853  0.45035  1.0000
  C   C56       1.0  0.33081  0.63171  0.48894  1.0000
  C   C57       1.0  0.03077  0.61836  0.45278  1.0000
  C   C58       1.0  0.03113  0.58917  0.39240  1.0000
  C   C59       1.0  0.33054  0.33002  0.55429  1.0000
  C   C60       1.0  0.33098  0.36132  0.48801  1.0000
  C   C61       1.0  0.03102  0.37457  0.45184  1.0000
  C   C62       1.0  0.03152  0.40346  0.39067  1.0000
  C   C63       1.0  0.33170  0.41933  0.36207  1.0000
  C   C64       1.0  0.29824  0.40305  0.38731  1.0000
  C   C65       1.0  0.29809  0.37424  0.44872  1.0000
  C   C66       1.0  0.29869  0.33024  0.61892  1.0000
  C   C67       1.0  0.02806  0.66352  0.62173  1.0000
  C   C68       1.0  0.04050  0.36337  0.66047  1.0000
  C   C69       1.0  0.04057  0.63049  0.66097  1.0000
  C   C70       1.0  0.28516  0.63053  0.65633  1.0000
  C   C71       1.0  0.28523  0.36351  0.65511  1.0000
  H   H36       1.0  0.03107  0.38804  0.63821  1.0000
  H   H37       1.0  0.03118  0.60573  0.63908  1.0000
  H   H38       1.0  0.29507  0.60576  0.63602  1.0000
  H   H39       1.0  0.29523  0.38815  0.63402  1.0000
  H   H40       1.0  0.27326  0.36448  0.46908  1.0000
  H   H41       1.0  0.27383  0.41526  0.37182  1.0000
  H   H42       1.0  0.05604  0.41585  0.37679  1.0000
  H   H43       1.0  0.05559  0.36498  0.47438  1.0000
  H   H44       1.0  0.05539  0.62804  0.47491  1.0000
  H   H45       1.0  0.27306  0.62839  0.47055  1.0000
  H   H46       1.0  0.27346  0.57720  0.37452  1.0000
  H   H47       1.0  0.05566  0.57683  0.37863  1.0000
  C   C72       1.0  0.33111  0.47695  0.43442  1.0000
  C   C73       1.0  0.99766  0.51498  0.43579  1.0000
  H   H48       1.0  0.33101  0.46344  0.49400  1.0000
  H   H49       1.0  0.99748  0.52798  0.49599  1.0000
  C   C74       1.0  0.17910  0.33032  0.66284  1.0000
  H   H50       1.0  0.12537  0.33018  0.61353  1.0000
  N   N4        1.0  0.19349  0.33022  0.57941  1.0000
  H   H51       1.0  0.17791  0.33010  0.52706  1.0000
  H   H52       1.0  0.21957  0.33022  0.56853  1.0000
  C   C75       1.0  0.06843  0.69696  0.05751  1.0000
  C   C76       1.0  0.08470  0.99713  0.08491  1.0000
  C   C77       1.0  0.06839  0.96381  0.05838  1.0000
  C   C78       1.0  0.25508  0.96384  0.04735  1.0000
  C   C79       1.0  0.23836  0.66396  0.07057  1.0000
  C   C80       1.0  0.25522  0.69723  0.04633  1.0000
  H   H53       1.0  0.08064  0.72149  0.07237  1.0000
  H   H54       1.0  0.08072  0.93935  0.07296  1.0000
  H   H55       1.0  0.24233  0.93944  0.06053  1.0000
  H   H56       1.0  0.24251  0.72169  0.05865  1.0000
  C   C81       1.0  0.99794  0.86818  0.35582  1.0000
  C   C82       1.0  0.99801  0.84937  0.27418  1.0000
  C   C83       1.0  0.33142  0.81050  0.27145  1.0000
  C   C84       1.0  0.33145  0.79108  0.35315  1.0000
  H   H57       1.0  0.99807  0.86411  0.21651  1.0000
  N   N5        1.0  0.33149  0.79307  0.19194  1.0000
  H   H58       1.0  0.33143  0.80672  0.13659  1.0000
  H   H59       1.0  0.33150  0.76651  0.18778  1.0000
  C   C85       1.0  0.18252  0.66393  0.15954  1.0000
  C   C86       1.0  0.14406  0.66388  0.16505  1.0000
  C   C87       1.0  0.12314  0.66372  0.08680  1.0000
  C   C88       1.0  0.14082  0.66361  0.00368  1.0000
  C   C89       1.0  0.19998  0.66382  0.07598  1.0000
  H   H60       1.0  0.19761  0.66407  0.21667  1.0000
  H   H61       1.0  0.13156  0.66400  0.22568  1.0000
  C   C90       1.0  0.33126  0.90650  0.36411  1.0000
  C   C91       1.0  0.29792  0.92284  0.38954  1.0000
  C   C92       1.0  0.29786  0.95186  0.45035  1.0000
  C   C93       1.0  0.33081  0.96505  0.48894  1.0000
  C   C94       1.0  0.03077  0.95169  0.45278  1.0000
  C   C95       1.0  0.03113  0.92251  0.39240  1.0000
  C   C96       1.0  0.33054  0.66336  0.55429  1.0000
  C   C97       1.0  0.33098  0.69465  0.48801  1.0000
  C   C98       1.0  0.03102  0.70790  0.45184  1.0000
  C   C99       1.0  0.03152  0.73680  0.39067  1.0000
  C   C100      1.0  0.33170  0.75266  0.36207  1.0000
  C   C101      1.0  0.29824  0.73638  0.38731  1.0000
  C   C102      1.0  0.29809  0.70757  0.44872  1.0000
  C   C103      1.0  0.29869  0.66358  0.61892  1.0000
  C   C104      1.0  0.02806  0.99685  0.62173  1.0000
  C   C105      1.0  0.04050  0.69670  0.66047  1.0000
  C   C106      1.0  0.04057  0.96383  0.66097  1.0000
  C   C107      1.0  0.28516  0.96386  0.65633  1.0000
  C   C108      1.0  0.28523  0.69685  0.65511  1.0000
  H   H62       1.0  0.03107  0.72137  0.63821  1.0000
  H   H63       1.0  0.03118  0.93906  0.63908  1.0000
  H   H64       1.0  0.29507  0.93910  0.63602  1.0000
  H   H65       1.0  0.29523  0.72149  0.63402  1.0000
  H   H66       1.0  0.27326  0.69781  0.46908  1.0000
  H   H67       1.0  0.27383  0.74859  0.37182  1.0000
  H   H68       1.0  0.05604  0.74919  0.37679  1.0000
  H   H69       1.0  0.05559  0.69832  0.47438  1.0000
  H   H70       1.0  0.05539  0.96137  0.47491  1.0000
  H   H71       1.0  0.27306  0.96172  0.47055  1.0000
  H   H72       1.0  0.27346  0.91054  0.37452  1.0000
  H   H73       1.0  0.05566  0.91017  0.37863  1.0000
  C   C109      1.0  0.33111  0.81028  0.43442  1.0000
  C   C110      1.0  0.99766  0.84832  0.43579  1.0000
  H   H74       1.0  0.33100  0.79678  0.49400  1.0000
  H   H75       1.0  0.99748  0.86131  0.49599  1.0000
  C   C111      1.0  0.17910  0.66366  0.66284  1.0000
  H   H76       1.0  0.12537  0.66351  0.61353  1.0000
  N   N6        1.0  0.19349  0.66355  0.57941  1.0000
  H   H77       1.0  0.17791  0.66343  0.52706  1.0000
  H   H78       1.0  0.21957  0.66355  0.56853  1.0000
  C   C112      1.0  0.40176  0.03029  0.05751  1.0000
  C   C113      1.0  0.41803  0.33047  0.08491  1.0000
  C   C114      1.0  0.40172  0.29714  0.05838  1.0000
  C   C115      1.0  0.58842  0.29718  0.04735  1.0000
  C   C116      1.0  0.57170  0.99729  0.07057  1.0000
  C   C117      1.0  0.58855  0.03056  0.04633  1.0000
  H   H79       1.0  0.41397  0.05482  0.07237  1.0000
  H   H80       1.0  0.41405  0.27268  0.07296  1.0000
  H   H81       1.0  0.57566  0.27278  0.06053  1.0000
  H   H82       1.0  0.57584  0.05503  0.05865  1.0000
  C   C118      1.0  0.33128  0.20151  0.35582  1.0000
  C   C119      1.0  0.33134  0.18270  0.27418  1.0000
  C   C120      1.0  0.66475  0.14384  0.27145  1.0000
  C   C121      1.0  0.66478  0.12441  0.35315  1.0000
  H   H83       1.0  0.33141  0.19744  0.21651  1.0000
  N   N7        1.0  0.66482  0.12640  0.19194  1.0000
  H   H84       1.0  0.66476  0.14005  0.13659  1.0000
  H   H85       1.0  0.66484  0.09984  0.18778  1.0000
  C   C122      1.0  0.51585  0.99726  0.15954  1.0000
  C   C123      1.0  0.47740  0.99722  0.16505  1.0000
  C   C124      1.0  0.45648  0.99706  0.08680  1.0000
  C   C125      1.0  0.47415  0.99694  0.00368  1.0000
  C   C126      1.0  0.53331  0.99715  0.07598  1.0000
  H   H86       1.0  0.53094  0.99740  0.21667  1.0000
  H   H87       1.0  0.46490  0.99734  0.22568  1.0000
  C   C127      1.0  0.66459  0.23983  0.36411  1.0000
  C   C128      1.0  0.63125  0.25617  0.38954  1.0000
  C   C129      1.0  0.63119  0.28520  0.45035  1.0000
  C   C130      1.0  0.66414  0.29838  0.48894  1.0000
  C   C131      1.0  0.36410  0.28503  0.45278  1.0000
  C   C132      1.0  0.36446  0.25584  0.39240  1.0000
  C   C133      1.0  0.66387  0.99669  0.55429  1.0000
  C   C134      1.0  0.66431  0.02799  0.48801  1.0000
  C   C135      1.0  0.36435  0.04123  0.45184  1.0000
  C   C136      1.0  0.36485  0.07013  0.39067  1.0000
  C   C137      1.0  0.66503  0.08599  0.36207  1.0000
  C   C138      1.0  0.63158  0.06971  0.38731  1.0000
  C   C139      1.0  0.63143  0.04090  0.44872  1.0000
  C   C140      1.0  0.63202  0.99691  0.61892  1.0000
  C   C141      1.0  0.36139  0.33018  0.62173  1.0000
  C   C142      1.0  0.37383  0.03003  0.66047  1.0000
  C   C143      1.0  0.37391  0.29716  0.66097  1.0000
  C   C144      1.0  0.61849  0.29720  0.65633  1.0000
  C   C145      1.0  0.61856  0.03018  0.65511  1.0000
  H   H88       1.0  0.36441  0.05470  0.63821  1.0000
  H   H89       1.0  0.36451  0.27239  0.63908  1.0000
  H   H90       1.0  0.62840  0.27243  0.63602  1.0000
  H   H91       1.0  0.62856  0.05482  0.63402  1.0000
  H   H92       1.0  0.60659  0.03115  0.46908  1.0000
  H   H93       1.0  0.60716  0.08193  0.37182  1.0000
  H   H94       1.0  0.38938  0.08252  0.37679  1.0000
  H   H95       1.0  0.38892  0.03165  0.47438  1.0000
  H   H96       1.0  0.38872  0.29470  0.47491  1.0000
  H   H97       1.0  0.60640  0.29506  0.47055  1.0000
  H   H98       1.0  0.60680  0.24387  0.37452  1.0000
  H   H99       1.0  0.38900  0.24350  0.37863  1.0000
  C   C146      1.0  0.66444  0.14362  0.43442  1.0000
  C   C147      1.0  0.33099  0.18165  0.43579  1.0000
  H   H100      1.0  0.66434  0.13011  0.49400  1.0000
  H   H101      1.0  0.33081  0.19465  0.49599  1.0000
  C   C148      1.0  0.51243  0.99699  0.66284  1.0000
  H   H102      1.0  0.45871  0.99685  0.61353  1.0000
  N   N8        1.0  0.52683  0.99688  0.57941  1.0000
  H   H103      1.0  0.51124  0.99677  0.52706  1.0000
  H   H104      1.0  0.55291  0.99688  0.56853  1.0000
  C   C149      1.0  0.40176  0.36363  0.05751  1.0000
  C   C150      1.0  0.41803  0.66380  0.08491  1.0000
  C   C151      1.0  0.40172  0.63047  0.05838  1.0000
  C   C152      1.0  0.58842  0.63051  0.04735  1.0000
  C   C153      1.0  0.57170  0.33063  0.07057  1.0000
  C   C154      1.0  0.58855  0.36389  0.04633  1.0000
  H   H105      1.0  0.41397  0.38815  0.07237  1.0000
  H   H106      1.0  0.41405  0.60601  0.07296  1.0000
  H   H107      1.0  0.57566  0.60611  0.06053  1.0000
  H   H108      1.0  0.57584  0.38836  0.05865  1.0000
  C   C155      1.0  0.33128  0.53484  0.35582  1.0000
  C   C156      1.0  0.33134  0.51604  0.27418  1.0000
  C   C157      1.0  0.66475  0.47717  0.27145  1.0000
  C   C158      1.0  0.66478  0.45775  0.35315  1.0000
  H   H109      1.0  0.33141  0.53078  0.21651  1.0000
  N   N9        1.0  0.66482  0.45973  0.19194  1.0000
  H   H110      1.0  0.66476  0.47338  0.13659  1.0000
  H   H111      1.0  0.66484  0.43317  0.18778  1.0000
  C   C159      1.0  0.51585  0.33059  0.15954  1.0000
  C   C160      1.0  0.47740  0.33055  0.16505  1.0000
  C   C161      1.0  0.45648  0.33039  0.08680  1.0000
  C   C162      1.0  0.47415  0.33028  0.00368  1.0000
  C   C163      1.0  0.53331  0.33048  0.07598  1.0000
  H   H112      1.0  0.53094  0.33074  0.21667  1.0000
  H   H113      1.0  0.46490  0.33067  0.22568  1.0000
  C   C164      1.0  0.66460  0.57316  0.36411  1.0000
  C   C165      1.0  0.63125  0.58950  0.38954  1.0000
  C   C166      1.0  0.63119  0.61853  0.45035  1.0000
  C   C167      1.0  0.66414  0.63171  0.48894  1.0000
  C   C168      1.0  0.36410  0.61836  0.45278  1.0000
  C   C169      1.0  0.36446  0.58917  0.39240  1.0000
  C   C170      1.0  0.66387  0.33002  0.55429  1.0000
  C   C171      1.0  0.66431  0.36132  0.48801  1.0000
  C   C172      1.0  0.36435  0.37457  0.45184  1.0000
  C   C173      1.0  0.36485  0.40346  0.39067  1.0000
  C   C174      1.0  0.66503  0.41933  0.36207  1.0000
  C   C175      1.0  0.63158  0.40305  0.38731  1.0000
  C   C176      1.0  0.63142  0.37424  0.44872  1.0000
  C   C177      1.0  0.63202  0.33024  0.61892  1.0000
  C   C178      1.0  0.36139  0.66352  0.62173  1.0000
  C   C179      1.0  0.37383  0.36337  0.66047  1.0000
  C   C180      1.0  0.37391  0.63049  0.66097  1.0000
  C   C181      1.0  0.61849  0.63053  0.65633  1.0000
  C   C182      1.0  0.61856  0.36351  0.65511  1.0000
  H   H114      1.0  0.36441  0.38804  0.63821  1.0000
  H   H115      1.0  0.36451  0.60573  0.63908  1.0000
  H   H116      1.0  0.62840  0.60576  0.63602  1.0000
  H   H117      1.0  0.62856  0.38815  0.63402  1.0000
  H   H118      1.0  0.60659  0.36448  0.46908  1.0000
  H   H119      1.0  0.60716  0.41526  0.37182  1.0000
  H   H120      1.0  0.38938  0.41585  0.37679  1.0000
  H   H121      1.0  0.38892  0.36498  0.47438  1.0000
  H   H122      1.0  0.38872  0.62804  0.47491  1.0000
  H   H123      1.0  0.60640  0.62839  0.47055  1.0000
  H   H124      1.0  0.60680  0.57720  0.37452  1.0000
  H   H125      1.0  0.38900  0.57683  0.37863  1.0000
  C   C183      1.0  0.66444  0.47695  0.43442  1.0000
  C   C184      1.0  0.33099  0.51498  0.43579  1.0000
  H   H126      1.0  0.66434  0.46344  0.49400  1.0000
  H   H127      1.0  0.33081  0.52798  0.49599  1.0000
  C   C185      1.0  0.51243  0.33032  0.66284  1.0000
  H   H128      1.0  0.45871  0.33018  0.61353  1.0000
  N   N10       1.0  0.52682  0.33022  0.57941  1.0000
  H   H129      1.0  0.51124  0.33010  0.52706  1.0000
  H   H130      1.0  0.55291  0.33022  0.56853  1.0000
  C   C186      1.0  0.40176  0.69696  0.05751  1.0000
  C   C187      1.0  0.41803  0.99713  0.08491  1.0000
  C   C188      1.0  0.40172  0.96381  0.05838  1.0000
  C   C189      1.0  0.58842  0.96384  0.04735  1.0000
  C   C190      1.0  0.57170  0.66396  0.07057  1.0000
  C   C191      1.0  0.58855  0.69723  0.04633  1.0000
  H   H131      1.0  0.41397  0.72149  0.07237  1.0000
  H   H132      1.0  0.41405  0.93935  0.07296  1.0000
  H   H133      1.0  0.57566  0.93944  0.06053  1.0000
  H   H134      1.0  0.57584  0.72169  0.05865  1.0000
  C   C192      1.0  0.33128  0.86818  0.35582  1.0000
  C   C193      1.0  0.33134  0.84937  0.27418  1.0000
  C   C194      1.0  0.66475  0.81050  0.27145  1.0000
  C   C195      1.0  0.66479  0.79108  0.35315  1.0000
  H   H135      1.0  0.33141  0.86411  0.21651  1.0000
  N   N11       1.0  0.66482  0.79307  0.19194  1.0000
  H   H136      1.0  0.66476  0.80672  0.13659  1.0000
  H   H137      1.0  0.66484  0.76651  0.18778  1.0000
  C   C196      1.0  0.51585  0.66393  0.15954  1.0000
  C   C197      1.0  0.47740  0.66388  0.16505  1.0000
  C   C198      1.0  0.45648  0.66372  0.08680  1.0000
  C   C199      1.0  0.47415  0.66361  0.00368  1.0000
  C   C200      1.0  0.53331  0.66382  0.07598  1.0000
  H   H138      1.0  0.53094  0.66407  0.21667  1.0000
  H   H139      1.0  0.46490  0.66400  0.22568  1.0000
  C   C201      1.0  0.66460  0.90650  0.36411  1.0000
  C   C202      1.0  0.63125  0.92284  0.38954  1.0000
  C   C203      1.0  0.63119  0.95186  0.45035  1.0000
  C   C204      1.0  0.66414  0.96505  0.48894  1.0000
  C   C205      1.0  0.36410  0.95169  0.45278  1.0000
  C   C206      1.0  0.36446  0.92251  0.39240  1.0000
  C   C207      1.0  0.66387  0.66336  0.55429  1.0000
  C   C208      1.0  0.66431  0.69465  0.48801  1.0000
  C   C209      1.0  0.36435  0.70790  0.45184  1.0000
  C   C210      1.0  0.36485  0.73680  0.39067  1.0000
  C   C211      1.0  0.66504  0.75266  0.36207  1.0000
  C   C212      1.0  0.63158  0.73638  0.38731  1.0000
  C   C213      1.0  0.63143  0.70757  0.44872  1.0000
  C   C214      1.0  0.63202  0.66358  0.61892  1.0000
  C   C215      1.0  0.36139  0.99685  0.62173  1.0000
  C   C216      1.0  0.37383  0.69670  0.66047  1.0000
  C   C217      1.0  0.37391  0.96383  0.66097  1.0000
  C   C218      1.0  0.61849  0.96386  0.65633  1.0000
  C   C219      1.0  0.61856  0.69685  0.65511  1.0000
  H   H140      1.0  0.36441  0.72137  0.63821  1.0000
  H   H141      1.0  0.36451  0.93906  0.63908  1.0000
  H   H142      1.0  0.62840  0.93910  0.63602  1.0000
  H   H143      1.0  0.62856  0.72149  0.63402  1.0000
  H   H144      1.0  0.60659  0.69781  0.46908  1.0000
  H   H145      1.0  0.60716  0.74859  0.37182  1.0000
  H   H146      1.0  0.38938  0.74919  0.37679  1.0000
  H   H147      1.0  0.38892  0.69832  0.47438  1.0000
  H   H148      1.0  0.38872  0.96137  0.47491  1.0000
  H   H149      1.0  0.60640  0.96172  0.47055  1.0000
  H   H150      1.0  0.60680  0.91054  0.37452  1.0000
  H   H151      1.0  0.38900  0.91017  0.37863  1.0000
  C   C220      1.0  0.66444  0.81028  0.43442  1.0000
  C   C221      1.0  0.33099  0.84832  0.43579  1.0000
  H   H152      1.0  0.66434  0.79678  0.49400  1.0000
  H   H153      1.0  0.33081  0.86131  0.49599  1.0000
  C   C222      1.0  0.51243  0.66366  0.66284  1.0000
  H   H154      1.0  0.45871  0.66351  0.61353  1.0000
  N   N12       1.0  0.52682  0.66355  0.57941  1.0000
  H   H155      1.0  0.51124  0.66343  0.52706  1.0000
  H   H156      1.0  0.55291  0.66355  0.56853  1.0000
  C   C223      1.0  0.73510  0.03029  0.05751  1.0000
  C   C224      1.0  0.75137  0.33047  0.08491  1.0000
  C   C225      1.0  0.73505  0.29714  0.05838  1.0000
  C   C226      1.0  0.92175  0.29718  0.04735  1.0000
  C   C227      1.0  0.90503  0.99729  0.07057  1.0000
  C   C228      1.0  0.92188  0.03056  0.04633  1.0000
  H   H157      1.0  0.74730  0.05482  0.07237  1.0000
  H   H158      1.0  0.74738  0.27268  0.07296  1.0000
  H   H159      1.0  0.90900  0.27278  0.06053  1.0000
  H   H160      1.0  0.90918  0.05503  0.05865  1.0000
  C   C229      1.0  0.66461  0.20151  0.35582  1.0000
  C   C230      1.0  0.66468  0.18270  0.27418  1.0000
  C   C231      1.0  0.99808  0.14384  0.27145  1.0000
  C   C232      1.0  0.99812  0.12441  0.35315  1.0000
  H   H161      1.0  0.66474  0.19744  0.21651  1.0000
  N   N13       1.0  0.99815  0.12640  0.19194  1.0000
  H   H162      1.0  0.99809  0.14005  0.13659  1.0000
  H   H163      1.0  0.99817  0.09984  0.18778  1.0000
  C   C233      1.0  0.84919  0.99726  0.15954  1.0000
  C   C234      1.0  0.81073  0.99722  0.16505  1.0000
  C   C235      1.0  0.78981  0.99706  0.08680  1.0000
  C   C236      1.0  0.80748  0.99694  0.00368  1.0000
  C   C237      1.0  0.86664  0.99715  0.07598  1.0000
  H   H164      1.0  0.86428  0.99740  0.21667  1.0000
  H   H165      1.0  0.79823  0.99734  0.22568  1.0000
  C   C238      1.0  0.99793  0.23983  0.36411  1.0000
  C   C239      1.0  0.96458  0.25617  0.38954  1.0000
  C   C240      1.0  0.96453  0.28520  0.45035  1.0000
  C   C241      1.0  0.99748  0.29838  0.48894  1.0000
  C   C242      1.0  0.69744  0.28503  0.45278  1.0000
  C   C243      1.0  0.69779  0.25584  0.39240  1.0000
  C   C244      1.0  0.99721  0.99669  0.55429  1.0000
  C   C245      1.0  0.99765  0.02799  0.48801  1.0000
  C   C246      1.0  0.69768  0.04123  0.45184  1.0000
  C   C247      1.0  0.69819  0.07013  0.39067  1.0000
  C   C248      1.0  0.99837  0.08599  0.36207  1.0000
  C   C249      1.0  0.96491  0.06971  0.38731  1.0000
  C   C250      1.0  0.96476  0.04090  0.44872  1.0000
  C   C251      1.0  0.96536  0.99691  0.61892  1.0000
  C   C252      1.0  0.69473  0.33018  0.62173  1.0000
  C   C253      1.0  0.70717  0.03003  0.66047  1.0000
  C   C254      1.0  0.70724  0.29716  0.66097  1.0000
  C   C255      1.0  0.95183  0.29720  0.65633  1.0000
  C   C256      1.0  0.95189  0.03018  0.65511  1.0000
  H   H166      1.0  0.69774  0.05470  0.63821  1.0000
  H   H167      1.0  0.69785  0.27239  0.63908  1.0000
  H   H168      1.0  0.96173  0.27243  0.63602  1.0000
  H   H169      1.0  0.96190  0.05482  0.63402  1.0000
  H   H170      1.0  0.93992  0.03115  0.46908  1.0000
  H   H171      1.0  0.94049  0.08193  0.37182  1.0000
  H   H172      1.0  0.72271  0.08252  0.37679  1.0000
  H   H173      1.0  0.72226  0.03165  0.47438  1.0000
  H   H174      1.0  0.72206  0.29470  0.47491  1.0000
  H   H175      1.0  0.93973  0.29506  0.47055  1.0000
  H   H176      1.0  0.94013  0.24387  0.37452  1.0000
  H   H177      1.0  0.72233  0.24350  0.37863  1.0000
  C   C257      1.0  0.99778  0.14362  0.43442  1.0000
  C   C258      1.0  0.66432  0.18165  0.43579  1.0000
  H   H178      1.0  0.99767  0.13011  0.49400  1.0000
  H   H179      1.0  0.66414  0.19465  0.49599  1.0000
  C   C259      1.0  0.84577  0.99699  0.66284  1.0000
  H   H180      1.0  0.79204  0.99685  0.61353  1.0000
  N   N14       1.0  0.86016  0.99688  0.57941  1.0000
  H   H181      1.0  0.84458  0.99677  0.52706  1.0000
  H   H182      1.0  0.88624  0.99688  0.56853  1.0000
  C   C260      1.0  0.73510  0.36363  0.05751  1.0000
  C   C261      1.0  0.75137  0.66380  0.08491  1.0000
  C   C262      1.0  0.73505  0.63047  0.05838  1.0000
  C   C263      1.0  0.92175  0.63051  0.04735  1.0000
  C   C264      1.0  0.90503  0.33063  0.07057  1.0000
  C   C265      1.0  0.92188  0.36389  0.04633  1.0000
  H   H183      1.0  0.74730  0.38815  0.07237  1.0000
  H   H184      1.0  0.74738  0.60601  0.07296  1.0000
  H   H185      1.0  0.90900  0.60611  0.06053  1.0000
  H   H186      1.0  0.90918  0.38836  0.05865  1.0000
  C   C266      1.0  0.66461  0.53484  0.35582  1.0000
  C   C267      1.0  0.66468  0.51604  0.27418  1.0000
  C   C268      1.0  0.99808  0.47717  0.27145  1.0000
  C   C269      1.0  0.99812  0.45775  0.35315  1.0000
  H   H187      1.0  0.66474  0.53078  0.21651  1.0000
  N   N15       1.0  0.99815  0.45973  0.19194  1.0000
  H   H188      1.0  0.99809  0.47338  0.13659  1.0000
  H   H189      1.0  0.99817  0.43317  0.18778  1.0000
  C   C270      1.0  0.84919  0.33059  0.15954  1.0000
  C   C271      1.0  0.81073  0.33055  0.16505  1.0000
  C   C272      1.0  0.78981  0.33039  0.08680  1.0000
  C   C273      1.0  0.80748  0.33028  0.00368  1.0000
  C   C274      1.0  0.86664  0.33048  0.07598  1.0000
  H   H190      1.0  0.86427  0.33074  0.21667  1.0000
  H   H191      1.0  0.79823  0.33067  0.22568  1.0000
  C   C275      1.0  0.99793  0.57316  0.36411  1.0000
  C   C276      1.0  0.96458  0.58950  0.38954  1.0000
  C   C277      1.0  0.96453  0.61853  0.45035  1.0000
  C   C278      1.0  0.99748  0.63171  0.48894  1.0000
  C   C279      1.0  0.69744  0.61836  0.45278  1.0000
  C   C280      1.0  0.69780  0.58917  0.39240  1.0000
  C   C281      1.0  0.99721  0.33002  0.55429  1.0000
  C   C282      1.0  0.99765  0.36132  0.48801  1.0000
  C   C283      1.0  0.69768  0.37457  0.45184  1.0000
  C   C284      1.0  0.69819  0.40346  0.39067  1.0000
  C   C285      1.0  0.99837  0.41933  0.36207  1.0000
  C   C286      1.0  0.96491  0.40305  0.38731  1.0000
  C   C287      1.0  0.96476  0.37424  0.44872  1.0000
  C   C288      1.0  0.96536  0.33024  0.61892  1.0000
  C   C289      1.0  0.69473  0.66352  0.62173  1.0000
  C   C290      1.0  0.70717  0.36337  0.66047  1.0000
  C   C291      1.0  0.70724  0.63049  0.66097  1.0000
  C   C292      1.0  0.95183  0.63053  0.65633  1.0000
  C   C293      1.0  0.95189  0.36351  0.65511  1.0000
  H   H192      1.0  0.69774  0.38804  0.63821  1.0000
  H   H193      1.0  0.69785  0.60573  0.63908  1.0000
  H   H194      1.0  0.96173  0.60576  0.63602  1.0000
  H   H195      1.0  0.96190  0.38815  0.63402  1.0000
  H   H196      1.0  0.93992  0.36448  0.46908  1.0000
  H   H197      1.0  0.94049  0.41526  0.37182  1.0000
  H   H198      1.0  0.72271  0.41585  0.37679  1.0000
  H   H199      1.0  0.72226  0.36498  0.47438  1.0000
  H   H200      1.0  0.72206  0.62804  0.47491  1.0000
  H   H201      1.0  0.93973  0.62839  0.47055  1.0000
  H   H202      1.0  0.94013  0.57720  0.37452  1.0000
  H   H203      1.0  0.72233  0.57683  0.37863  1.0000
  C   C294      1.0  0.99778  0.47695  0.43442  1.0000
  C   C295      1.0  0.66432  0.51498  0.43579  1.0000
  H   H204      1.0  0.99767  0.46344  0.49400  1.0000
  H   H205      1.0  0.66414  0.52798  0.49599  1.0000
  C   C296      1.0  0.84577  0.33032  0.66284  1.0000
  H   H206      1.0  0.79204  0.33018  0.61353  1.0000
  N   N16       1.0  0.86016  0.33022  0.57941  1.0000
  H   H207      1.0  0.84458  0.33010  0.52706  1.0000
  H   H208      1.0  0.88624  0.33022  0.56853  1.0000
  C   C297      1.0  0.73510  0.69696  0.05751  1.0000
  C   C298      1.0  0.75136  0.99713  0.08491  1.0000
  C   C299      1.0  0.73505  0.96381  0.05838  1.0000
  C   C300      1.0  0.92175  0.96384  0.04735  1.0000
  C   C301      1.0  0.90503  0.66396  0.07057  1.0000
  C   C302      1.0  0.92188  0.69723  0.04633  1.0000
  H   H209      1.0  0.74730  0.72149  0.07237  1.0000
  H   H210      1.0  0.74738  0.93935  0.07296  1.0000
  H   H211      1.0  0.90900  0.93944  0.06053  1.0000
  H   H212      1.0  0.90918  0.72169  0.05865  1.0000
  C   C303      1.0  0.66461  0.86818  0.35582  1.0000
  C   C304      1.0  0.66468  0.84937  0.27418  1.0000
  C   C305      1.0  0.99808  0.81050  0.27145  1.0000
  C   C306      1.0  0.99812  0.79108  0.35315  1.0000
  H   H213      1.0  0.66474  0.86411  0.21651  1.0000
  N   N17       1.0  0.99815  0.79307  0.19194  1.0000
  H   H214      1.0  0.99809  0.80672  0.13659  1.0000
  H   H215      1.0  0.99817  0.76651  0.18778  1.0000
  C   C307      1.0  0.84918  0.66393  0.15954  1.0000
  C   C308      1.0  0.81073  0.66388  0.16505  1.0000
  C   C309      1.0  0.78981  0.66372  0.08680  1.0000
  C   C310      1.0  0.80748  0.66361  0.00368  1.0000
  C   C311      1.0  0.86664  0.66382  0.07598  1.0000
  H   H216      1.0  0.86427  0.66407  0.21667  1.0000
  H   H217      1.0  0.79823  0.66400  0.22568  1.0000
  C   C312      1.0  0.99793  0.90650  0.36411  1.0000
  C   C313      1.0  0.96458  0.92284  0.38954  1.0000
  C   C314      1.0  0.96453  0.95186  0.45035  1.0000
  C   C315      1.0  0.99748  0.96505  0.48894  1.0000
  C   C316      1.0  0.69744  0.95169  0.45278  1.0000
  C   C317      1.0  0.69780  0.92251  0.39240  1.0000
  C   C318      1.0  0.99721  0.66336  0.55429  1.0000
  C   C319      1.0  0.99765  0.69465  0.48801  1.0000
  C   C320      1.0  0.69769  0.70790  0.45184  1.0000
  C   C321      1.0  0.69819  0.73680  0.39067  1.0000
  C   C322      1.0  0.99837  0.75266  0.36207  1.0000
  C   C323      1.0  0.96491  0.73638  0.38731  1.0000
  C   C324      1.0  0.96476  0.70757  0.44872  1.0000
  C   C325      1.0  0.96536  0.66358  0.61892  1.0000
  C   C326      1.0  0.69473  0.99685  0.62173  1.0000
  C   C327      1.0  0.70717  0.69670  0.66047  1.0000
  C   C328      1.0  0.70724  0.96383  0.66097  1.0000
  C   C329      1.0  0.95183  0.96386  0.65633  1.0000
  C   C330      1.0  0.95189  0.69685  0.65511  1.0000
  H   H218      1.0  0.69774  0.72137  0.63821  1.0000
  H   H219      1.0  0.69785  0.93906  0.63908  1.0000
  H   H220      1.0  0.96173  0.93910  0.63602  1.0000
  H   H221      1.0  0.96190  0.72149  0.63402  1.0000
  H   H222      1.0  0.93992  0.69781  0.46908  1.0000
  H   H223      1.0  0.94049  0.74859  0.37182  1.0000
  H   H224      1.0  0.72271  0.74919  0.37679  1.0000
  H   H225      1.0  0.72226  0.69832  0.47438  1.0000
  H   H226      1.0  0.72206  0.96137  0.47491  1.0000
  H   H227      1.0  0.93973  0.96172  0.47055  1.0000
  H   H228      1.0  0.94013  0.91054  0.37452  1.0000
  H   H229      1.0  0.72233  0.91017  0.37863  1.0000
  C   C331      1.0  0.99778  0.81028  0.43442  1.0000
  C   C332      1.0  0.66432  0.84832  0.43579  1.0000
  H   H230      1.0  0.99767  0.79678  0.49400  1.0000
  H   H231      1.0  0.66414  0.86131  0.49599  1.0000
  C   C333      1.0  0.84577  0.66366  0.66284  1.0000
  H   H232      1.0  0.79204  0.66351  0.61353  1.0000
  N   N18       1.0  0.86016  0.66355  0.57941  1.0000
  H   H233      1.0  0.84458  0.66343  0.52706  1.0000
  H   H234      1.0  0.88624  0.66355  0.56853  1.0000
