data_image0
_chemical_formula_structural       C4HNC3O2HC2HC3O2HNC4HNC3O2HC2HC3O2HNOC3HOCOC3O2HNH2C2H2NC3O2H2OC3HOCOC3O2HNH2C2H2NC3O2H2C8HCNC2O2CNC2O2HC4HNC3ONC3O2C8HCNC2O2CNC2O2HC4HNC3ONC3O2C4OHC3OH2COHCNC2O2HCNC2O2HC2H4C2H2OHNC3O2HNC3O2HC4OHC3OH2COHCNC2O2HCNC2O2HC2H4C2H2OHNC3O2HNC3O2HC4HOC4OHC4HOC4OHC4HOC4OHCNC2O2HCNC2O2HCNC2O2HCNC2O2HCNC2O2HCNC2O2HC4H4C4H4C4H4NC3O2HNC3O2HNC3O2HNC3O2HNC3O2HNC3O2HC4HOC4OHC4HOC4OHC4HOC4OHCNC2O2HCNC2O2HCNC2O2HCNC2O2HCNC2O2HCNC2O2HC4H4C4H4C4H4NC3O2HNC3O2HNC3O2HNC3O2HNC3O2HNC3O2H
_chemical_formula_sum              "C288 H120 N48 O120"
_cell_length_a       46.5468
_cell_length_b       46.5468
_cell_length_c       14.8253
_cell_angle_alpha    90
_cell_angle_beta     90
_cell_angle_gamma    120

_space_group_name_H-M_alt    "P 1"
_space_group_IT_number       1

loop_
  _space_group_symop_operation_xyz
  'x, y, z'

loop_
  _atom_site_type_symbol
  _atom_site_label
  _atom_site_symmetry_multiplicity
  _atom_site_fract_x
  _atom_site_fract_y
  _atom_site_fract_z
  _atom_site_occupancy
  C   C1        1.0  0.02686  0.26488  0.34467  1.0000
  C   C2        1.0  0.04618  0.30042  0.34305  1.0000
  C   C3        1.0  0.08130  0.31849  0.34320  1.0000
  C   C4        1.0  0.09857  0.30076  0.34589  1.0000
  H   H1        1.0  0.03506  0.31445  0.34044  1.0000
  N   N1        1.0  0.11626  0.25173  0.26811  1.0000
  C   C5        1.0  0.10002  0.35361  0.33958  1.0000
  C   C6        1.0  0.11773  0.36986  0.25989  1.0000
  C   C7        1.0  0.10863  0.35561  0.17459  1.0000
  O   O1        1.0  0.13021  0.35934  0.12104  1.0000
  O   O2        1.0  0.08115  0.34703  0.14129  1.0000
  H   H2        1.0  0.06416  0.34618  0.17059  1.0000
  C   C8        1.0  0.08132  0.26573  0.34628  1.0000
  C   C9        1.0  0.04620  0.24866  0.34598  1.0000
  H   H3        1.0  0.03509  0.22350  0.34724  1.0000
  C   C10       1.0  0.11641  0.24811  0.42643  1.0000
  C   C11       1.0  0.10007  0.24934  0.34664  1.0000
  C   C12       1.0  0.10619  0.25100  0.51250  1.0000
  O   O3        1.0  0.12703  0.26759  0.56921  1.0000
  O   O4        1.0  0.07826  0.23142  0.54204  1.0000
  H   H4        1.0  0.06171  0.21599  0.50983  1.0000
  N   N2        1.0  0.11500  0.36861  0.41840  1.0000
  C   C13       1.0  0.02686  0.76488  0.34467  1.0000
  C   C14       1.0  0.04618  0.80043  0.34305  1.0000
  C   C15       1.0  0.08130  0.81849  0.34320  1.0000
  C   C16       1.0  0.09857  0.80075  0.34589  1.0000
  H   H5        1.0  0.03505  0.81445  0.34044  1.0000
  N   N3        1.0  0.11626  0.75173  0.26811  1.0000
  C   C17       1.0  0.10002  0.85361  0.33958  1.0000
  C   C18       1.0  0.11773  0.86986  0.25989  1.0000
  C   C19       1.0  0.10863  0.85561  0.17459  1.0000
  O   O5        1.0  0.13021  0.85934  0.12104  1.0000
  O   O6        1.0  0.08115  0.84703  0.14129  1.0000
  H   H6        1.0  0.06416  0.84617  0.17059  1.0000
  C   C20       1.0  0.08132  0.76573  0.34628  1.0000
  C   C21       1.0  0.04620  0.74866  0.34598  1.0000
  H   H7        1.0  0.03509  0.72350  0.34724  1.0000
  C   C22       1.0  0.11641  0.74811  0.42643  1.0000
  C   C23       1.0  0.10008  0.74934  0.34664  1.0000
  C   C24       1.0  0.10619  0.75099  0.51250  1.0000
  O   O7        1.0  0.12703  0.76759  0.56921  1.0000
  O   O8        1.0  0.07826  0.73142  0.54204  1.0000
  H   H8        1.0  0.06171  0.71599  0.50983  1.0000
  N   N4        1.0  0.11500  0.86861  0.41840  1.0000
  O   O9        1.0  0.13246  0.31770  0.34661  1.0000
  C   C25       1.0  0.21424  0.24858  0.34247  1.0000
  C   C26       1.0  0.19614  0.26561  0.34284  1.0000
  C   C27       1.0  0.21387  0.30063  0.34564  1.0000
  H   H9        1.0  0.20023  0.22344  0.33954  1.0000
  O   O10       1.0  0.19690  0.31755  0.34630  1.0000
  C   C28       1.0  0.21398  0.41616  0.34560  1.0000
  O   O11       1.0  0.19704  0.38227  0.34632  1.0000
  C   C29       1.0  0.16102  0.24916  0.33862  1.0000
  C   C30       1.0  0.14474  0.25046  0.25890  1.0000
  C   C31       1.0  0.15900  0.25541  0.17370  1.0000
  O   O12       1.0  0.15473  0.27257  0.11897  1.0000
  O   O13       1.0  0.16740  0.23630  0.14081  1.0000
  H   H10       1.0  0.16850  0.22040  0.17067  1.0000
  N   N5        1.0  0.14742  0.39839  0.26911  1.0000
  H   H11       1.0  0.13889  0.32173  0.41055  1.0000
  H   H12       1.0  0.19297  0.32007  0.41023  1.0000
  C   C32       1.0  0.19622  0.43342  0.34631  1.0000
  C   C33       1.0  0.21427  0.46854  0.34647  1.0000
  H   H13       1.0  0.19456  0.37584  0.41026  1.0000
  H   H14       1.0  0.20024  0.47966  0.34849  1.0000
  N   N6        1.0  0.14621  0.24940  0.41758  1.0000
  C   C34       1.0  0.14344  0.39846  0.42727  1.0000
  C   C35       1.0  0.16107  0.41474  0.34763  1.0000
  C   C36       1.0  0.15659  0.40883  0.51319  1.0000
  O   O14       1.0  0.15182  0.38809  0.57077  1.0000
  O   O15       1.0  0.16470  0.43673  0.54252  1.0000
  H   H15       1.0  0.16603  0.45330  0.50994  1.0000
  H   H16       1.0  0.21929  0.16340  0.51040  1.0000
  O   O16       1.0  0.13246  0.81770  0.34661  1.0000
  C   C37       1.0  0.21424  0.74858  0.34247  1.0000
  C   C38       1.0  0.19614  0.76561  0.34284  1.0000
  C   C39       1.0  0.21386  0.80063  0.34564  1.0000
  H   H17       1.0  0.20023  0.72344  0.33954  1.0000
  O   O17       1.0  0.19690  0.81755  0.34630  1.0000
  C   C40       1.0  0.21398  0.91616  0.34560  1.0000
  O   O18       1.0  0.19704  0.88227  0.34632  1.0000
  C   C41       1.0  0.16102  0.74916  0.33862  1.0000
  C   C42       1.0  0.14474  0.75046  0.25890  1.0000
  C   C43       1.0  0.15900  0.75540  0.17370  1.0000
  O   O19       1.0  0.15473  0.77257  0.11897  1.0000
  O   O20       1.0  0.16740  0.73630  0.14081  1.0000
  H   H18       1.0  0.16850  0.72040  0.17067  1.0000
  N   N7        1.0  0.14742  0.89839  0.26911  1.0000
  H   H19       1.0  0.13889  0.82173  0.41055  1.0000
  H   H20       1.0  0.19297  0.82007  0.41023  1.0000
  C   C44       1.0  0.19622  0.93342  0.34631  1.0000
  C   C45       1.0  0.21427  0.96854  0.34647  1.0000
  H   H21       1.0  0.19456  0.87584  0.41026  1.0000
  H   H22       1.0  0.20023  0.97966  0.34849  1.0000
  N   N8        1.0  0.14621  0.74941  0.41758  1.0000
  C   C46       1.0  0.14344  0.89845  0.42727  1.0000
  C   C47       1.0  0.16108  0.91474  0.34763  1.0000
  C   C48       1.0  0.15659  0.90883  0.51319  1.0000
  O   O21       1.0  0.15182  0.88809  0.57077  1.0000
  O   O22       1.0  0.16470  0.93673  0.54252  1.0000
  H   H23       1.0  0.16603  0.95330  0.50994  1.0000
  H   H24       1.0  0.21929  0.66340  0.51040  1.0000
  C   C49       1.0  0.24979  0.26483  0.34438  1.0000
  C   C50       1.0  0.26785  0.24685  0.34446  1.0000
  C   C51       1.0  0.24982  0.48787  0.34461  1.0000
  C   C52       1.0  0.26605  0.46856  0.34241  1.0000
  C   C53       1.0  0.24900  0.43344  0.34276  1.0000
  C   C54       1.0  0.26782  0.02392  0.34463  1.0000
  C   C55       1.0  0.26861  0.07834  0.34295  1.0000
  C   C56       1.0  0.25157  0.04322  0.34259  1.0000
  H   H25       1.0  0.22643  0.03209  0.33940  1.0000
  C   C57       1.0  0.26543  0.41476  0.33826  1.0000
  N   N9        1.0  0.26274  0.36725  0.26848  1.0000
  C   C58       1.0  0.26399  0.39697  0.25887  1.0000
  C   C59       1.0  0.25877  0.40601  0.17362  1.0000
  O   O23       1.0  0.24148  0.38441  0.11941  1.0000
  O   O24       1.0  0.27764  0.43347  0.14017  1.0000
  C   C60       1.0  0.25217  0.09701  0.33858  1.0000
  N   N10       1.0  0.25472  0.14444  0.26841  1.0000
  C   C61       1.0  0.25348  0.11471  0.25910  1.0000
  C   C62       1.0  0.25845  0.10546  0.17384  1.0000
  O   O25       1.0  0.27566  0.12694  0.11925  1.0000
  O   O26       1.0  0.23938  0.07798  0.14081  1.0000
  H   H26       1.0  0.22346  0.06096  0.17056  1.0000
  C   C63       1.0  0.24889  0.31841  0.34612  1.0000
  C   C64       1.0  0.26598  0.30038  0.34599  1.0000
  C   C65       1.0  0.25165  0.21130  0.34597  1.0000
  C   C66       1.0  0.26873  0.19326  0.34664  1.0000
  H   H27       1.0  0.22649  0.19724  0.34723  1.0000
  N   N11       1.0  0.26524  0.39975  0.41730  1.0000
  C   C67       1.0  0.26655  0.37127  0.42649  1.0000
  C   C68       1.0  0.26531  0.35354  0.34707  1.0000
  C   C69       1.0  0.26365  0.35818  0.51256  1.0000
  O   O27       1.0  0.24759  0.36299  0.56979  1.0000
  N   N12       1.0  0.25246  0.11208  0.41762  1.0000
  C   C70       1.0  0.25115  0.14056  0.42683  1.0000
  C   C71       1.0  0.25232  0.15811  0.34714  1.0000
  C   C72       1.0  0.25409  0.15363  0.51296  1.0000
  O   O28       1.0  0.27059  0.14922  0.56963  1.0000
  O   O29       1.0  0.23466  0.16216  0.54256  1.0000
  C   C73       1.0  0.24979  0.76484  0.34438  1.0000
  C   C74       1.0  0.26785  0.74685  0.34446  1.0000
  C   C75       1.0  0.24981  0.98787  0.34461  1.0000
  C   C76       1.0  0.26605  0.96856  0.34241  1.0000
  C   C77       1.0  0.24900  0.93344  0.34276  1.0000
  C   C78       1.0  0.26782  0.52392  0.34463  1.0000
  C   C79       1.0  0.26861  0.57834  0.34295  1.0000
  C   C80       1.0  0.25157  0.54322  0.34259  1.0000
  H   H28       1.0  0.22643  0.53209  0.33940  1.0000
  C   C81       1.0  0.26543  0.91476  0.33826  1.0000
  N   N13       1.0  0.26274  0.86725  0.26848  1.0000
  C   C82       1.0  0.26399  0.89697  0.25887  1.0000
  C   C83       1.0  0.25877  0.90601  0.17362  1.0000
  O   O30       1.0  0.24148  0.88441  0.11941  1.0000
  O   O31       1.0  0.27764  0.93347  0.14017  1.0000
  C   C84       1.0  0.25217  0.59701  0.33858  1.0000
  N   N14       1.0  0.25472  0.64444  0.26841  1.0000
  C   C85       1.0  0.25348  0.61472  0.25910  1.0000
  C   C86       1.0  0.25845  0.60546  0.17384  1.0000
  O   O32       1.0  0.27566  0.62694  0.11925  1.0000
  O   O33       1.0  0.23938  0.57798  0.14081  1.0000
  H   H29       1.0  0.22346  0.56095  0.17056  1.0000
  C   C87       1.0  0.24889  0.81842  0.34612  1.0000
  C   C88       1.0  0.26598  0.80038  0.34599  1.0000
  C   C89       1.0  0.25165  0.71130  0.34597  1.0000
  C   C90       1.0  0.26873  0.69326  0.34664  1.0000
  H   H30       1.0  0.22649  0.69724  0.34723  1.0000
  N   N15       1.0  0.26524  0.89975  0.41730  1.0000
  C   C91       1.0  0.26655  0.87127  0.42649  1.0000
  C   C92       1.0  0.26531  0.85354  0.34707  1.0000
  C   C93       1.0  0.26365  0.85818  0.51256  1.0000
  O   O34       1.0  0.24759  0.86298  0.56979  1.0000
  N   N16       1.0  0.25246  0.61208  0.41762  1.0000
  C   C94       1.0  0.25115  0.64056  0.42683  1.0000
  C   C95       1.0  0.25232  0.65811  0.34714  1.0000
  C   C96       1.0  0.25409  0.65363  0.51296  1.0000
  O   O35       1.0  0.27059  0.64922  0.56963  1.0000
  O   O36       1.0  0.23466  0.66216  0.54256  1.0000
  C   C97       1.0  0.49082  0.24684  0.34461  1.0000
  C   C98       1.0  0.41910  0.21096  0.34519  1.0000
  C   C99       1.0  0.43638  0.19322  0.34269  1.0000
  C   C100      1.0  0.47150  0.21129  0.34272  1.0000
  O   O37       1.0  0.38522  0.19401  0.34570  1.0000
  H   H31       1.0  0.48263  0.19727  0.34003  1.0000
  C   C101      1.0  0.30375  0.21105  0.34648  1.0000
  C   C102      1.0  0.32148  0.24606  0.34342  1.0000
  C   C103      1.0  0.30340  0.26310  0.34278  1.0000
  O   O38       1.0  0.32070  0.19411  0.34738  1.0000
  H   H32       1.0  0.31741  0.28824  0.33987  1.0000
  H   H33       1.0  0.29119  0.47969  0.33920  1.0000
  C   C104      1.0  0.30363  0.09562  0.34574  1.0000
  O   O39       1.0  0.32056  0.12951  0.34633  1.0000
  H   H34       1.0  0.29357  0.45059  0.16959  1.0000
  C   C105      1.0  0.35661  0.26245  0.33965  1.0000
  N   N17       1.0  0.40133  0.25991  0.26841  1.0000
  C   C106      1.0  0.37280  0.26111  0.25968  1.0000
  C   C107      1.0  0.35844  0.25620  0.17458  1.0000
  O   O40       1.0  0.36255  0.23880  0.12024  1.0000
  O   O41       1.0  0.35045  0.27555  0.14139  1.0000
  H   H35       1.0  0.34953  0.29157  0.17114  1.0000
  C   C108      1.0  0.41769  0.15809  0.33858  1.0000
  N   N18       1.0  0.37025  0.11333  0.26871  1.0000
  C   C109      1.0  0.39998  0.14179  0.25906  1.0000
  C   C110      1.0  0.40907  0.15601  0.17376  1.0000
  O   O42       1.0  0.38748  0.15162  0.11939  1.0000
  O   O43       1.0  0.43655  0.16460  0.14048  1.0000
  H   H36       1.0  0.45366  0.16583  0.17005  1.0000
  C   C111      1.0  0.47148  0.26305  0.34611  1.0000
  C   C112      1.0  0.43636  0.24599  0.34595  1.0000
  H   H37       1.0  0.37874  0.19005  0.40962  1.0000
  H   H38       1.0  0.48260  0.28821  0.34774  1.0000
  H   H39       1.0  0.32470  0.19173  0.41136  1.0000
  H   H40       1.0  0.29114  0.31444  0.34760  1.0000
  C   C113      1.0  0.30336  0.04325  0.34636  1.0000
  C   C114      1.0  0.32141  0.07837  0.34636  1.0000
  H   H41       1.0  0.32308  0.13597  0.41025  1.0000
  H   H42       1.0  0.31740  0.03214  0.34820  1.0000
  O   O44       1.0  0.28335  0.35002  0.54231  1.0000
  H   H43       1.0  0.29861  0.34863  0.51000  1.0000
  N   N19       1.0  0.37165  0.26236  0.41830  1.0000
  C   C115      1.0  0.40148  0.26371  0.42682  1.0000
  C   C116      1.0  0.41763  0.26241  0.34680  1.0000
  C   C117      1.0  0.41196  0.26096  0.51266  1.0000
  O   O45       1.0  0.39128  0.24494  0.57031  1.0000
  O   O46       1.0  0.43983  0.28088  0.54188  1.0000
  H   H44       1.0  0.45634  0.29616  0.50924  1.0000
  N   N20       1.0  0.40275  0.14333  0.41768  1.0000
  C   C118      1.0  0.37426  0.11355  0.42678  1.0000
  C   C119      1.0  0.35654  0.09708  0.34733  1.0000
  C   C120      1.0  0.36115  0.10335  0.51282  1.0000
  O   O47       1.0  0.36591  0.12419  0.57005  1.0000
  O   O48       1.0  0.35302  0.07549  0.54257  1.0000
  H   H45       1.0  0.35167  0.05886  0.51025  1.0000
  C   C121      1.0  0.49082  0.74684  0.34461  1.0000
  C   C122      1.0  0.41910  0.71096  0.34519  1.0000
  C   C123      1.0  0.43638  0.69322  0.34269  1.0000
  C   C124      1.0  0.47150  0.71129  0.34272  1.0000
  O   O49       1.0  0.38522  0.69401  0.34570  1.0000
  H   H46       1.0  0.48263  0.69727  0.34003  1.0000
  C   C125      1.0  0.30375  0.71105  0.34648  1.0000
  C   C126      1.0  0.32148  0.74606  0.34342  1.0000
  C   C127      1.0  0.30340  0.76310  0.34278  1.0000
  O   O50       1.0  0.32070  0.69411  0.34738  1.0000
  H   H47       1.0  0.31741  0.78824  0.33987  1.0000
  H   H48       1.0  0.29119  0.97969  0.33920  1.0000
  C   C128      1.0  0.30363  0.59562  0.34574  1.0000
  O   O51       1.0  0.32056  0.62951  0.34633  1.0000
  H   H49       1.0  0.29357  0.95059  0.16959  1.0000
  C   C129      1.0  0.35660  0.76245  0.33965  1.0000
  N   N21       1.0  0.40133  0.75991  0.26841  1.0000
  C   C130      1.0  0.37280  0.76111  0.25968  1.0000
  C   C131      1.0  0.35844  0.75620  0.17458  1.0000
  O   O52       1.0  0.36255  0.73880  0.12024  1.0000
  O   O53       1.0  0.35045  0.77555  0.14139  1.0000
  H   H50       1.0  0.34952  0.79157  0.17114  1.0000
  C   C132      1.0  0.41769  0.65809  0.33858  1.0000
  N   N22       1.0  0.37025  0.61333  0.26871  1.0000
  C   C133      1.0  0.39998  0.64178  0.25906  1.0000
  C   C134      1.0  0.40906  0.65601  0.17376  1.0000
  O   O54       1.0  0.38748  0.65162  0.11939  1.0000
  O   O55       1.0  0.43655  0.66460  0.14048  1.0000
  H   H51       1.0  0.45366  0.66583  0.17005  1.0000
  C   C135      1.0  0.47148  0.76305  0.34611  1.0000
  C   C136      1.0  0.43636  0.74599  0.34595  1.0000
  H   H52       1.0  0.37874  0.69005  0.40962  1.0000
  H   H53       1.0  0.48260  0.78821  0.34774  1.0000
  H   H54       1.0  0.32470  0.69173  0.41136  1.0000
  H   H55       1.0  0.29114  0.81443  0.34760  1.0000
  C   C137      1.0  0.30336  0.54325  0.34636  1.0000
  C   C138      1.0  0.32141  0.57837  0.34636  1.0000
  H   H56       1.0  0.32308  0.63597  0.41025  1.0000
  H   H57       1.0  0.31740  0.53214  0.34820  1.0000
  O   O56       1.0  0.28335  0.85002  0.54231  1.0000
  H   H58       1.0  0.29861  0.84863  0.51000  1.0000
  N   N23       1.0  0.37165  0.76236  0.41830  1.0000
  C   C139      1.0  0.40148  0.76370  0.42682  1.0000
  C   C140      1.0  0.41763  0.76241  0.34680  1.0000
  C   C141      1.0  0.41196  0.76096  0.51266  1.0000
  O   O57       1.0  0.39128  0.74494  0.57031  1.0000
  O   O58       1.0  0.43983  0.78088  0.54188  1.0000
  H   H59       1.0  0.45634  0.79616  0.50924  1.0000
  N   N24       1.0  0.40275  0.64333  0.41768  1.0000
  C   C142      1.0  0.37426  0.61355  0.42678  1.0000
  C   C143      1.0  0.35654  0.59708  0.34733  1.0000
  C   C144      1.0  0.36115  0.60335  0.51282  1.0000
  O   O59       1.0  0.36591  0.62419  0.57005  1.0000
  O   O60       1.0  0.35302  0.57549  0.54257  1.0000
  H   H60       1.0  0.35167  0.55886  0.51025  1.0000
  C   C145      1.0  0.52686  0.26488  0.34467  1.0000
  C   C146      1.0  0.54617  0.30042  0.34305  1.0000
  C   C147      1.0  0.58130  0.31849  0.34320  1.0000
  C   C148      1.0  0.59857  0.30076  0.34589  1.0000
  H   H61       1.0  0.53506  0.31445  0.34044  1.0000
  O   O61       1.0  0.63246  0.31770  0.34661  1.0000
  C   C149      1.0  0.99082  0.24684  0.34461  1.0000
  C   C150      1.0  0.91910  0.21096  0.34519  1.0000
  C   C151      1.0  0.93638  0.19322  0.34269  1.0000
  C   C152      1.0  0.97150  0.21129  0.34272  1.0000
  O   O62       1.0  0.88522  0.19401  0.34570  1.0000
  H   H62       1.0  0.98263  0.19727  0.34003  1.0000
  C   C153      1.0  0.74979  0.26483  0.34438  1.0000
  C   C154      1.0  0.71424  0.24858  0.34247  1.0000
  C   C155      1.0  0.69614  0.26561  0.34284  1.0000
  C   C156      1.0  0.71386  0.30063  0.34564  1.0000
  H   H63       1.0  0.70023  0.22344  0.33954  1.0000
  O   O63       1.0  0.69690  0.31755  0.34630  1.0000
  C   C157      1.0  0.76785  0.24685  0.34446  1.0000
  C   C158      1.0  0.80375  0.21105  0.34648  1.0000
  C   C159      1.0  0.82148  0.24606  0.34342  1.0000
  C   C160      1.0  0.80340  0.26310  0.34278  1.0000
  O   O64       1.0  0.82070  0.19411  0.34738  1.0000
  H   H64       1.0  0.81741  0.28824  0.33987  1.0000
  C   C161      1.0  0.74982  0.48787  0.34461  1.0000
  C   C162      1.0  0.76605  0.46856  0.34241  1.0000
  C   C163      1.0  0.74900  0.43344  0.34276  1.0000
  C   C164      1.0  0.71398  0.41616  0.34560  1.0000
  H   H65       1.0  0.79119  0.47969  0.33920  1.0000
  O   O65       1.0  0.69704  0.38227  0.34632  1.0000
  C   C165      1.0  0.76782  0.02392  0.34463  1.0000
  C   C166      1.0  0.80363  0.09562  0.34574  1.0000
  C   C167      1.0  0.76861  0.07834  0.34295  1.0000
  C   C168      1.0  0.75157  0.04322  0.34259  1.0000
  O   O66       1.0  0.82056  0.12951  0.34633  1.0000
  H   H66       1.0  0.72643  0.03209  0.33940  1.0000
  C   C169      1.0  0.66102  0.24916  0.33862  1.0000
  N   N25       1.0  0.61626  0.25173  0.26811  1.0000
  C   C170      1.0  0.64474  0.25046  0.25890  1.0000
  C   C171      1.0  0.65900  0.25541  0.17370  1.0000
  O   O67       1.0  0.65473  0.27257  0.11897  1.0000
  O   O68       1.0  0.66740  0.23630  0.14081  1.0000
  H   H67       1.0  0.66850  0.22040  0.17067  1.0000
  C   C172      1.0  0.76543  0.41476  0.33826  1.0000
  N   N26       1.0  0.76274  0.36725  0.26848  1.0000
  C   C173      1.0  0.76399  0.39697  0.25887  1.0000
  C   C174      1.0  0.75877  0.40601  0.17362  1.0000
  O   O69       1.0  0.74148  0.38441  0.11941  1.0000
  O   O70       1.0  0.77764  0.43347  0.14017  1.0000
  H   H68       1.0  0.79357  0.45059  0.16959  1.0000
  C   C175      1.0  0.60002  0.35361  0.33958  1.0000
  N   N27       1.0  0.64742  0.39839  0.26911  1.0000
  C   C176      1.0  0.61773  0.36986  0.25989  1.0000
  C   C177      1.0  0.60863  0.35561  0.17459  1.0000
  O   O71       1.0  0.63021  0.35934  0.12104  1.0000
  O   O72       1.0  0.58115  0.34703  0.14129  1.0000
  H   H69       1.0  0.56416  0.34618  0.17059  1.0000
  C   C178      1.0  0.85661  0.26245  0.33965  1.0000
  N   N28       1.0  0.90133  0.25991  0.26841  1.0000
  C   C179      1.0  0.87280  0.26111  0.25968  1.0000
  C   C180      1.0  0.85844  0.25620  0.17458  1.0000
  O   O73       1.0  0.86255  0.23880  0.12024  1.0000
  O   O74       1.0  0.85045  0.27555  0.14139  1.0000
  H   H70       1.0  0.84952  0.29157  0.17114  1.0000
  C   C181      1.0  0.75217  0.09701  0.33858  1.0000
  N   N29       1.0  0.75472  0.14444  0.26841  1.0000
  C   C182      1.0  0.75348  0.11471  0.25910  1.0000
  C   C183      1.0  0.75845  0.10546  0.17384  1.0000
  O   O75       1.0  0.77566  0.12694  0.11925  1.0000
  O   O76       1.0  0.73938  0.07798  0.14081  1.0000
  H   H71       1.0  0.72346  0.06096  0.17056  1.0000
  C   C184      1.0  0.91769  0.15809  0.33858  1.0000
  N   N30       1.0  0.87025  0.11333  0.26871  1.0000
  C   C185      1.0  0.89998  0.14179  0.25906  1.0000
  C   C186      1.0  0.90907  0.15601  0.17376  1.0000
  O   O77       1.0  0.88748  0.15162  0.11939  1.0000
  O   O78       1.0  0.93655  0.16460  0.14048  1.0000
  H   H72       1.0  0.95366  0.16583  0.17005  1.0000
  C   C187      1.0  0.58132  0.26573  0.34628  1.0000
  C   C188      1.0  0.54620  0.24866  0.34598  1.0000
  C   C189      1.0  0.97148  0.26305  0.34611  1.0000
  C   C190      1.0  0.93636  0.24599  0.34595  1.0000
  H   H73       1.0  0.63889  0.32173  0.41055  1.0000
  H   H74       1.0  0.87874  0.19005  0.40962  1.0000
  H   H75       1.0  0.53509  0.22350  0.34724  1.0000
  H   H76       1.0  0.98260  0.28821  0.34774  1.0000
  C   C191      1.0  0.74889  0.31841  0.34612  1.0000
  C   C192      1.0  0.76598  0.30038  0.34599  1.0000
  C   C193      1.0  0.75165  0.21130  0.34597  1.0000
  C   C194      1.0  0.76873  0.19326  0.34664  1.0000
  H   H77       1.0  0.69297  0.32007  0.41023  1.0000
  H   H78       1.0  0.82470  0.19173  0.41136  1.0000
  H   H79       1.0  0.79114  0.31444  0.34760  1.0000
  H   H80       1.0  0.72649  0.19724  0.34723  1.0000
  C   C195      1.0  0.69622  0.43342  0.34631  1.0000
  C   C196      1.0  0.71427  0.46854  0.34647  1.0000
  C   C197      1.0  0.80336  0.04325  0.34636  1.0000
  C   C198      1.0  0.82141  0.07837  0.34636  1.0000
  H   H81       1.0  0.69456  0.37584  0.41026  1.0000
  H   H82       1.0  0.82308  0.13597  0.41025  1.0000
  H   H83       1.0  0.70024  0.47966  0.34849  1.0000
  H   H84       1.0  0.81740  0.03214  0.34820  1.0000
  N   N31       1.0  0.64621  0.24940  0.41758  1.0000
  C   C199      1.0  0.61641  0.24811  0.42643  1.0000
  C   C200      1.0  0.60008  0.24934  0.34664  1.0000
  C   C201      1.0  0.60619  0.25100  0.51250  1.0000
  O   O79       1.0  0.62704  0.26759  0.56921  1.0000
  O   O80       1.0  0.57826  0.23142  0.54204  1.0000
  H   H85       1.0  0.56171  0.21599  0.50983  1.0000
  N   N32       1.0  0.76524  0.39975  0.41730  1.0000
  C   C202      1.0  0.76655  0.37127  0.42649  1.0000
  C   C203      1.0  0.76531  0.35354  0.34707  1.0000
  C   C204      1.0  0.76365  0.35818  0.51256  1.0000
  O   O81       1.0  0.74759  0.36299  0.56979  1.0000
  O   O82       1.0  0.78335  0.35002  0.54231  1.0000
  H   H86       1.0  0.79861  0.34863  0.51000  1.0000
  N   N33       1.0  0.61500  0.36861  0.41840  1.0000
  C   C205      1.0  0.64344  0.39846  0.42727  1.0000
  C   C206      1.0  0.66107  0.41474  0.34763  1.0000
  C   C207      1.0  0.65659  0.40883  0.51319  1.0000
  O   O83       1.0  0.65182  0.38809  0.57077  1.0000
  O   O84       1.0  0.66470  0.43673  0.54252  1.0000
  H   H87       1.0  0.66603  0.45330  0.50994  1.0000
  N   N34       1.0  0.87165  0.26236  0.41830  1.0000
  C   C208      1.0  0.90148  0.26371  0.42682  1.0000
  C   C209      1.0  0.91763  0.26241  0.34680  1.0000
  C   C210      1.0  0.91195  0.26096  0.51266  1.0000
  O   O85       1.0  0.89128  0.24494  0.57031  1.0000
  O   O86       1.0  0.93983  0.28088  0.54188  1.0000
  H   H88       1.0  0.95634  0.29616  0.50924  1.0000
  N   N35       1.0  0.75246  0.11208  0.41762  1.0000
  C   C211      1.0  0.75115  0.14056  0.42683  1.0000
  C   C212      1.0  0.75231  0.15811  0.34714  1.0000
  C   C213      1.0  0.75409  0.15363  0.51296  1.0000
  O   O87       1.0  0.77059  0.14922  0.56963  1.0000
  O   O88       1.0  0.73466  0.16216  0.54256  1.0000
  H   H89       1.0  0.71929  0.16340  0.51040  1.0000
  N   N36       1.0  0.90275  0.14333  0.41768  1.0000
  C   C214      1.0  0.87426  0.11355  0.42678  1.0000
  C   C215      1.0  0.85654  0.09708  0.34733  1.0000
  C   C216      1.0  0.86115  0.10335  0.51282  1.0000
  O   O89       1.0  0.86591  0.12419  0.57005  1.0000
  O   O90       1.0  0.85302  0.07549  0.54257  1.0000
  H   H90       1.0  0.85167  0.05886  0.51025  1.0000
  C   C217      1.0  0.52687  0.76488  0.34467  1.0000
  C   C218      1.0  0.54618  0.80043  0.34305  1.0000
  C   C219      1.0  0.58130  0.81849  0.34320  1.0000
  C   C220      1.0  0.59857  0.80075  0.34589  1.0000
  H   H91       1.0  0.53505  0.81445  0.34044  1.0000
  O   O91       1.0  0.63246  0.81770  0.34661  1.0000
  C   C221      1.0  0.99082  0.74684  0.34461  1.0000
  C   C222      1.0  0.91910  0.71096  0.34519  1.0000
  C   C223      1.0  0.93638  0.69322  0.34269  1.0000
  C   C224      1.0  0.97150  0.71129  0.34272  1.0000
  O   O92       1.0  0.88522  0.69401  0.34570  1.0000
  H   H92       1.0  0.98263  0.69727  0.34003  1.0000
  C   C225      1.0  0.74979  0.76484  0.34438  1.0000
  C   C226      1.0  0.71424  0.74858  0.34247  1.0000
  C   C227      1.0  0.69614  0.76561  0.34284  1.0000
  C   C228      1.0  0.71386  0.80063  0.34564  1.0000
  H   H93       1.0  0.70023  0.72344  0.33954  1.0000
  O   O93       1.0  0.69690  0.81755  0.34630  1.0000
  C   C229      1.0  0.76785  0.74685  0.34446  1.0000
  C   C230      1.0  0.80375  0.71105  0.34648  1.0000
  C   C231      1.0  0.82148  0.74606  0.34342  1.0000
  C   C232      1.0  0.80340  0.76310  0.34278  1.0000
  O   O94       1.0  0.82070  0.69411  0.34738  1.0000
  H   H94       1.0  0.81741  0.78824  0.33987  1.0000
  C   C233      1.0  0.74981  0.98787  0.34461  1.0000
  C   C234      1.0  0.76605  0.96856  0.34241  1.0000
  C   C235      1.0  0.74900  0.93344  0.34276  1.0000
  C   C236      1.0  0.71398  0.91616  0.34560  1.0000
  H   H95       1.0  0.79119  0.97969  0.33920  1.0000
  O   O95       1.0  0.69704  0.88227  0.34632  1.0000
  C   C237      1.0  0.76782  0.52392  0.34463  1.0000
  C   C238      1.0  0.80363  0.59562  0.34574  1.0000
  C   C239      1.0  0.76861  0.57834  0.34295  1.0000
  C   C240      1.0  0.75157  0.54322  0.34259  1.0000
  O   O96       1.0  0.82056  0.62951  0.34633  1.0000
  H   H96       1.0  0.72643  0.53209  0.33940  1.0000
  C   C241      1.0  0.66102  0.74916  0.33862  1.0000
  N   N37       1.0  0.61626  0.75173  0.26811  1.0000
  C   C242      1.0  0.64474  0.75046  0.25890  1.0000
  C   C243      1.0  0.65900  0.75540  0.17370  1.0000
  O   O97       1.0  0.65473  0.77257  0.11897  1.0000
  O   O98       1.0  0.66740  0.73630  0.14081  1.0000
  H   H97       1.0  0.66850  0.72040  0.17067  1.0000
  C   C244      1.0  0.76543  0.91476  0.33826  1.0000
  N   N38       1.0  0.76273  0.86725  0.26848  1.0000
  C   C245      1.0  0.76399  0.89697  0.25887  1.0000
  C   C246      1.0  0.75877  0.90601  0.17362  1.0000
  O   O99       1.0  0.74148  0.88441  0.11941  1.0000
  O   O100      1.0  0.77764  0.93347  0.14017  1.0000
  H   H98       1.0  0.79358  0.95059  0.16959  1.0000
  C   C247      1.0  0.60002  0.85361  0.33958  1.0000
  N   N39       1.0  0.64742  0.89839  0.26911  1.0000
  C   C248      1.0  0.61773  0.86986  0.25989  1.0000
  C   C249      1.0  0.60863  0.85561  0.17459  1.0000
  O   O101      1.0  0.63021  0.85934  0.12104  1.0000
  O   O102      1.0  0.58115  0.84703  0.14129  1.0000
  H   H99       1.0  0.56416  0.84617  0.17059  1.0000
  C   C250      1.0  0.85660  0.76245  0.33965  1.0000
  N   N40       1.0  0.90133  0.75991  0.26841  1.0000
  C   C251      1.0  0.87280  0.76111  0.25968  1.0000
  C   C252      1.0  0.85844  0.75620  0.17458  1.0000
  O   O103      1.0  0.86255  0.73880  0.12024  1.0000
  O   O104      1.0  0.85045  0.77555  0.14139  1.0000
  H   H100      1.0  0.84952  0.79157  0.17114  1.0000
  C   C253      1.0  0.75217  0.59701  0.33858  1.0000
  N   N41       1.0  0.75472  0.64444  0.26841  1.0000
  C   C254      1.0  0.75348  0.61472  0.25910  1.0000
  C   C255      1.0  0.75845  0.60546  0.17384  1.0000
  O   O105      1.0  0.77566  0.62694  0.11925  1.0000
  O   O106      1.0  0.73938  0.57798  0.14081  1.0000
  H   H101      1.0  0.72346  0.56095  0.17056  1.0000
  C   C256      1.0  0.91769  0.65809  0.33858  1.0000
  N   N42       1.0  0.87025  0.61333  0.26871  1.0000
  C   C257      1.0  0.89998  0.64178  0.25906  1.0000
  C   C258      1.0  0.90907  0.65601  0.17376  1.0000
  O   O107      1.0  0.88748  0.65162  0.11939  1.0000
  O   O108      1.0  0.93655  0.66460  0.14048  1.0000
  H   H102      1.0  0.95366  0.66583  0.17005  1.0000
  C   C259      1.0  0.58132  0.76573  0.34628  1.0000
  C   C260      1.0  0.54620  0.74866  0.34598  1.0000
  C   C261      1.0  0.97148  0.76305  0.34611  1.0000
  C   C262      1.0  0.93636  0.74599  0.34595  1.0000
  H   H103      1.0  0.63889  0.82173  0.41055  1.0000
  H   H104      1.0  0.87874  0.69005  0.40962  1.0000
  H   H105      1.0  0.53509  0.72350  0.34724  1.0000
  H   H106      1.0  0.98260  0.78821  0.34774  1.0000
  C   C263      1.0  0.74889  0.81842  0.34612  1.0000
  C   C264      1.0  0.76598  0.80038  0.34599  1.0000
  C   C265      1.0  0.75165  0.71130  0.34597  1.0000
  C   C266      1.0  0.76873  0.69326  0.34664  1.0000
  H   H107      1.0  0.69297  0.82007  0.41023  1.0000
  H   H108      1.0  0.82470  0.69173  0.41136  1.0000
  H   H109      1.0  0.79114  0.81443  0.34760  1.0000
  H   H110      1.0  0.72649  0.69724  0.34723  1.0000
  C   C267      1.0  0.69622  0.93342  0.34631  1.0000
  C   C268      1.0  0.71427  0.96854  0.34647  1.0000
  C   C269      1.0  0.80336  0.54325  0.34636  1.0000
  C   C270      1.0  0.82141  0.57837  0.34636  1.0000
  H   H111      1.0  0.69456  0.87584  0.41026  1.0000
  H   H112      1.0  0.82308  0.63597  0.41025  1.0000
  H   H113      1.0  0.70024  0.97966  0.34849  1.0000
  H   H114      1.0  0.81740  0.53214  0.34820  1.0000
  N   N43       1.0  0.64621  0.74941  0.41758  1.0000
  C   C271      1.0  0.61641  0.74811  0.42643  1.0000
  C   C272      1.0  0.60008  0.74934  0.34664  1.0000
  C   C273      1.0  0.60619  0.75099  0.51250  1.0000
  O   O109      1.0  0.62703  0.76759  0.56921  1.0000
  O   O110      1.0  0.57826  0.73142  0.54204  1.0000
  H   H115      1.0  0.56171  0.71599  0.50983  1.0000
  N   N44       1.0  0.76524  0.89975  0.41730  1.0000
  C   C274      1.0  0.76655  0.87127  0.42649  1.0000
  C   C275      1.0  0.76531  0.85354  0.34707  1.0000
  C   C276      1.0  0.76365  0.85818  0.51256  1.0000
  O   O111      1.0  0.74759  0.86298  0.56979  1.0000
  O   O112      1.0  0.78335  0.85002  0.54231  1.0000
  H   H116      1.0  0.79861  0.84863  0.51000  1.0000
  N   N45       1.0  0.61500  0.86861  0.41840  1.0000
  C   C277      1.0  0.64344  0.89845  0.42727  1.0000
  C   C278      1.0  0.66108  0.91474  0.34763  1.0000
  C   C279      1.0  0.65659  0.90883  0.51319  1.0000
  O   O113      1.0  0.65182  0.88809  0.57077  1.0000
  O   O114      1.0  0.66470  0.93673  0.54252  1.0000
  H   H117      1.0  0.66603  0.95330  0.50994  1.0000
  N   N46       1.0  0.87165  0.76236  0.41830  1.0000
  C   C280      1.0  0.90148  0.76370  0.42682  1.0000
  C   C281      1.0  0.91763  0.76241  0.34680  1.0000
  C   C282      1.0  0.91195  0.76096  0.51266  1.0000
  O   O115      1.0  0.89128  0.74494  0.57031  1.0000
  O   O116      1.0  0.93983  0.78088  0.54188  1.0000
  H   H118      1.0  0.95634  0.79616  0.50924  1.0000
  N   N47       1.0  0.75246  0.61208  0.41762  1.0000
  C   C283      1.0  0.75115  0.64056  0.42683  1.0000
  C   C284      1.0  0.75231  0.65811  0.34714  1.0000
  C   C285      1.0  0.75409  0.65363  0.51296  1.0000
  O   O117      1.0  0.77058  0.64922  0.56963  1.0000
  O   O118      1.0  0.73466  0.66216  0.54256  1.0000
  H   H119      1.0  0.71929  0.66340  0.51040  1.0000
  N   N48       1.0  0.90275  0.64333  0.41768  1.0000
  C   C286      1.0  0.87426  0.61355  0.42678  1.0000
  C   C287      1.0  0.85654  0.59708  0.34733  1.0000
  C   C288      1.0  0.86115  0.60335  0.51282  1.0000
  O   O119      1.0  0.86591  0.62419  0.57005  1.0000
  O   O120      1.0  0.85302  0.57549  0.54257  1.0000
  H   H120      1.0  0.85167  0.55886  0.51025  1.0000
