data_image0
_chemical_formula_structural       C2H2C16H16C16H16C16H16C2H2C3HNH2NC2H2C3HNH2NC2H2C3HNH2NC2H2C3HNH2NC2H2C3HNH2NC2H2C3HNH2NC3NC2NC4NC5NC36H24C4H4C3NC3NC5NC5NC36H26C4H4C3NC3NC5NC5NC36H26C4H4C7H3NH2NC7H3NH2NC7H3NH2NC7H3NH2NC7H3NH2NC7H3NH2N
_chemical_formula_sum              "C288 H198 N36"
_cell_length_a       75.1309
_cell_length_b       75.1308
_cell_length_c       14.9773
_cell_angle_alpha    89.7426
_cell_angle_beta     90.2574
_cell_angle_gamma    120

_space_group_name_H-M_alt    "P 1"
_space_group_IT_number       1

loop_
  _space_group_symop_operation_xyz
  'x, y, z'

loop_
  _atom_site_type_symbol
  _atom_site_label
  _atom_site_symmetry_multiplicity
  _atom_site_fract_x
  _atom_site_fract_y
  _atom_site_fract_z
  _atom_site_occupancy
  C   C1        1.0  0.01418  0.58809  0.34802  1.0000
  C   C2        1.0  0.01160  0.51022  0.34865  1.0000
  H   H1        1.0  0.01302  0.61645  0.34585  1.0000
  H   H2        1.0  0.00851  0.47985  0.34486  1.0000
  C   C3        1.0  0.11020  0.66175  0.27866  1.0000
  C   C4        1.0  0.09439  0.64108  0.27456  1.0000
  C   C5        1.0  0.13430  0.70795  0.30811  1.0000
  C   C6        1.0  0.15011  0.72861  0.31394  1.0000
  C   C7        1.0  0.10641  0.52805  0.27646  1.0000
  C   C8        1.0  0.09147  0.53412  0.27320  1.0000
  C   C9        1.0  0.16232  0.52388  0.32208  1.0000
  C   C10       1.0  0.14654  0.52873  0.31439  1.0000
  C   C11       1.0  0.96532  0.47400  0.27549  1.0000
  C   C12       1.0  0.94972  0.45324  0.27965  1.0000
  C   C13       1.0  0.91105  0.38610  0.31133  1.0000
  C   C14       1.0  0.92652  0.40690  0.30550  1.0000
  C   C15       1.0  0.96885  0.58067  0.27301  1.0000
  C   C16       1.0  0.95374  0.58650  0.27629  1.0000
  C   C17       1.0  0.91329  0.58502  0.31409  1.0000
  C   C18       1.0  0.89727  0.58950  0.32184  1.0000
  H   H3        1.0  0.88385  0.58045  0.28809  1.0000
  H   H4        1.0  0.91088  0.57282  0.27534  1.0000
  H   H5        1.0  0.94736  0.58764  0.21756  1.0000
  H   H6        1.0  0.97291  0.57751  0.21249  1.0000
  H   H7        1.0  0.96944  0.48121  0.21473  1.0000
  H   H8        1.0  0.94271  0.44601  0.22142  1.0000
  H   H9        1.0  0.08742  0.53745  0.21270  1.0000
  H   H10       1.0  0.11269  0.52693  0.21774  1.0000
  H   H11       1.0  0.14914  0.54110  0.27597  1.0000
  H   H12       1.0  0.17577  0.53284  0.28853  1.0000
  H   H13       1.0  0.08959  0.63417  0.21357  1.0000
  H   H14       1.0  0.11666  0.66923  0.22012  1.0000
  H   H15       1.0  0.14979  0.73926  0.27200  1.0000
  H   H16       1.0  0.12282  0.70423  0.26237  1.0000
  H   H17       1.0  0.93750  0.41107  0.25716  1.0000
  H   H18       1.0  0.91108  0.37581  0.26679  1.0000
  C   C19       1.0  0.42435  0.53007  0.28250  1.0000
  C   C20       1.0  0.44502  0.53495  0.27848  1.0000
  C   C21       1.0  0.37815  0.50777  0.31203  1.0000
  C   C22       1.0  0.35747  0.50283  0.31769  1.0000
  C   C23       1.0  0.55807  0.66009  0.28035  1.0000
  C   C24       1.0  0.55201  0.63909  0.27710  1.0000
  C   C25       1.0  0.56225  0.72010  0.32587  1.0000
  C   C26       1.0  0.55738  0.69948  0.31829  1.0000
  C   C27       1.0  0.61212  0.57311  0.27953  1.0000
  C   C28       1.0  0.63288  0.57828  0.28363  1.0000
  C   C29       1.0  0.70002  0.60679  0.31517  1.0000
  C   C30       1.0  0.67921  0.60145  0.30953  1.0000
  C   C31       1.0  0.50544  0.46992  0.27686  1.0000
  C   C32       1.0  0.49961  0.44897  0.28012  1.0000
  C   C33       1.0  0.50109  0.40993  0.31788  1.0000
  C   C34       1.0  0.49661  0.38942  0.32565  1.0000
  H   H19       1.0  0.50565  0.38510  0.29189  1.0000
  H   H20       1.0  0.51329  0.41979  0.27915  1.0000
  H   H21       1.0  0.49847  0.44157  0.22138  1.0000
  H   H22       1.0  0.50861  0.47726  0.21635  1.0000
  H   H23       1.0  0.60491  0.57017  0.21875  1.0000
  H   H24       1.0  0.64012  0.57866  0.22536  1.0000
  H   H25       1.0  0.54869  0.63182  0.21660  1.0000
  H   H26       1.0  0.55921  0.66760  0.22160  1.0000
  H   H27       1.0  0.54503  0.68979  0.27973  1.0000
  H   H28       1.0  0.55331  0.72466  0.29223  1.0000
  H   H29       1.0  0.45193  0.53712  0.21751  1.0000
  H   H30       1.0  0.41685  0.52907  0.22390  1.0000
  H   H31       1.0  0.34685  0.49187  0.27591  1.0000
  H   H32       1.0  0.38192  0.50008  0.26656  1.0000
  H   H33       1.0  0.67503  0.60836  0.26135  1.0000
  H   H34       1.0  0.71030  0.61724  0.27075  1.0000
  C   C35       1.0  0.55609  0.97604  0.28629  1.0000
  C   C36       1.0  0.55121  0.99184  0.28230  1.0000
  C   C37       1.0  0.57838  0.95208  0.31579  1.0000
  C   C38       1.0  0.58334  0.93634  0.32147  1.0000
  C   C39       1.0  0.42613  0.97977  0.28251  1.0000
  C   C40       1.0  0.44713  0.99473  0.27985  1.0000
  C   C41       1.0  0.36609  0.92379  0.32573  1.0000
  C   C42       1.0  0.38671  0.93957  0.31886  1.0000
  C   C43       1.0  0.51297  0.12071  0.28339  1.0000
  C   C44       1.0  0.50781  0.13630  0.28748  1.0000
  C   C45       1.0  0.47932  0.17489  0.31901  1.0000
  C   C46       1.0  0.48465  0.15943  0.31336  1.0000
  C   C47       1.0  0.61610  0.11718  0.27950  1.0000
  C   C48       1.0  0.63704  0.13232  0.28222  1.0000
  C   C49       1.0  0.67610  0.17283  0.31855  1.0000
  C   C50       1.0  0.69662  0.18887  0.32566  1.0000
  H   H35       1.0  0.70089  0.20222  0.29138  1.0000
  H   H36       1.0  0.66619  0.17517  0.27988  1.0000
  H   H37       1.0  0.64438  0.13861  0.22327  1.0000
  H   H38       1.0  0.60869  0.11302  0.21915  1.0000
  H   H39       1.0  0.51592  0.11656  0.22263  1.0000
  H   H40       1.0  0.50743  0.14327  0.22922  1.0000
  H   H41       1.0  0.45448  0.99889  0.21953  1.0000
  H   H42       1.0  0.41870  0.97359  0.22354  1.0000
  H   H43       1.0  0.39647  0.93705  0.28048  1.0000
  H   H44       1.0  0.36159  0.91040  0.29176  1.0000
  H   H45       1.0  0.54905  0.99670  0.22134  1.0000
  H   H46       1.0  0.55711  0.96967  0.22767  1.0000
  H   H47       1.0  0.59431  0.93677  0.27976  1.0000
  H   H48       1.0  0.58610  0.96365  0.27047  1.0000
  H   H49       1.0  0.47773  0.14841  0.26520  1.0000
  H   H50       1.0  0.46888  0.17482  0.27455  1.0000
  C   C51       1.0  0.23424  0.50475  0.25689  1.0000
  C   C52       1.0  0.21552  0.50473  0.25807  1.0000
  H   H51       1.0  0.23982  0.50326  0.19683  1.0000
  H   H52       1.0  0.20796  0.50326  0.19912  1.0000
  C   C53       1.0  0.30394  0.51098  0.33027  1.0000
  C   C54       1.0  0.30187  0.52738  0.29626  1.0000
  C   C55       1.0  0.28278  0.52690  0.29663  1.0000
  H   H53       1.0  0.31473  0.54027  0.27360  1.0000
  N   N1        1.0  0.28220  0.54376  0.26695  1.0000
  H   H54       1.0  0.26968  0.54452  0.26800  1.0000
  H   H55       1.0  0.29451  0.55588  0.24525  1.0000
  N   N2        1.0  0.32266  0.51321  0.33160  1.0000
  C   C56       1.0  0.58137  0.81125  0.26064  1.0000
  C   C57       1.0  0.58140  0.79257  0.26182  1.0000
  H   H56       1.0  0.58285  0.81844  0.20057  1.0000
  H   H57       1.0  0.58286  0.78657  0.20286  1.0000
  C   C58       1.0  0.57515  0.87460  0.33404  1.0000
  C   C59       1.0  0.55875  0.85620  0.29997  1.0000
  C   C60       1.0  0.55923  0.83758  0.30040  1.0000
  H   H58       1.0  0.54585  0.85620  0.27744  1.0000
  N   N3        1.0  0.54236  0.82019  0.27076  1.0000
  H   H59       1.0  0.54160  0.80691  0.27192  1.0000
  H   H60       1.0  0.53024  0.82042  0.24913  1.0000
  N   N4        1.0  0.57291  0.89108  0.33539  1.0000
  C   C61       1.0  0.27495  0.85220  0.25636  1.0000
  C   C62       1.0  0.29366  0.87089  0.25858  1.0000
  H   H61       1.0  0.26785  0.84679  0.19599  1.0000
  H   H62       1.0  0.29974  0.87862  0.20004  1.0000
  C   C63       1.0  0.21153  0.78225  0.32662  1.0000
  C   C64       1.0  0.22997  0.78442  0.29249  1.0000
  C   C65       1.0  0.24857  0.80354  0.29359  1.0000
  H   H63       1.0  0.23001  0.77162  0.26943  1.0000
  N   N5        1.0  0.26600  0.80420  0.26393  1.0000
  H   H64       1.0  0.27927  0.81673  0.26546  1.0000
  H   H65       1.0  0.26580  0.79194  0.24171  1.0000
  N   N6        1.0  0.19509  0.76350  0.32767  1.0000
  C   C66       1.0  0.82406  0.60696  0.25805  1.0000
  C   C67       1.0  0.84291  0.60726  0.25895  1.0000
  H   H66       1.0  0.81827  0.60836  0.19806  1.0000
  H   H67       1.0  0.85037  0.60884  0.19987  1.0000
  C   C68       1.0  0.75425  0.60006  0.33239  1.0000
  C   C69       1.0  0.75639  0.58373  0.29900  1.0000
  C   C70       1.0  0.77558  0.58439  0.29919  1.0000
  H   H68       1.0  0.74354  0.57076  0.27688  1.0000
  N   N7        1.0  0.77624  0.56758  0.27006  1.0000
  H   H69       1.0  0.78884  0.56696  0.27097  1.0000
  H   H70       1.0  0.76393  0.55539  0.24890  1.0000
  N   N8        1.0  0.73546  0.59766  0.33378  1.0000
  C   C71       1.0  0.47914  0.29886  0.26186  1.0000
  C   C72       1.0  0.47884  0.31741  0.26275  1.0000
  H   H71       1.0  0.47774  0.29178  0.20187  1.0000
  H   H72       1.0  0.47727  0.32340  0.20368  1.0000
  C   C73       1.0  0.48606  0.23583  0.33613  1.0000
  C   C74       1.0  0.50240  0.25438  0.30279  1.0000
  C   C75       1.0  0.50173  0.27290  0.30300  1.0000
  H   H73       1.0  0.51537  0.25454  0.28068  1.0000
  N   N9        1.0  0.51853  0.29042  0.27390  1.0000
  H   H74       1.0  0.51915  0.30364  0.27484  1.0000
  H   H75       1.0  0.53073  0.29035  0.25275  1.0000
  N   N10       1.0  0.48848  0.21945  0.33751  1.0000
  C   C76       1.0  0.78715  0.26177  0.25771  1.0000
  C   C77       1.0  0.76859  0.24293  0.25962  1.0000
  H   H76       1.0  0.79415  0.26739  0.19741  1.0000
  H   H77       1.0  0.76251  0.23531  0.20093  1.0000
  C   C78       1.0  0.85032  0.33178  0.32889  1.0000
  C   C79       1.0  0.83175  0.32955  0.29542  1.0000
  C   C80       1.0  0.81322  0.31036  0.29643  1.0000
  H   H78       1.0  0.83156  0.34236  0.27293  1.0000
  N   N11       1.0  0.79567  0.30963  0.26733  1.0000
  H   H79       1.0  0.78245  0.29704  0.26884  1.0000
  H   H80       1.0  0.79572  0.32190  0.24567  1.0000
  N   N12       1.0  0.86668  0.35058  0.32988  1.0000
  C   C81       1.0  0.02150  0.60924  0.34634  1.0000
  C   C82       1.0  0.04271  0.61931  0.34665  1.0000
  C   C83       1.0  0.04884  0.60455  0.34826  1.0000
  N   N13       1.0  0.03118  0.58615  0.34846  1.0000
  C   C84       1.0  0.99307  0.57261  0.34968  1.0000
  C   C85       1.0  0.98565  0.55112  0.35078  1.0000
  N   N14       1.0  0.99675  0.54148  0.34880  1.0000
  C   C86       1.0  0.98465  0.52082  0.35137  1.0000
  C   C87       1.0  0.96444  0.51695  0.35502  1.0000
  C   C88       1.0  0.96506  0.53562  0.35459  1.0000
  C   C89       1.0  0.99086  0.50581  0.35070  1.0000
  N   N15       1.0  0.02927  0.52862  0.34931  1.0000
  C   C90       1.0  0.04626  0.52668  0.34824  1.0000
  C   C91       1.0  0.03894  0.50554  0.34577  1.0000
  C   C92       1.0  0.01774  0.49547  0.34606  1.0000
  C   C93       1.0  0.06738  0.54215  0.34985  1.0000
  C   C94       1.0  0.07480  0.56363  0.35073  1.0000
  N   N16       1.0  0.06369  0.57327  0.34875  1.0000
  C   C95       1.0  0.07580  0.59393  0.35087  1.0000
  C   C96       1.0  0.09601  0.59780  0.35412  1.0000
  C   C97       1.0  0.09540  0.57913  0.35407  1.0000
  C   C98       1.0  0.06959  0.60894  0.35017  1.0000
  C   C99       1.0  0.08539  0.62995  0.35364  1.0000
  C   C100      1.0  0.09243  0.63986  0.43671  1.0000
  C   C101      1.0  0.10827  0.66050  0.44051  1.0000
  C   C102      1.0  0.11753  0.67183  0.36168  1.0000
  C   C103      1.0  0.13380  0.69275  0.36611  1.0000
  C   C104      1.0  0.16589  0.73463  0.37816  1.0000
  C   C105      1.0  0.16560  0.71961  0.43599  1.0000
  C   C106      1.0  0.14984  0.69898  0.42964  1.0000
  C   C107      1.0  0.08226  0.53569  0.35246  1.0000
  C   C108      1.0  0.08816  0.53098  0.43482  1.0000
  C   C109      1.0  0.10303  0.52484  0.43777  1.0000
  C   C110      1.0  0.11246  0.52329  0.35874  1.0000
  C   C111      1.0  0.12797  0.51759  0.36254  1.0000
  C   C112      1.0  0.12559  0.50111  0.41716  1.0000
  C   C113      1.0  0.14133  0.49622  0.42474  1.0000
  C   C114      1.0  0.16003  0.50759  0.37777  1.0000
  C   C115      1.0  0.97509  0.48479  0.35424  1.0000
  C   C116      1.0  0.94339  0.44270  0.36238  1.0000
  C   C117      1.0  0.95339  0.45371  0.44085  1.0000
  C   C118      1.0  0.96900  0.47444  0.43701  1.0000
  C   C119      1.0  0.92744  0.42165  0.36688  1.0000
  C   C120      1.0  0.91213  0.41480  0.43386  1.0000
  C   C121      1.0  0.89672  0.39402  0.44023  1.0000
  C   C122      1.0  0.89602  0.37947  0.37898  1.0000
  C   C123      1.0  0.97817  0.57904  0.35229  1.0000
  C   C124      1.0  0.97222  0.58347  0.43470  1.0000
  C   C125      1.0  0.95717  0.58938  0.43766  1.0000
  C   C126      1.0  0.94760  0.59095  0.35863  1.0000
  C   C127      1.0  0.93186  0.59630  0.36249  1.0000
  C   C128      1.0  0.89928  0.60553  0.37798  1.0000
  C   C129      1.0  0.91797  0.61704  0.42521  1.0000
  C   C130      1.0  0.93396  0.61252  0.41749  1.0000
  H   H81       1.0  0.92004  0.62868  0.46697  1.0000
  H   H82       1.0  0.94720  0.62120  0.45306  1.0000
  H   H83       1.0  0.95287  0.59198  0.49875  1.0000
  H   H84       1.0  0.97862  0.58220  0.49314  1.0000
  H   H85       1.0  0.05194  0.63493  0.34628  1.0000
  H   H86       1.0  0.03075  0.57317  0.35098  1.0000
  H   H87       1.0  0.02970  0.54159  0.35291  1.0000
  H   H88       1.0  0.95242  0.53735  0.35726  1.0000
  H   H89       1.0  0.95128  0.50296  0.35792  1.0000
  H   H90       1.0  0.97593  0.48192  0.49500  1.0000
  H   H91       1.0  0.94963  0.44663  0.50192  1.0000
  H   H92       1.0  0.04742  0.49833  0.34439  1.0000
  H   H93       1.0  0.10918  0.61179  0.35654  1.0000
  H   H94       1.0  0.10804  0.57740  0.35652  1.0000
  H   H95       1.0  0.08180  0.53216  0.49325  1.0000
  H   H96       1.0  0.10727  0.52199  0.49882  1.0000
  H   H97       1.0  0.13908  0.48440  0.46620  1.0000
  H   H98       1.0  0.11233  0.49252  0.45249  1.0000
  H   H99       1.0  0.15032  0.68847  0.47188  1.0000
  H   H100      1.0  0.17686  0.72353  0.48317  1.0000
  H   H101      1.0  0.11280  0.66725  0.50189  1.0000
  H   H102      1.0  0.08611  0.63211  0.49497  1.0000
  H   H103      1.0  0.91195  0.42495  0.47870  1.0000
  H   H104      1.0  0.88599  0.38965  0.48991  1.0000
  C   C131      1.0  0.18102  0.75489  0.38724  1.0000
  C   C132      1.0  0.17597  0.50353  0.39199  1.0000
  C   C133      1.0  0.88122  0.35907  0.38779  1.0000
  C   C134      1.0  0.88312  0.60922  0.39233  1.0000
  H   H105      1.0  0.18184  0.76207  0.44410  1.0000
  H   H106      1.0  0.88288  0.61598  0.44894  1.0000
  H   H107      1.0  0.88086  0.35173  0.44380  1.0000
  H   H108      1.0  0.17621  0.49670  0.44874  1.0000
  C   C135      1.0  0.47688  0.49387  0.35045  1.0000
  C   C136      1.0  0.46681  0.50501  0.35082  1.0000
  C   C137      1.0  0.48157  0.52590  0.35234  1.0000
  N   N17       1.0  0.49997  0.52664  0.35246  1.0000
  C   C138      1.0  0.49803  0.50770  0.35200  1.0000
  C   C139      1.0  0.51351  0.50207  0.35357  1.0000
  C   C140      1.0  0.53499  0.51613  0.35465  1.0000
  N   N18       1.0  0.54463  0.53688  0.35280  1.0000
  C   C141      1.0  0.56529  0.54543  0.35533  1.0000
  C   C142      1.0  0.56917  0.52909  0.35880  1.0000
  C   C143      1.0  0.55050  0.51104  0.35838  1.0000
  C   C144      1.0  0.58030  0.56665  0.35481  1.0000
  C   C145      1.0  0.57590  0.58299  0.35288  1.0000
  N   N19       1.0  0.55749  0.58225  0.35343  1.0000
  C   C146      1.0  0.55944  0.60119  0.35239  1.0000
  C   C147      1.0  0.58058  0.61502  0.35019  1.0000
  C   C148      1.0  0.59065  0.60388  0.35053  1.0000
  C   C149      1.0  0.54396  0.60683  0.35378  1.0000
  C   C150      1.0  0.52248  0.59277  0.35463  1.0000
  N   N20       1.0  0.51284  0.57202  0.35278  1.0000
  C   C151      1.0  0.49218  0.56347  0.35484  1.0000
  C   C152      1.0  0.48831  0.57981  0.35791  1.0000
  C   C153      1.0  0.50698  0.59786  0.35781  1.0000
  C   C154      1.0  0.47717  0.54225  0.35421  1.0000
  C   C155      1.0  0.45617  0.53703  0.35763  1.0000
  C   C156      1.0  0.44626  0.53409  0.44067  1.0000
  C   C157      1.0  0.42561  0.52925  0.44438  1.0000
  C   C158      1.0  0.41426  0.52721  0.36548  1.0000
  C   C159      1.0  0.39332  0.52248  0.36978  1.0000
  C   C160      1.0  0.35139  0.51250  0.38152  1.0000
  C   C161      1.0  0.36638  0.52725  0.43913  1.0000
  C   C162      1.0  0.38704  0.53221  0.43294  1.0000
  C   C163      1.0  0.55042  0.62816  0.35637  1.0000
  C   C164      1.0  0.55512  0.63863  0.43874  1.0000
  C   C165      1.0  0.56125  0.65964  0.44166  1.0000
  C   C166      1.0  0.56282  0.67076  0.36262  1.0000
  C   C167      1.0  0.56853  0.69196  0.36640  1.0000
  C   C168      1.0  0.58500  0.70596  0.42100  1.0000
  C   C169      1.0  0.58990  0.72658  0.42857  1.0000
  C   C170      1.0  0.57854  0.73400  0.38155  1.0000
  C   C171      1.0  0.60132  0.57189  0.35832  1.0000
  C   C172      1.0  0.64342  0.58231  0.36635  1.0000
  C   C173      1.0  0.63240  0.58110  0.44489  1.0000
  C   C174      1.0  0.61166  0.57596  0.44109  1.0000
  C   C175      1.0  0.66449  0.58744  0.37077  1.0000
  C   C176      1.0  0.67136  0.57883  0.43751  1.0000
  C   C177      1.0  0.69215  0.58422  0.44374  1.0000
  C   C178      1.0  0.70669  0.59825  0.38258  1.0000
  C   C179      1.0  0.50707  0.48073  0.35615  1.0000
  C   C180      1.0  0.50265  0.47019  0.43855  1.0000
  C   C181      1.0  0.49675  0.44924  0.44149  1.0000
  C   C182      1.0  0.49517  0.43824  0.36245  1.0000
  C   C183      1.0  0.48981  0.41713  0.36628  1.0000
  C   C184      1.0  0.48058  0.37530  0.38176  1.0000
  C   C185      1.0  0.46907  0.38241  0.42898  1.0000
  C   C186      1.0  0.47359  0.40292  0.42128  1.0000
  H   H109      1.0  0.45742  0.37275  0.47073  1.0000
  H   H110      1.0  0.46490  0.40741  0.45683  1.0000
  H   H111      1.0  0.49413  0.44222  0.50257  1.0000
  H   H112      1.0  0.50391  0.47776  0.49701  1.0000
  H   H113      1.0  0.46967  0.47818  0.34999  1.0000
  H   H114      1.0  0.45118  0.49862  0.35053  1.0000
  H   H115      1.0  0.51295  0.53918  0.35483  1.0000
  H   H116      1.0  0.54453  0.56971  0.35651  1.0000
  H   H117      1.0  0.54876  0.49666  0.36094  1.0000
  H   H118      1.0  0.58316  0.52991  0.36173  1.0000
  H   H119      1.0  0.60418  0.57526  0.49912  1.0000
  H   H120      1.0  0.63948  0.58427  0.50595  1.0000
  H   H121      1.0  0.60627  0.61027  0.34943  1.0000
  H   H122      1.0  0.58779  0.63071  0.34885  1.0000
  H   H123      1.0  0.47432  0.57898  0.36022  1.0000
  H   H124      1.0  0.50872  0.61224  0.36012  1.0000
  H   H125      1.0  0.55393  0.63099  0.49717  1.0000
  H   H126      1.0  0.56411  0.66662  0.50271  1.0000
  H   H127      1.0  0.60173  0.73608  0.47001  1.0000
  H   H128      1.0  0.59360  0.70124  0.45636  1.0000
  H   H129      1.0  0.39751  0.54318  0.47501  1.0000
  H   H130      1.0  0.36241  0.53452  0.48603  1.0000
  H   H131      1.0  0.41886  0.52697  0.50574  1.0000
  H   H132      1.0  0.45402  0.53548  0.49898  1.0000
  H   H133      1.0  0.66123  0.56838  0.48226  1.0000
  H   H134      1.0  0.69655  0.57775  0.49324  1.0000
  C   C187      1.0  0.33111  0.50727  0.39034  1.0000
  C   C188      1.0  0.58262  0.75398  0.39573  1.0000
  C   C189      1.0  0.72709  0.60385  0.39115  1.0000
  C   C190      1.0  0.47689  0.35543  0.39610  1.0000
  H   H135      1.0  0.32384  0.50054  0.44666  1.0000
  H   H136      1.0  0.47011  0.34831  0.45268  1.0000
  H   H137      1.0  0.73453  0.61098  0.44659  1.0000
  H   H138      1.0  0.58948  0.76097  0.45240  1.0000
  C   C191      1.0  0.59225  0.06463  0.35434  1.0000
  C   C192      1.0  0.58112  0.04342  0.35483  1.0000
  C   C193      1.0  0.56023  0.03728  0.35627  1.0000
  N   N21       1.0  0.55949  0.05495  0.35630  1.0000
  C   C194      1.0  0.57842  0.07195  0.35572  1.0000
  C   C195      1.0  0.58405  0.09306  0.35700  1.0000
  C   C196      1.0  0.56997  0.10046  0.35816  1.0000
  N   N22       1.0  0.54922  0.08935  0.35652  1.0000
  C   C197      1.0  0.54067  0.10145  0.35911  1.0000
  C   C198      1.0  0.55700  0.12166  0.36246  1.0000
  C   C199      1.0  0.57506  0.12105  0.36177  1.0000
  C   C200      1.0  0.51945  0.09523  0.35869  1.0000
  C   C201      1.0  0.50311  0.07448  0.35667  1.0000
  N   N23       1.0  0.50385  0.05682  0.35723  1.0000
  C   C202      1.0  0.48492  0.03982  0.35604  1.0000
  C   C203      1.0  0.47109  0.04714  0.35367  1.0000
  C   C204      1.0  0.48222  0.06834  0.35416  1.0000
  C   C205      1.0  0.47929  0.01871  0.35741  1.0000
  C   C206      1.0  0.49336  0.01130  0.35833  1.0000
  N   N24       1.0  0.51410  0.02242  0.35662  1.0000
  C   C207      1.0  0.52266  0.01032  0.35865  1.0000
  C   C208      1.0  0.50633  0.99009  0.36159  1.0000
  C   C209      1.0  0.48827  0.99070  0.36140  1.0000
  C   C210      1.0  0.54389  0.01653  0.35807  1.0000
  C   C211      1.0  0.54911  0.00074  0.36146  1.0000
  C   C212      1.0  0.55203  0.99361  0.44451  1.0000
  C   C213      1.0  0.55686  0.97779  0.44818  1.0000
  C   C214      1.0  0.55892  0.96864  0.36926  1.0000
  C   C215      1.0  0.56366  0.95242  0.37352  1.0000
  C   C216      1.0  0.57364  0.92045  0.38518  1.0000
  C   C217      1.0  0.55888  0.92057  0.44274  1.0000
  C   C218      1.0  0.55391  0.93628  0.43659  1.0000
  C   C219      1.0  0.45795  0.00382  0.35946  1.0000
  C   C220      1.0  0.44739  0.99778  0.44156  1.0000
  C   C221      1.0  0.42638  0.98289  0.44390  1.0000
  C   C222      1.0  0.41536  0.97357  0.36452  1.0000
  C   C223      1.0  0.39416  0.95805  0.36767  1.0000
  C   C224      1.0  0.38007  0.96032  0.42217  1.0000
  C   C225      1.0  0.35944  0.94456  0.42900  1.0000
  C   C226      1.0  0.35210  0.92596  0.38133  1.0000
  C   C227      1.0  0.51419  0.11100  0.36219  1.0000
  C   C228      1.0  0.50378  0.14266  0.37020  1.0000
  C   C229      1.0  0.50499  0.13272  0.44875  1.0000
  C   C230      1.0  0.51013  0.11712  0.44497  1.0000
  C   C231      1.0  0.49866  0.15860  0.37461  1.0000
  C   C232      1.0  0.50727  0.17397  0.44135  1.0000
  C   C233      1.0  0.50190  0.18937  0.44754  1.0000
  C   C234      1.0  0.48788  0.18999  0.38636  1.0000
  C   C235      1.0  0.60538  0.10796  0.35909  1.0000
  C   C236      1.0  0.61601  0.11405  0.44125  1.0000
  C   C237      1.0  0.63696  0.12912  0.44366  1.0000
  C   C238      1.0  0.64786  0.13858  0.36431  1.0000
  C   C239      1.0  0.66897  0.15435  0.36757  1.0000
  C   C240      1.0  0.71082  0.18695  0.38158  1.0000
  C   C241      1.0  0.70379  0.16835  0.42944  1.0000
  C   C242      1.0  0.68326  0.15235  0.42245  1.0000
  H   H139      1.0  0.71350  0.16635  0.47108  1.0000
  H   H140      1.0  0.67882  0.13917  0.45841  1.0000
  H   H141      1.0  0.64404  0.13352  0.50458  1.0000
  H   H142      1.0  0.60850  0.10773  0.49992  1.0000
  H   H143      1.0  0.60795  0.07312  0.35375  1.0000
  H   H144      1.0  0.58752  0.03419  0.35456  1.0000
  H   H145      1.0  0.54694  0.05537  0.35828  1.0000
  H   H146      1.0  0.51640  0.05639  0.36070  1.0000
  H   H147      1.0  0.58944  0.13370  0.36430  1.0000
  H   H148      1.0  0.55617  0.13482  0.36538  1.0000
  H   H149      1.0  0.51083  0.11024  0.50299  1.0000
  H   H150      1.0  0.50182  0.13652  0.50981  1.0000
  H   H151      1.0  0.47582  0.07757  0.35303  1.0000
  H   H152      1.0  0.45540  0.03865  0.35229  1.0000
  H   H153      1.0  0.50716  0.97693  0.36378  1.0000
  H   H154      1.0  0.47389  0.97805  0.36356  1.0000
  H   H155      1.0  0.45495  0.00404  0.50022  1.0000
  H   H156      1.0  0.41932  0.97854  0.50476  1.0000
  H   H157      1.0  0.34988  0.94673  0.47041  1.0000
  H   H158      1.0  0.38474  0.97350  0.45796  1.0000
  H   H159      1.0  0.54293  0.93570  0.47863  1.0000
  H   H160      1.0  0.55159  0.90923  0.48959  1.0000
  H   H161      1.0  0.55914  0.97320  0.50953  1.0000
  H   H162      1.0  0.55063  0.99986  0.50281  1.0000
  H   H163      1.0  0.51772  0.17420  0.48608  1.0000
  H   H164      1.0  0.50838  0.20015  0.49699  1.0000
  C   C243      1.0  0.57888  0.90539  0.39401  1.0000
  C   C244      1.0  0.33210  0.90999  0.39475  1.0000
  C   C245      1.0  0.48229  0.20479  0.39490  1.0000
  C   C246      1.0  0.73072  0.20312  0.39510  1.0000
  H   H165      1.0  0.58566  0.90479  0.45025  1.0000
  H   H166      1.0  0.73790  0.20350  0.45168  1.0000
  H   H167      1.0  0.47514  0.20498  0.45031  1.0000
  H   H168      1.0  0.32507  0.90960  0.45151  1.0000
  C   C247      1.0  0.20741  0.50703  0.33892  1.0000
  C   C248      1.0  0.21862  0.50966  0.41858  1.0000
  C   C249      1.0  0.23769  0.51008  0.41897  1.0000
  C   C250      1.0  0.24557  0.50760  0.33642  1.0000
  C   C251      1.0  0.26513  0.50901  0.33010  1.0000
  C   C252      1.0  0.26707  0.49226  0.36123  1.0000
  C   C253      1.0  0.28624  0.49325  0.36161  1.0000
  H   H169      1.0  0.25455  0.47930  0.38560  1.0000
  H   H170      1.0  0.28723  0.48099  0.38549  1.0000
  H   H171      1.0  0.21321  0.51219  0.47696  1.0000
  N   N25       1.0  0.24795  0.51344  0.49786  1.0000
  H   H172      1.0  0.24233  0.51528  0.55324  1.0000
  H   H173      1.0  0.26131  0.51440  0.50172  1.0000
  N   N26       1.0  0.19059  0.50868  0.33537  1.0000
  C   C254      1.0  0.57913  0.78202  0.34267  1.0000
  C   C255      1.0  0.57648  0.79045  0.42231  1.0000
  C   C256      1.0  0.57606  0.80910  0.42271  1.0000
  C   C257      1.0  0.57854  0.81961  0.34017  1.0000
  C   C258      1.0  0.57712  0.83777  0.33386  1.0000
  C   C259      1.0  0.59388  0.85640  0.36498  1.0000
  C   C260      1.0  0.59289  0.87459  0.36534  1.0000
  H   H174      1.0  0.60684  0.85681  0.38932  1.0000
  H   H175      1.0  0.60514  0.88779  0.38924  1.0000
  H   H176      1.0  0.57397  0.78242  0.48070  1.0000
  N   N27       1.0  0.57270  0.81586  0.50161  1.0000
  H   H177      1.0  0.57087  0.80830  0.55698  1.0000
  H   H178      1.0  0.57175  0.82825  0.50548  1.0000
  N   N28       1.0  0.57746  0.76355  0.33913  1.0000
  C   C261      1.0  0.30411  0.87874  0.33985  1.0000
  C   C262      1.0  0.29554  0.86730  0.41889  1.0000
  C   C263      1.0  0.27687  0.84826  0.41823  1.0000
  C   C264      1.0  0.26648  0.84063  0.33525  1.0000
  C   C265      1.0  0.24832  0.82109  0.32785  1.0000
  C   C266      1.0  0.22965  0.81906  0.35895  1.0000
  C   C267      1.0  0.21148  0.79986  0.35865  1.0000
  H   H179      1.0  0.22921  0.83149  0.38401  1.0000
  H   H180      1.0  0.19826  0.79879  0.38274  1.0000
  H   H181      1.0  0.30349  0.87253  0.47758  1.0000
  N   N29       1.0  0.26998  0.83777  0.49656  1.0000
  H   H182      1.0  0.27747  0.84322  0.55224  1.0000
  H   H183      1.0  0.25758  0.82442  0.49969  1.0000
  N   N30       1.0  0.32258  0.89556  0.33727  1.0000
  C   C268      1.0  0.85132  0.60512  0.33970  1.0000
  C   C269      1.0  0.84026  0.60235  0.41958  1.0000
  C   C270      1.0  0.82107  0.60167  0.42027  1.0000
  C   C271      1.0  0.81289  0.60400  0.33781  1.0000
  C   C272      1.0  0.79322  0.60239  0.33185  1.0000
  C   C273      1.0  0.79120  0.61907  0.36242  1.0000
  C   C274      1.0  0.77194  0.61791  0.36298  1.0000
  H   H184      1.0  0.80371  0.63210  0.38625  1.0000
  H   H185      1.0  0.77091  0.63012  0.38640  1.0000
  H   H186      1.0  0.84590  0.59997  0.47794  1.0000
  N   N31       1.0  0.81098  0.59822  0.49939  1.0000
  H   H187      1.0  0.81679  0.59646  0.55469  1.0000
  H   H188      1.0  0.79754  0.59706  0.50344  1.0000
  N   N32       1.0  0.86833  0.60382  0.33599  1.0000
  C   C275      1.0  0.48097  0.32781  0.34352  1.0000
  C   C276      1.0  0.48374  0.31938  0.42340  1.0000
  C   C277      1.0  0.48444  0.30087  0.42408  1.0000
  C   C278      1.0  0.48210  0.29051  0.34162  1.0000
  C   C279      1.0  0.48372  0.27247  0.33566  1.0000
  C   C280      1.0  0.46704  0.25371  0.36620  1.0000
  C   C281      1.0  0.46821  0.23562  0.36671  1.0000
  H   H189      1.0  0.45400  0.25313  0.38996  1.0000
  H   H190      1.0  0.45599  0.22232  0.39007  1.0000
  H   H191      1.0  0.48615  0.32731  0.48174  1.0000
  N   N33       1.0  0.48790  0.29410  0.50319  1.0000
  H   H192      1.0  0.48963  0.30156  0.55851  1.0000
  H   H193      1.0  0.48903  0.28180  0.50726  1.0000
  N   N34       1.0  0.48229  0.34613  0.33978  1.0000
  C   C282      1.0  0.75831  0.23474  0.34083  1.0000
  C   C283      1.0  0.76686  0.24603  0.42008  1.0000
  C   C284      1.0  0.78538  0.26521  0.41976  1.0000
  C   C285      1.0  0.79563  0.27315  0.33687  1.0000
  C   C286      1.0  0.81368  0.29279  0.32989  1.0000
  C   C287      1.0  0.83247  0.29489  0.36041  1.0000
  C   C288      1.0  0.85056  0.31415  0.36018  1.0000
  H   H194      1.0  0.83307  0.28244  0.38478  1.0000
  H   H195      1.0  0.86387  0.31525  0.38369  1.0000
  H   H196      1.0  0.75901  0.24056  0.47874  1.0000
  N   N35       1.0  0.79227  0.27552  0.49833  1.0000
  H   H197      1.0  0.78489  0.26986  0.55396  1.0000
  H   H198      1.0  0.80458  0.28895  0.50170  1.0000
  N   N36       1.0  0.73997  0.21775  0.33798  1.0000
