data_image0
_chemical_formula_structural       C4HCOHC5HOHCNHCNHC4H2C4H2C2HC4HOHOHC3NCHNHC2HC2H3C7HC6HOHOHC4HC6HOHOHC4HC5HOHOHC4HC6HOHOHC4HC6HOHOHC4HC6HOHOHCNCHNHCNCHNHCNCHNHCNCHNHCNCHNHC5HOHC4HC6HOHOHC4HC6HOHOHC4HCOHC4HC6HOHOHC4HC6HOHOHC6H3C6H3C6H3C6H3C6H3C6H3C6H3C6H3C6H3C6H3CNCNHCNCHNHCNCHNCNCHNHCNCHNHCNCHNHC4HC6HOHOHC4HC6HOHOHC4HC6HOHOHC4HC6HOHOHC4HC6HOHOHCNHCNCHNHCNCHNHCNHCNCHNHCNCHNH
_chemical_formula_sum              "C288 H144 O36 N36"
_cell_length_a       59.5064
_cell_length_b       59.5063
_cell_length_c       14.9155
_cell_angle_alpha    90
_cell_angle_beta     90
_cell_angle_gamma    120

_space_group_name_H-M_alt    "P 1"
_space_group_IT_number       1

loop_
  _space_group_symop_operation_xyz
  'x, y, z'

loop_
  _atom_site_type_symbol
  _atom_site_label
  _atom_site_symmetry_multiplicity
  _atom_site_fract_x
  _atom_site_fract_y
  _atom_site_fract_z
  _atom_site_occupancy
  C   C1        1.0  0.07669  0.42223  0.34466  1.0000
  C   C2        1.0  0.02213  0.39057  0.34486  1.0000
  C   C3        1.0  0.03610  0.39267  0.26501  1.0000
  C   C4        1.0  0.06351  0.40858  0.26642  1.0000
  H   H1        1.0  0.07387  0.41177  0.20835  1.0000
  C   C5        1.0  0.02212  0.38003  0.18636  1.0000
  O   O1        1.0  0.03475  0.38220  0.10787  1.0000
  H   H2        1.0  0.03834  0.36776  0.10714  1.0000
  C   C6        1.0  0.02214  0.64549  0.34491  1.0000
  C   C7        1.0  0.07671  0.66840  0.34472  1.0000
  C   C8        1.0  0.06352  0.66884  0.26646  1.0000
  C   C9        1.0  0.03611  0.65736  0.26505  1.0000
  C   C10       1.0  0.02213  0.65602  0.18640  1.0000
  H   H3        1.0  0.07388  0.67604  0.20841  1.0000
  O   O2        1.0  0.03476  0.66647  0.10790  1.0000
  H   H4        1.0  0.03835  0.68450  0.10716  1.0000
  C   C11       1.0  0.06161  0.41877  0.42209  1.0000
  N   N1        1.0  0.03544  0.40358  0.41935  1.0000
  H   H5        1.0  0.06995  0.42887  0.47962  1.0000
  C   C12       1.0  0.06162  0.65677  0.42212  1.0000
  N   N2        1.0  0.03545  0.64579  0.41940  1.0000
  H   H6        1.0  0.06997  0.65504  0.47971  1.0000
  C   C13       1.0  0.13257  0.49040  0.34306  1.0000
  C   C14       1.0  0.10736  0.46860  0.34854  1.0000
  C   C15       1.0  0.10283  0.44302  0.34069  1.0000
  C   C16       1.0  0.12431  0.43932  0.32676  1.0000
  H   H7        1.0  0.12120  0.42084  0.32059  1.0000
  H   H8        1.0  0.09185  0.47147  0.35653  1.0000
  C   C17       1.0  0.13258  0.65610  0.34311  1.0000
  C   C18       1.0  0.10738  0.65270  0.34863  1.0000
  C   C19       1.0  0.10285  0.67376  0.34077  1.0000
  C   C20       1.0  0.12433  0.69892  0.32682  1.0000
  H   H9        1.0  0.12122  0.71430  0.32063  1.0000
  H   H10       1.0  0.09186  0.63432  0.35654  1.0000
  C   C21       1.0  0.12580  0.59367  0.43071  1.0000
  C   C22       1.0  0.12477  0.61685  0.42505  1.0000
  H   H11       1.0  0.11515  0.62094  0.47352  1.0000
  C   C23       1.0  0.12478  0.52185  0.42506  1.0000
  C   C24       1.0  0.12579  0.54605  0.43071  1.0000
  C   C25       1.0  0.11376  0.55198  0.50143  1.0000
  C   C26       1.0  0.11376  0.57570  0.50144  1.0000
  H   H12       1.0  0.11513  0.50813  0.47348  1.0000
  O   O3        1.0  0.10081  0.53457  0.56803  1.0000
  H   H13       1.0  0.11368  0.53808  0.61533  1.0000
  O   O4        1.0  0.10081  0.58017  0.56803  1.0000
  H   H14       1.0  0.11367  0.58952  0.61533  1.0000
  C   C27       1.0  0.17206  0.45752  0.30927  1.0000
  C   C28       1.0  0.17208  0.72848  0.30932  1.0000
  C   C29       1.0  0.14950  0.62811  0.28758  1.0000
  N   N3        1.0  0.15002  0.60560  0.29347  1.0000
  C   C30       1.0  0.14952  0.53532  0.28761  1.0000
  H   H15       1.0  0.15776  0.63973  0.23290  1.0000
  N   N4        1.0  0.15002  0.55834  0.29348  1.0000
  H   H16       1.0  0.15774  0.53195  0.23286  1.0000
  C   C31       1.0  0.14995  0.46075  0.32084  1.0000
  C   C32       1.0  0.15358  0.48612  0.32847  1.0000
  H   H17       1.0  0.17199  0.50184  0.32694  1.0000
  C   C33       1.0  0.14997  0.70313  0.32090  1.0000
  C   C34       1.0  0.15360  0.68139  0.32855  1.0000
  H   H18       1.0  0.17200  0.68408  0.32696  1.0000
  H   H19       1.0  0.16402  0.43071  0.41556  1.0000
  H   H20       1.0  0.16404  0.74726  0.41554  1.0000
  C   C35       1.0  0.13620  0.63428  0.35265  1.0000
  C   C36       1.0  0.13873  0.58820  0.36133  1.0000
  C   C37       1.0  0.13874  0.56446  0.36134  1.0000
  C   C38       1.0  0.13619  0.51583  0.35265  1.0000
  C   C39       1.0  0.21872  0.45560  0.30066  1.0000
  C   C40       1.0  0.21476  0.47160  0.23934  1.0000
  C   C41       1.0  0.19135  0.47226  0.24487  1.0000
  H   H21       1.0  0.18842  0.48404  0.20226  1.0000
  C   C42       1.0  0.24253  0.45560  0.30068  1.0000
  C   C43       1.0  0.29110  0.45752  0.30938  1.0000
  C   C44       1.0  0.28655  0.47225  0.24495  1.0000
  C   C45       1.0  0.26249  0.47159  0.23937  1.0000
  C   C46       1.0  0.25810  0.48682  0.17652  1.0000
  C   C47       1.0  0.23438  0.48682  0.17650  1.0000
  H   H22       1.0  0.30128  0.48403  0.20233  1.0000
  O   O5        1.0  0.27696  0.50268  0.11789  1.0000
  H   H23       1.0  0.27461  0.49218  0.06406  1.0000
  O   O6        1.0  0.23139  0.50269  0.11785  1.0000
  H   H24       1.0  0.22325  0.49219  0.06402  1.0000
  C   C48       1.0  0.56204  0.72844  0.30934  1.0000
  C   C49       1.0  0.56397  0.77701  0.30065  1.0000
  C   C50       1.0  0.54796  0.75705  0.23940  1.0000
  C   C51       1.0  0.54730  0.73299  0.24495  1.0000
  H   H25       1.0  0.53550  0.71826  0.20238  1.0000
  C   C52       1.0  0.56397  0.80083  0.30065  1.0000
  C   C53       1.0  0.56207  0.84749  0.30931  1.0000
  C   C54       1.0  0.54732  0.82820  0.24493  1.0000
  C   C55       1.0  0.54797  0.80479  0.23938  1.0000
  C   C56       1.0  0.53272  0.78516  0.17660  1.0000
  C   C57       1.0  0.53271  0.76144  0.17662  1.0000
  H   H26       1.0  0.53553  0.83114  0.20236  1.0000
  O   O7        1.0  0.51684  0.78815  0.11801  1.0000
  H   H27       1.0  0.52732  0.79629  0.06414  1.0000
  O   O8        1.0  0.51683  0.74257  0.11803  1.0000
  H   H28       1.0  0.52732  0.74492  0.06416  1.0000
  C   C58       1.0  0.29114  0.84751  0.30941  1.0000
  C   C59       1.0  0.24257  0.80086  0.30073  1.0000
  C   C60       1.0  0.26253  0.80481  0.23945  1.0000
  C   C61       1.0  0.28659  0.82821  0.24502  1.0000
  H   H29       1.0  0.30131  0.83116  0.20239  1.0000
  C   C62       1.0  0.21875  0.77704  0.30072  1.0000
  C   C63       1.0  0.19138  0.73302  0.24496  1.0000
  C   C64       1.0  0.21479  0.75708  0.23944  1.0000
  C   C65       1.0  0.23442  0.76147  0.17664  1.0000
  C   C66       1.0  0.25814  0.78519  0.17664  1.0000
  H   H30       1.0  0.18844  0.71830  0.20237  1.0000
  O   O9        1.0  0.23142  0.74261  0.11801  1.0000
  H   H31       1.0  0.22329  0.74497  0.06415  1.0000
  O   O10       1.0  0.27700  0.78817  0.11804  1.0000
  H   H32       1.0  0.27466  0.79632  0.06418  1.0000
  C   C67       1.0  0.84479  0.56483  0.30928  1.0000
  C   C68       1.0  0.79812  0.56673  0.30068  1.0000
  C   C69       1.0  0.80208  0.55073  0.23938  1.0000
  C   C70       1.0  0.82549  0.55007  0.24493  1.0000
  H   H33       1.0  0.82843  0.53829  0.20233  1.0000
  C   C71       1.0  0.77430  0.56673  0.30068  1.0000
  C   C72       1.0  0.72574  0.56482  0.30932  1.0000
  C   C73       1.0  0.73028  0.55006  0.24496  1.0000
  C   C74       1.0  0.75434  0.55072  0.23939  1.0000
  C   C75       1.0  0.75874  0.53549  0.17658  1.0000
  C   C76       1.0  0.78245  0.53549  0.17658  1.0000
  H   H34       1.0  0.71556  0.53828  0.20234  1.0000
  O   O11       1.0  0.73987  0.51961  0.11798  1.0000
  H   H35       1.0  0.74221  0.53010  0.06412  1.0000
  O   O12       1.0  0.78544  0.51962  0.11797  1.0000
  H   H36       1.0  0.79358  0.53011  0.06411  1.0000
  C   C77       1.0  0.45478  0.29389  0.30930  1.0000
  C   C78       1.0  0.45289  0.24533  0.30071  1.0000
  C   C79       1.0  0.46889  0.26529  0.23942  1.0000
  C   C80       1.0  0.46954  0.28935  0.24496  1.0000
  H   H37       1.0  0.48133  0.30407  0.20237  1.0000
  C   C81       1.0  0.45288  0.22151  0.30072  1.0000
  C   C82       1.0  0.45477  0.17484  0.30932  1.0000
  C   C83       1.0  0.46954  0.19414  0.24499  1.0000
  C   C84       1.0  0.46889  0.21755  0.23944  1.0000
  C   C85       1.0  0.48413  0.23718  0.17665  1.0000
  C   C86       1.0  0.48413  0.26090  0.17664  1.0000
  H   H38       1.0  0.48132  0.19120  0.20239  1.0000
  O   O13       1.0  0.50001  0.23419  0.11806  1.0000
  H   H39       1.0  0.48952  0.22605  0.06419  1.0000
  O   O14       1.0  0.50001  0.27976  0.11804  1.0000
  H   H40       1.0  0.48952  0.27741  0.06417  1.0000
  C   C87       1.0  0.72569  0.17482  0.30940  1.0000
  C   C88       1.0  0.77425  0.22148  0.30074  1.0000
  C   C89       1.0  0.75429  0.21752  0.23948  1.0000
  C   C90       1.0  0.73023  0.19412  0.24503  1.0000
  H   H41       1.0  0.71550  0.19118  0.20245  1.0000
  C   C91       1.0  0.79807  0.24530  0.30072  1.0000
  C   C92       1.0  0.84474  0.29385  0.30932  1.0000
  C   C93       1.0  0.82544  0.28931  0.24496  1.0000
  C   C94       1.0  0.80203  0.26525  0.23943  1.0000
  C   C95       1.0  0.78240  0.26087  0.17666  1.0000
  C   C96       1.0  0.75868  0.23715  0.17668  1.0000
  H   H42       1.0  0.82838  0.30404  0.20237  1.0000
  O   O15       1.0  0.78539  0.27973  0.11805  1.0000
  H   H43       1.0  0.79353  0.27738  0.06418  1.0000
  O   O16       1.0  0.73981  0.23416  0.11808  1.0000
  H   H44       1.0  0.74216  0.22603  0.06422  1.0000
  C   C97       1.0  0.39146  0.53531  0.28766  1.0000
  N   N5        1.0  0.41397  0.55832  0.29354  1.0000
  C   C98       1.0  0.48425  0.62810  0.28768  1.0000
  H   H45       1.0  0.37984  0.53193  0.23295  1.0000
  N   N6        1.0  0.46123  0.60559  0.29355  1.0000
  H   H46       1.0  0.48762  0.63970  0.23293  1.0000
  C   C99       1.0  0.48427  0.87004  0.28772  1.0000
  N   N7        1.0  0.46126  0.86955  0.29355  1.0000
  C   C100      1.0  0.39149  0.87007  0.28768  1.0000
  H   H47       1.0  0.48765  0.86184  0.23291  1.0000
  N   N8        1.0  0.41401  0.86957  0.29355  1.0000
  H   H48       1.0  0.37989  0.86184  0.23295  1.0000
  C   C101      1.0  0.86732  0.39422  0.28762  1.0000
  N   N9        1.0  0.86680  0.41672  0.29353  1.0000
  C   C102      1.0  0.86728  0.48699  0.28776  1.0000
  H   H49       1.0  0.85907  0.38261  0.23291  1.0000
  N   N10       1.0  0.86679  0.46398  0.29359  1.0000
  H   H50       1.0  0.85909  0.49038  0.23295  1.0000
  C   C103      1.0  0.62537  0.48704  0.28760  1.0000
  N   N11       1.0  0.60286  0.46402  0.29350  1.0000
  C   C104      1.0  0.53258  0.39424  0.28768  1.0000
  H   H51       1.0  0.63698  0.49041  0.23291  1.0000
  N   N12       1.0  0.55560  0.41675  0.29353  1.0000
  H   H52       1.0  0.52921  0.38264  0.23293  1.0000
  C   C105      1.0  0.53255  0.15226  0.28765  1.0000
  N   N13       1.0  0.55557  0.15276  0.29353  1.0000
  C   C106      1.0  0.62534  0.15224  0.28770  1.0000
  H   H53       1.0  0.52918  0.16050  0.23295  1.0000
  N   N14       1.0  0.60283  0.15275  0.29355  1.0000
  H   H54       1.0  0.63694  0.16048  0.23297  1.0000
  C   C107      1.0  0.99469  0.37685  0.34491  1.0000
  C   C108      1.0  0.94011  0.35393  0.34487  1.0000
  C   C109      1.0  0.95329  0.35346  0.26658  1.0000
  C   C110      1.0  0.98070  0.36497  0.26509  1.0000
  C   C111      1.0  0.99466  0.36630  0.18640  1.0000
  H   H55       1.0  0.94293  0.34629  0.20854  1.0000
  O   O17       1.0  0.98202  0.35583  0.10794  1.0000
  H   H56       1.0  0.97843  0.33781  0.10723  1.0000
  C   C112      1.0  0.59734  0.66835  0.34470  1.0000
  C   C113      1.0  0.62903  0.64549  0.34490  1.0000
  C   C114      1.0  0.62692  0.65735  0.26503  1.0000
  C   C115      1.0  0.61101  0.66886  0.26646  1.0000
  H   H57       1.0  0.60779  0.67599  0.20835  1.0000
  C   C116      1.0  0.64276  0.63178  0.34491  1.0000
  C   C117      1.0  0.66568  0.60013  0.34486  1.0000
  C   C118      1.0  0.66613  0.61376  0.26656  1.0000
  C   C119      1.0  0.65462  0.62967  0.26509  1.0000
  C   C120      1.0  0.65328  0.64228  0.18638  1.0000
  C   C121      1.0  0.63954  0.65600  0.18636  1.0000
  H   H58       1.0  0.67328  0.61055  0.20850  1.0000
  O   O18       1.0  0.66373  0.64009  0.10790  1.0000
  H   H59       1.0  0.68175  0.65453  0.10715  1.0000
  O   O19       1.0  0.63736  0.66646  0.10787  1.0000
  H   H60       1.0  0.65180  0.68447  0.10710  1.0000
  C   C122      1.0  0.35123  0.94288  0.34486  1.0000
  C   C123      1.0  0.37410  0.99745  0.34488  1.0000
  C   C124      1.0  0.36228  0.98346  0.26501  1.0000
  C   C125      1.0  0.35081  0.95605  0.26649  1.0000
  H   H61       1.0  0.34364  0.94568  0.20844  1.0000
  C   C126      1.0  0.38780  0.02488  0.34486  1.0000
  C   C127      1.0  0.41945  0.07947  0.34472  1.0000
  C   C128      1.0  0.40584  0.06627  0.26642  1.0000
  C   C129      1.0  0.38995  0.03885  0.26497  1.0000
  C   C130      1.0  0.37737  0.02488  0.18624  1.0000
  C   C131      1.0  0.36365  0.99742  0.18627  1.0000
  H   H62       1.0  0.40907  0.07661  0.20829  1.0000
  O   O20       1.0  0.37957  0.03751  0.10773  1.0000
  H   H63       1.0  0.36512  0.04107  0.10685  1.0000
  O   O21       1.0  0.35325  0.98478  0.10775  1.0000
  H   H64       1.0  0.33522  0.98117  0.10686  1.0000
  C   C132      1.0  0.94015  0.60006  0.34486  1.0000
  C   C133      1.0  0.99470  0.63176  0.34494  1.0000
  C   C134      1.0  0.98072  0.62965  0.26511  1.0000
  C   C135      1.0  0.95330  0.61372  0.26658  1.0000
  H   H65       1.0  0.94293  0.61053  0.20854  1.0000
  C   C136      1.0  0.99467  0.64228  0.18644  1.0000
  O   O22       1.0  0.98203  0.64010  0.10797  1.0000
  H   H66       1.0  0.97844  0.65453  0.10725  1.0000
  C   C137      1.0  0.41950  0.35398  0.34483  1.0000
  C   C138      1.0  0.38781  0.37684  0.34497  1.0000
  C   C139      1.0  0.38989  0.36494  0.26518  1.0000
  C   C140      1.0  0.40581  0.35345  0.26660  1.0000
  H   H67       1.0  0.40899  0.34626  0.20856  1.0000
  C   C141      1.0  0.37408  0.39055  0.34498  1.0000
  C   C142      1.0  0.35117  0.42221  0.34479  1.0000
  C   C143      1.0  0.35067  0.40853  0.26658  1.0000
  C   C144      1.0  0.36218  0.39262  0.26516  1.0000
  C   C145      1.0  0.36349  0.37996  0.18653  1.0000
  C   C146      1.0  0.37722  0.36623  0.18654  1.0000
  H   H68       1.0  0.34348  0.41170  0.20854  1.0000
  O   O23       1.0  0.35299  0.38210  0.10807  1.0000
  H   H69       1.0  0.33497  0.36767  0.10745  1.0000
  O   O24       1.0  0.37937  0.35575  0.10808  1.0000
  H   H70       1.0  0.36494  0.33772  0.10747  1.0000
  C   C147      1.0  0.66564  0.07945  0.34479  1.0000
  C   C148      1.0  0.64273  0.02487  0.34488  1.0000
  C   C149      1.0  0.65457  0.03885  0.26501  1.0000
  C   C150      1.0  0.66608  0.06627  0.26649  1.0000
  H   H71       1.0  0.67319  0.07661  0.20838  1.0000
  C   C151      1.0  0.62902  0.99743  0.34488  1.0000
  C   C152      1.0  0.59736  0.94287  0.34482  1.0000
  C   C153      1.0  0.61097  0.95604  0.26648  1.0000
  C   C154      1.0  0.62688  0.98345  0.26502  1.0000
  C   C155      1.0  0.63947  0.99742  0.18630  1.0000
  C   C156      1.0  0.65319  0.02488  0.18629  1.0000
  H   H72       1.0  0.60774  0.94568  0.20841  1.0000
  O   O25       1.0  0.63725  0.98479  0.10778  1.0000
  H   H73       1.0  0.65168  0.98119  0.10692  1.0000
  O   O26       1.0  0.66362  0.03752  0.10779  1.0000
  H   H74       1.0  0.68163  0.04109  0.10693  1.0000
  C   C157      1.0  0.52918  0.65607  0.34311  1.0000
  C   C158      1.0  0.55097  0.65266  0.34858  1.0000
  C   C159      1.0  0.57656  0.67372  0.34072  1.0000
  C   C160      1.0  0.58025  0.69889  0.32680  1.0000
  C   C161      1.0  0.55882  0.70310  0.32088  1.0000
  C   C162      1.0  0.53345  0.68135  0.32852  1.0000
  H   H75       1.0  0.59873  0.71426  0.32062  1.0000
  H   H76       1.0  0.51773  0.68405  0.32701  1.0000
  H   H77       1.0  0.54811  0.63428  0.35656  1.0000
  C   C163      1.0  0.36351  0.88701  0.34317  1.0000
  C   C164      1.0  0.36692  0.91221  0.34872  1.0000
  C   C165      1.0  0.34586  0.91674  0.34082  1.0000
  C   C166      1.0  0.32069  0.89527  0.32688  1.0000
  C   C167      1.0  0.31648  0.86962  0.32095  1.0000
  C   C168      1.0  0.33823  0.86600  0.32856  1.0000
  H   H78       1.0  0.30532  0.89838  0.32071  1.0000
  H   H79       1.0  0.33553  0.84759  0.32702  1.0000
  H   H80       1.0  0.38530  0.92773  0.35667  1.0000
  C   C169      1.0  0.88425  0.53192  0.34321  1.0000
  C   C170      1.0  0.90945  0.55371  0.34877  1.0000
  C   C171      1.0  0.91400  0.57930  0.34083  1.0000
  C   C172      1.0  0.89254  0.58300  0.32683  1.0000
  C   C173      1.0  0.86689  0.56158  0.32090  1.0000
  C   C174      1.0  0.86325  0.53621  0.32859  1.0000
  H   H81       1.0  0.89566  0.60149  0.32063  1.0000
  H   H82       1.0  0.84483  0.52050  0.32699  1.0000
  H   H83       1.0  0.92497  0.55083  0.35672  1.0000
  C   C175      1.0  0.48766  0.36626  0.34317  1.0000
  C   C176      1.0  0.46587  0.36967  0.34873  1.0000
  C   C177      1.0  0.44028  0.34862  0.34085  1.0000
  C   C178      1.0  0.43659  0.32345  0.32685  1.0000
  C   C179      1.0  0.45801  0.31923  0.32090  1.0000
  C   C180      1.0  0.48339  0.34098  0.32857  1.0000
  H   H84       1.0  0.41810  0.30808  0.32065  1.0000
  H   H85       1.0  0.49910  0.33828  0.32696  1.0000
  H   H86       1.0  0.46873  0.38805  0.35666  1.0000
  C   C181      1.0  0.65331  0.13529  0.34315  1.0000
  C   C182      1.0  0.64992  0.11009  0.34867  1.0000
  C   C183      1.0  0.67098  0.10558  0.34083  1.0000
  C   C184      1.0  0.69615  0.12706  0.32688  1.0000
  C   C185      1.0  0.70035  0.15270  0.32096  1.0000
  C   C186      1.0  0.67859  0.15631  0.32860  1.0000
  H   H87       1.0  0.71153  0.12396  0.32070  1.0000
  H   H88       1.0  0.68128  0.17472  0.32703  1.0000
  H   H89       1.0  0.63154  0.09457  0.35661  1.0000
  C   C187      1.0  0.48762  0.13531  0.34309  1.0000
  C   C188      1.0  0.46582  0.11012  0.34859  1.0000
  C   C189      1.0  0.44024  0.10560  0.34073  1.0000
  C   C190      1.0  0.43656  0.12708  0.32680  1.0000
  C   C191      1.0  0.45799  0.15272  0.32089  1.0000
  C   C192      1.0  0.48336  0.15634  0.32854  1.0000
  H   H90       1.0  0.41808  0.12398  0.32063  1.0000
  H   H91       1.0  0.49908  0.17474  0.32697  1.0000
  H   H92       1.0  0.46867  0.09459  0.35653  1.0000
  C   C193      1.0  0.65336  0.53196  0.34313  1.0000
  C   C194      1.0  0.64996  0.55375  0.34865  1.0000
  C   C195      1.0  0.67103  0.57934  0.34079  1.0000
  C   C196      1.0  0.69619  0.58303  0.32684  1.0000
  C   C197      1.0  0.70040  0.56159  0.32090  1.0000
  C   C198      1.0  0.67865  0.53622  0.32859  1.0000
  H   H93       1.0  0.71157  0.60151  0.32068  1.0000
  H   H94       1.0  0.68133  0.52050  0.32693  1.0000
  H   H95       1.0  0.63158  0.55090  0.35662  1.0000
  C   C199      1.0  0.88425  0.36623  0.34311  1.0000
  C   C200      1.0  0.90945  0.36963  0.34863  1.0000
  C   C201      1.0  0.91397  0.34857  0.34078  1.0000
  C   C202      1.0  0.89250  0.32341  0.32684  1.0000
  C   C203      1.0  0.86686  0.31919  0.32087  1.0000
  C   C204      1.0  0.86323  0.34094  0.32849  1.0000
  H   H96       1.0  0.89561  0.30803  0.32070  1.0000
  H   H97       1.0  0.84482  0.33825  0.32695  1.0000
  H   H98       1.0  0.92496  0.38801  0.35664  1.0000
  C   C205      1.0  0.52920  0.88700  0.34311  1.0000
  C   C206      1.0  0.55100  0.91220  0.34861  1.0000
  C   C207      1.0  0.57658  0.91673  0.34073  1.0000
  C   C208      1.0  0.58027  0.89525  0.32681  1.0000
  C   C209      1.0  0.55885  0.86961  0.32086  1.0000
  C   C210      1.0  0.53347  0.86599  0.32850  1.0000
  H   H99       1.0  0.59876  0.89836  0.32065  1.0000
  H   H100      1.0  0.51776  0.84757  0.32698  1.0000
  H   H101      1.0  0.54814  0.92772  0.35664  1.0000
  C   C211      1.0  0.36347  0.49038  0.34314  1.0000
  C   C212      1.0  0.36688  0.46859  0.34867  1.0000
  C   C213      1.0  0.34582  0.44300  0.34080  1.0000
  C   C214      1.0  0.32065  0.43931  0.32687  1.0000
  C   C215      1.0  0.31644  0.46074  0.32094  1.0000
  C   C216      1.0  0.33819  0.48611  0.32855  1.0000
  H   H102      1.0  0.30528  0.42083  0.32070  1.0000
  H   H103      1.0  0.33549  0.50183  0.32700  1.0000
  H   H104      1.0  0.38526  0.47145  0.35658  1.0000
  C   C217      1.0  0.17688  0.44139  0.36620  1.0000
  N   N15       1.0  0.19962  0.44126  0.36081  1.0000
  C   C218      1.0  0.27016  0.44140  0.36632  1.0000
  N   N16       1.0  0.24727  0.44126  0.36085  1.0000
  H   H105      1.0  0.27232  0.43069  0.41560  1.0000
  C   C219      1.0  0.57817  0.74938  0.36626  1.0000
  N   N17       1.0  0.57833  0.77228  0.36078  1.0000
  C   C220      1.0  0.57822  0.84269  0.36616  1.0000
  H   H106      1.0  0.58891  0.74724  0.41546  1.0000
  N   N18       1.0  0.57834  0.81993  0.36075  1.0000
  H   H107      1.0  0.58891  0.85554  0.41549  1.0000
  C   C221      1.0  0.27020  0.84268  0.36636  1.0000
  N   N19       1.0  0.24731  0.81995  0.36088  1.0000
  C   C222      1.0  0.17692  0.74941  0.36632  1.0000
  H   H108      1.0  0.27235  0.85556  0.41557  1.0000
  N   N20       1.0  0.19966  0.77230  0.36087  1.0000
  C   C223      1.0  0.83995  0.58093  0.36626  1.0000
  N   N21       1.0  0.81721  0.58108  0.36082  1.0000
  C   C224      1.0  0.74668  0.58093  0.36626  1.0000
  H   H109      1.0  0.85283  0.59164  0.41553  1.0000
  N   N22       1.0  0.76957  0.58108  0.36082  1.0000
  H   H110      1.0  0.74452  0.59164  0.41554  1.0000
  C   C225      1.0  0.43865  0.27294  0.36621  1.0000
  N   N23       1.0  0.43852  0.25006  0.36082  1.0000
  C   C226      1.0  0.43867  0.17967  0.36628  1.0000
  H   H111      1.0  0.42796  0.27511  0.41555  1.0000
  N   N24       1.0  0.43853  0.20242  0.36085  1.0000
  H   H112      1.0  0.42795  0.16680  0.41554  1.0000
  C   C227      1.0  0.74663  0.17965  0.36635  1.0000
  N   N25       1.0  0.76952  0.20239  0.36087  1.0000
  C   C228      1.0  0.83993  0.27291  0.36621  1.0000
  H   H113      1.0  0.74448  0.16677  0.41556  1.0000
  N   N26       1.0  0.81717  0.25003  0.36083  1.0000
  H   H114      1.0  0.85278  0.27507  0.41555  1.0000
  C   C229      1.0  0.38529  0.51582  0.35269  1.0000
  C   C230      1.0  0.43137  0.56443  0.36139  1.0000
  C   C231      1.0  0.42590  0.54602  0.43076  1.0000
  C   C232      1.0  0.40272  0.52183  0.42510  1.0000
  H   H115      1.0  0.39864  0.50811  0.47354  1.0000
  C   C233      1.0  0.45512  0.58818  0.36140  1.0000
  C   C234      1.0  0.50374  0.63425  0.35269  1.0000
  C   C235      1.0  0.49773  0.61681  0.42508  1.0000
  C   C236      1.0  0.47353  0.59365  0.43077  1.0000
  C   C237      1.0  0.46759  0.57567  0.50149  1.0000
  C   C238      1.0  0.44388  0.55196  0.50149  1.0000
  H   H116      1.0  0.51145  0.62090  0.47353  1.0000
  O   O27       1.0  0.48501  0.58013  0.56805  1.0000
  H   H117      1.0  0.48152  0.58949  0.61537  1.0000
  O   O28       1.0  0.43941  0.53453  0.56806  1.0000
  H   H118      1.0  0.43006  0.53804  0.61538  1.0000
  C   C239      1.0  0.50377  0.88338  0.35272  1.0000
  C   C240      1.0  0.45515  0.88085  0.36140  1.0000
  C   C241      1.0  0.47356  0.89378  0.43079  1.0000
  C   C242      1.0  0.49775  0.89480  0.42512  1.0000
  H   H119      1.0  0.51148  0.90443  0.47355  1.0000
  C   C243      1.0  0.43140  0.88085  0.36140  1.0000
  C   C244      1.0  0.38533  0.88339  0.35274  1.0000
  C   C245      1.0  0.40276  0.89481  0.42514  1.0000
  C   C246      1.0  0.42594  0.89379  0.43079  1.0000
  C   C247      1.0  0.44392  0.90582  0.50151  1.0000
  C   C248      1.0  0.46762  0.90582  0.50151  1.0000
  H   H120      1.0  0.39868  0.90444  0.47358  1.0000
  O   O29       1.0  0.43945  0.91878  0.56811  1.0000
  H   H121      1.0  0.43009  0.90592  0.61541  1.0000
  O   O30       1.0  0.48505  0.91877  0.56811  1.0000
  H   H122      1.0  0.48154  0.90591  0.61540  1.0000
  C   C249      1.0  0.88063  0.38804  0.35269  1.0000
  C   C250      1.0  0.87808  0.43411  0.36142  1.0000
  C   C251      1.0  0.89101  0.42864  0.43082  1.0000
  C   C252      1.0  0.89203  0.40547  0.42514  1.0000
  H   H123      1.0  0.90166  0.40138  0.47357  1.0000
  C   C253      1.0  0.87807  0.45786  0.36145  1.0000
  C   C254      1.0  0.88061  0.50648  0.35279  1.0000
  C   C255      1.0  0.89202  0.50046  0.42521  1.0000
  C   C256      1.0  0.89100  0.47626  0.43087  1.0000
  C   C257      1.0  0.90303  0.47031  0.50159  1.0000
  C   C258      1.0  0.90304  0.44661  0.50155  1.0000
  H   H124      1.0  0.90165  0.51417  0.47366  1.0000
  O   O31       1.0  0.91597  0.48773  0.56821  1.0000
  H   H125      1.0  0.90310  0.48422  0.61549  1.0000
  O   O32       1.0  0.91597  0.44213  0.56817  1.0000
  H   H126      1.0  0.90311  0.43277  0.61545  1.0000
  C   C259      1.0  0.63155  0.50652  0.35269  1.0000
  C   C260      1.0  0.58547  0.45791  0.36137  1.0000
  C   C261      1.0  0.59094  0.47631  0.43075  1.0000
  C   C262      1.0  0.61411  0.50051  0.42508  1.0000
  H   H127      1.0  0.61820  0.51422  0.47355  1.0000
  C   C263      1.0  0.56172  0.43415  0.36139  1.0000
  C   C264      1.0  0.51310  0.38808  0.35271  1.0000
  C   C265      1.0  0.51912  0.40551  0.42514  1.0000
  C   C266      1.0  0.54331  0.42868  0.43078  1.0000
  C   C267      1.0  0.54925  0.44666  0.50150  1.0000
  C   C268      1.0  0.57296  0.47037  0.50150  1.0000
  H   H128      1.0  0.50540  0.40143  0.47357  1.0000
  O   O33       1.0  0.53184  0.44218  0.56812  1.0000
  H   H129      1.0  0.53536  0.43284  0.61542  1.0000
  O   O34       1.0  0.57744  0.48779  0.56809  1.0000
  H   H130      1.0  0.58680  0.48429  0.61538  1.0000
  C   C269      1.0  0.51305  0.13892  0.35264  1.0000
  C   C270      1.0  0.56167  0.14145  0.36136  1.0000
  C   C271      1.0  0.54325  0.12850  0.43071  1.0000
  C   C272      1.0  0.51906  0.12749  0.42504  1.0000
  H   H131      1.0  0.50533  0.11785  0.47347  1.0000
  C   C273      1.0  0.58542  0.14145  0.36138  1.0000
  C   C274      1.0  0.63149  0.13890  0.35269  1.0000
  C   C275      1.0  0.61404  0.12747  0.42507  1.0000
  C   C276      1.0  0.59087  0.12850  0.43074  1.0000
  C   C277      1.0  0.57289  0.11645  0.50143  1.0000
  C   C278      1.0  0.54918  0.11646  0.50143  1.0000
  H   H132      1.0  0.61813  0.11783  0.47352  1.0000
  O   O35       1.0  0.57735  0.10348  0.56799  1.0000
  H   H133      1.0  0.58670  0.11633  0.61533  1.0000
  O   O36       1.0  0.53175  0.10349  0.56798  1.0000
  H   H134      1.0  0.53525  0.11634  0.61531  1.0000
  C   C279      1.0  0.95523  0.36559  0.42219  1.0000
  N   N27       1.0  0.98140  0.37655  0.41942  1.0000
  H   H135      1.0  0.94689  0.36732  0.47978  1.0000
  C   C280      1.0  0.60080  0.65673  0.42211  1.0000
  N   N28       1.0  0.61603  0.64579  0.41940  1.0000
  C   C281      1.0  0.65406  0.60361  0.42224  1.0000
  H   H136      1.0  0.59075  0.65503  0.47973  1.0000
  N   N29       1.0  0.64307  0.61879  0.41944  1.0000
  H   H137      1.0  0.65229  0.59352  0.47980  1.0000
  C   C282      1.0  0.36283  0.95799  0.42224  1.0000
  N   N30       1.0  0.37377  0.98416  0.41946  1.0000
  C   C283      1.0  0.41597  0.06437  0.42211  1.0000
  H   H138      1.0  0.36450  0.94965  0.47992  1.0000
  N   N31       1.0  0.40077  0.03820  0.41940  1.0000
  H   H139      1.0  0.42600  0.07272  0.47976  1.0000
  C   C284      1.0  0.95525  0.60354  0.42225  1.0000
  N   N32       1.0  0.98141  0.61876  0.41946  1.0000
  H   H140      1.0  0.94690  0.59347  0.47983  1.0000
  C   C285      1.0  0.41603  0.36560  0.42224  1.0000
  N   N33       1.0  0.40083  0.37657  0.41946  1.0000
  C   C286      1.0  0.36284  0.41879  0.42216  1.0000
  H   H141      1.0  0.42616  0.36740  0.47976  1.0000
  N   N34       1.0  0.37381  0.40358  0.41944  1.0000
  H   H142      1.0  0.36458  0.42888  0.47971  1.0000
  C   C287      1.0  0.65401  0.06434  0.42215  1.0000
  N   N35       1.0  0.64306  0.03817  0.41942  1.0000
  C   C288      1.0  0.60087  0.95796  0.42225  1.0000
  H   H143      1.0  0.65232  0.07268  0.47981  1.0000
  N   N36       1.0  0.61606  0.98413  0.41945  1.0000
  H   H144      1.0  0.59080  0.94962  0.47983  1.0000
