data_image0
_chemical_formula_structural       C8H8C8H8C8H8C8H8C8H8C8H8C2HC2NHNH2NC2HC2NHNH2NC2HC2NHNH2NC2HC2NHNH2NC2HC2NHNH2NC2HC2NHNH2NC2HC2NHNH2NC2HC2NHNH2NC2HC2NHNH2NC2HC2NHNH2NC2HC2NHNH2NC2HC2NHNH2NC3NC3NC5NC5NC20H18C4H4C3NC3NC5NC5NC20H18C4H4C3NC3NC5NC5NC20H18C4H4C3NC3NC5NC5NC20H18C4H4C3NC3NC5NC5NC20H18C4H4C3NC3NC5NC5NC20H18C4H4C2NC4H2NH2NC2NC4H2NH2NC2NC4H2NH2NC2NC4H2NH2NC2NC4H2NH2NC2NC4H2NH2NC2NC4H2NH2NC2NC4H2NH2NC2NC4H2NH2NC2NC4H2NH2NC2NC4H2NH2NC2NC4H2NH2N
_chemical_formula_sum              "C408 H276 N96"
_cell_length_a       79.5847
_cell_length_b       79.5847
_cell_length_c       14.9951
_cell_angle_alpha    90.0006
_cell_angle_beta     89.987
_cell_angle_gamma    120

_space_group_name_H-M_alt    "P 1"
_space_group_IT_number       1

loop_
  _space_group_symop_operation_xyz
  'x, y, z'

loop_
  _atom_site_type_symbol
  _atom_site_label
  _atom_site_symmetry_multiplicity
  _atom_site_fract_x
  _atom_site_fract_y
  _atom_site_fract_z
  _atom_site_occupancy
  C   C1        1.0  0.26775  0.38052  0.28365  1.0000
  C   C2        1.0  0.27286  0.36604  0.29278  1.0000
  C   C3        1.0  0.32833  0.49893  0.28405  1.0000
  C   C4        1.0  0.34789  0.51350  0.29350  1.0000
  C   C5        1.0  0.22283  0.51526  0.28961  1.0000
  C   C6        1.0  0.22757  0.50049  0.28206  1.0000
  C   C7        1.0  0.16681  0.38296  0.28194  1.0000
  C   C8        1.0  0.14711  0.36866  0.28916  1.0000
  H   H1        1.0  0.13952  0.36238  0.23200  1.0000
  H   H2        1.0  0.17306  0.38676  0.22011  1.0000
  H   H3        1.0  0.22809  0.49534  0.22016  1.0000
  H   H4        1.0  0.21996  0.52046  0.23262  1.0000
  H   H5        1.0  0.32219  0.49581  0.22191  1.0000
  H   H6        1.0  0.35547  0.52056  0.23744  1.0000
  H   H7        1.0  0.27616  0.36101  0.23646  1.0000
  H   H8        1.0  0.26748  0.38566  0.22141  1.0000
  C   C9        1.0  0.67377  0.88731  0.28399  1.0000
  C   C10       1.0  0.68825  0.90690  0.29316  1.0000
  C   C11       1.0  0.55543  0.82953  0.28413  1.0000
  C   C12       1.0  0.54087  0.83454  0.29358  1.0000
  C   C13       1.0  0.53906  0.70763  0.28987  1.0000
  C   C14       1.0  0.55385  0.72715  0.28236  1.0000
  C   C15       1.0  0.67130  0.78384  0.28212  1.0000
  C   C16       1.0  0.68559  0.77842  0.28938  1.0000
  H   H9        1.0  0.69183  0.77704  0.23220  1.0000
  H   H10       1.0  0.66747  0.78623  0.22026  1.0000
  H   H11       1.0  0.55902  0.73281  0.22048  1.0000
  H   H12       1.0  0.53389  0.69957  0.23288  1.0000
  H   H13       1.0  0.55858  0.82656  0.22194  1.0000
  H   H14       1.0  0.53385  0.83512  0.23751  1.0000
  H   H15       1.0  0.69327  0.91523  0.23685  1.0000
  H   H16       1.0  0.66860  0.88190  0.22177  1.0000
  C   C17       1.0  0.16702  0.78655  0.28355  1.0000
  C   C18       1.0  0.14743  0.78143  0.29276  1.0000
  C   C19       1.0  0.22485  0.72598  0.28384  1.0000
  C   C20       1.0  0.21983  0.70641  0.29326  1.0000
  C   C21       1.0  0.34671  0.83150  0.28953  1.0000
  C   C22       1.0  0.32719  0.82675  0.28194  1.0000
  C   C23       1.0  0.27047  0.88752  0.28169  1.0000
  C   C24       1.0  0.27590  0.90723  0.28897  1.0000
  H   H17       1.0  0.27727  0.91485  0.23181  1.0000
  H   H18       1.0  0.26806  0.88129  0.21982  1.0000
  H   H19       1.0  0.32154  0.82625  0.22003  1.0000
  H   H20       1.0  0.35479  0.83440  0.23257  1.0000
  H   H21       1.0  0.22788  0.73213  0.22169  1.0000
  H   H22       1.0  0.21932  0.69884  0.23721  1.0000
  H   H23       1.0  0.13909  0.77812  0.23647  1.0000
  H   H24       1.0  0.17243  0.78681  0.22130  1.0000
  C   C25       1.0  0.80465  0.65575  0.28395  1.0000
  C   C26       1.0  0.79953  0.67023  0.29317  1.0000
  C   C27       1.0  0.74405  0.53730  0.28428  1.0000
  C   C28       1.0  0.72449  0.52273  0.29377  1.0000
  C   C29       1.0  0.84956  0.52100  0.28998  1.0000
  C   C30       1.0  0.84480  0.53576  0.28247  1.0000
  C   C31       1.0  0.90557  0.65327  0.28214  1.0000
  C   C32       1.0  0.92527  0.66756  0.28932  1.0000
  H   H25       1.0  0.93287  0.67382  0.23212  1.0000
  H   H26       1.0  0.89932  0.64946  0.22031  1.0000
  H   H27       1.0  0.84428  0.54091  0.22059  1.0000
  H   H28       1.0  0.85243  0.51581  0.23298  1.0000
  H   H29       1.0  0.75020  0.54039  0.22213  1.0000
  H   H30       1.0  0.71692  0.51564  0.23775  1.0000
  H   H31       1.0  0.79627  0.67529  0.23687  1.0000
  H   H32       1.0  0.80494  0.65063  0.22169  1.0000
  C   C33       1.0  0.39858  0.14896  0.28413  1.0000
  C   C34       1.0  0.38409  0.12937  0.29322  1.0000
  C   C35       1.0  0.51699  0.20679  0.28465  1.0000
  C   C36       1.0  0.53155  0.20179  0.29408  1.0000
  C   C37       1.0  0.53331  0.32862  0.29013  1.0000
  C   C38       1.0  0.51854  0.30910  0.28259  1.0000
  C   C39       1.0  0.40103  0.25233  0.28232  1.0000
  C   C40       1.0  0.38672  0.25773  0.28950  1.0000
  H   H33       1.0  0.38045  0.25905  0.23231  1.0000
  H   H34       1.0  0.40484  0.24990  0.22050  1.0000
  H   H35       1.0  0.51339  0.30344  0.22069  1.0000
  H   H36       1.0  0.53851  0.33669  0.23314  1.0000
  H   H37       1.0  0.51387  0.20981  0.22249  1.0000
  H   H38       1.0  0.53861  0.20126  0.23802  1.0000
  H   H39       1.0  0.37906  0.12106  0.23688  1.0000
  H   H40       1.0  0.40373  0.15439  0.22190  1.0000
  C   C41       1.0  0.90537  0.24973  0.28388  1.0000
  C   C42       1.0  0.92496  0.25483  0.29304  1.0000
  C   C43       1.0  0.84760  0.31030  0.28399  1.0000
  C   C44       1.0  0.85261  0.32987  0.29345  1.0000
  C   C45       1.0  0.72569  0.20477  0.28991  1.0000
  C   C46       1.0  0.74521  0.20950  0.28235  1.0000
  C   C47       1.0  0.80189  0.14873  0.28206  1.0000
  C   C48       1.0  0.79648  0.12903  0.28930  1.0000
  H   H41       1.0  0.79509  0.12142  0.23212  1.0000
  H   H42       1.0  0.80429  0.15496  0.22020  1.0000
  H   H43       1.0  0.75086  0.20997  0.22045  1.0000
  H   H44       1.0  0.71762  0.20186  0.23294  1.0000
  H   H45       1.0  0.84463  0.30418  0.22181  1.0000
  H   H46       1.0  0.85318  0.33746  0.23737  1.0000
  H   H47       1.0  0.93330  0.25817  0.23673  1.0000
  H   H48       1.0  0.89997  0.24950  0.22166  1.0000
  C   C49       1.0  0.23182  0.59916  0.26474  1.0000
  C   C50       1.0  0.23187  0.58138  0.26566  1.0000
  H   H49       1.0  0.24179  0.57998  0.22752  1.0000
  C   C51       1.0  0.21569  0.65248  0.33684  1.0000
  C   C52       1.0  0.21279  0.64198  0.25739  1.0000
  N   N1        1.0  0.21362  0.62538  0.25792  1.0000
  H   H50       1.0  0.21033  0.64683  0.19842  1.0000
  N   N2        1.0  0.24504  0.61397  0.21334  1.0000
  H   H51       1.0  0.25429  0.61246  0.17656  1.0000
  H   H52       1.0  0.24621  0.62670  0.21385  1.0000
  N   N3        1.0  0.21680  0.66970  0.33310  1.0000
  C   C53       1.0  0.45516  0.63271  0.26485  1.0000
  C   C54       1.0  0.47294  0.65054  0.26577  1.0000
  H   H53       1.0  0.47434  0.66186  0.22764  1.0000
  C   C55       1.0  0.40183  0.56327  0.33704  1.0000
  C   C56       1.0  0.41234  0.57086  0.25758  1.0000
  N   N4        1.0  0.42894  0.58828  0.25809  1.0000
  H   H54       1.0  0.40749  0.56354  0.19862  1.0000
  N   N5        1.0  0.44035  0.63111  0.21346  1.0000
  H   H55       1.0  0.44186  0.64187  0.17669  1.0000
  H   H56       1.0  0.42762  0.61955  0.21398  1.0000
  N   N6        1.0  0.38460  0.54717  0.33332  1.0000
  C   C57       1.0  0.42162  0.82250  0.26501  1.0000
  C   C58       1.0  0.40378  0.82245  0.26587  1.0000
  H   H57       1.0  0.39247  0.81253  0.22773  1.0000
  C   C59       1.0  0.49106  0.83864  0.33718  1.0000
  C   C60       1.0  0.48347  0.84153  0.25770  1.0000
  N   N7        1.0  0.46604  0.84070  0.25821  1.0000
  H   H58       1.0  0.49078  0.84398  0.19873  1.0000
  N   N8        1.0  0.42321  0.80927  0.21369  1.0000
  H   H59       1.0  0.41246  0.80003  0.17692  1.0000
  H   H60       1.0  0.43478  0.80811  0.21425  1.0000
  N   N9        1.0  0.50717  0.83754  0.33346  1.0000
  C   C61       1.0  0.84056  0.43710  0.26513  1.0000
  C   C62       1.0  0.84052  0.45488  0.26607  1.0000
  H   H61       1.0  0.83061  0.45629  0.22793  1.0000
  C   C63       1.0  0.85668  0.38376  0.33712  1.0000
  C   C64       1.0  0.85958  0.39427  0.25768  1.0000
  N   N10       1.0  0.85875  0.41087  0.25825  1.0000
  H   H62       1.0  0.86205  0.38942  0.19870  1.0000
  N   N11       1.0  0.82734  0.42229  0.21372  1.0000
  H   H63       1.0  0.81810  0.42381  0.17695  1.0000
  H   H64       1.0  0.82617  0.40956  0.21422  1.0000
  N   N12       1.0  0.85558  0.36655  0.33336  1.0000
  C   C65       1.0  0.61721  0.40353  0.26527  1.0000
  C   C66       1.0  0.59943  0.38570  0.26618  1.0000
  H   H65       1.0  0.59803  0.37439  0.22804  1.0000
  C   C67       1.0  0.67055  0.47296  0.33741  1.0000
  C   C68       1.0  0.66004  0.46538  0.25796  1.0000
  N   N13       1.0  0.64344  0.44796  0.25848  1.0000
  H   H66       1.0  0.66490  0.47269  0.19899  1.0000
  N   N14       1.0  0.63203  0.40512  0.21388  1.0000
  H   H67       1.0  0.63052  0.39437  0.17709  1.0000
  H   H68       1.0  0.64476  0.41669  0.21439  1.0000
  N   N15       1.0  0.68777  0.48907  0.33366  1.0000
  C   C69       1.0  0.65075  0.21373  0.26516  1.0000
  C   C70       1.0  0.66859  0.21380  0.26600  1.0000
  H   H69       1.0  0.67991  0.22373  0.22788  1.0000
  C   C71       1.0  0.58132  0.19760  0.33754  1.0000
  C   C72       1.0  0.58890  0.19470  0.25803  1.0000
  N   N16       1.0  0.60633  0.19552  0.25847  1.0000
  H   H70       1.0  0.58159  0.19225  0.19908  1.0000
  N   N17       1.0  0.64915  0.22696  0.21386  1.0000
  H   H71       1.0  0.65990  0.23622  0.17710  1.0000
  H   H72       1.0  0.63758  0.22812  0.21444  1.0000
  N   N18       1.0  0.56522  0.19873  0.33386  1.0000
  C   C73       1.0  0.05560  0.33040  0.26419  1.0000
  C   C74       1.0  0.07615  0.34072  0.26527  1.0000
  H   H73       1.0  0.08351  0.35306  0.22766  1.0000
  C   C75       1.0  0.98477  0.28110  0.33620  1.0000
  C   C76       1.0  0.99517  0.28372  0.25663  1.0000
  N   N19       1.0  0.01481  0.29421  0.25698  1.0000
  H   H74       1.0  0.98811  0.27808  0.19775  1.0000
  N   N20       1.0  0.04614  0.33721  0.21329  1.0000
  H   H75       1.0  0.05323  0.34881  0.17691  1.0000
  H   H76       1.0  0.03211  0.33118  0.21366  1.0000
  N   N21       1.0  0.96556  0.27256  0.33267  1.0000
  C   C77       1.0  0.72393  0.72526  0.26437  1.0000
  C   C78       1.0  0.71360  0.73548  0.26546  1.0000
  H   H77       1.0  0.70127  0.73049  0.22786  1.0000
  C   C79       1.0  0.77324  0.70375  0.33641  1.0000
  C   C80       1.0  0.77062  0.71152  0.25685  1.0000
  N   N22       1.0  0.76014  0.72068  0.25719  1.0000
  H   H78       1.0  0.77627  0.71011  0.19797  1.0000
  N   N23       1.0  0.71714  0.70899  0.21346  1.0000
  H   H79       1.0  0.70554  0.70447  0.17708  1.0000
  H   H80       1.0  0.72318  0.70100  0.21383  1.0000
  N   N24       1.0  0.78177  0.69307  0.33289  1.0000
  C   C81       1.0  0.32907  0.99875  0.26395  1.0000
  C   C82       1.0  0.31885  0.97820  0.26501  1.0000
  H   H81       1.0  0.32385  0.97086  0.22738  1.0000
  C   C83       1.0  0.35056  0.06955  0.33620  1.0000
  C   C84       1.0  0.34279  0.05917  0.25661  1.0000
  N   N25       1.0  0.33364  0.03953  0.25690  1.0000
  H   H82       1.0  0.34421  0.06625  0.19775  1.0000
  N   N26       1.0  0.34534  0.00823  0.21304  1.0000
  H   H83       1.0  0.34986  0.00115  0.17663  1.0000
  H   H84       1.0  0.35333  0.02226  0.21342  1.0000
  N   N27       1.0  0.36123  0.08876  0.33274  1.0000
  C   C85       1.0  0.01679  0.70588  0.26395  1.0000
  C   C86       1.0  0.99624  0.69555  0.26509  1.0000
  H   H85       1.0  0.98889  0.68321  0.22750  1.0000
  C   C87       1.0  0.08761  0.75515  0.33597  1.0000
  C   C88       1.0  0.07723  0.75256  0.25642  1.0000
  N   N28       1.0  0.05758  0.74208  0.25677  1.0000
  H   H86       1.0  0.08429  0.75821  0.19754  1.0000
  N   N29       1.0  0.02626  0.69908  0.21301  1.0000
  H   H87       1.0  0.01917  0.68747  0.17663  1.0000
  H   H88       1.0  0.04029  0.70512  0.21333  1.0000
  N   N30       1.0  0.10682  0.76368  0.33244  1.0000
  C   C89       1.0  0.34850  0.31101  0.26430  1.0000
  C   C90       1.0  0.35881  0.30076  0.26547  1.0000
  H   H89       1.0  0.37115  0.30573  0.22786  1.0000
  C   C91       1.0  0.29921  0.33256  0.33604  1.0000
  C   C92       1.0  0.30184  0.32478  0.25653  1.0000
  N   N31       1.0  0.31232  0.31563  0.25695  1.0000
  H   H90       1.0  0.29619  0.32619  0.19762  1.0000
  N   N32       1.0  0.35532  0.32727  0.21332  1.0000
  H   H91       1.0  0.36693  0.33177  0.17695  1.0000
  H   H92       1.0  0.34930  0.33528  0.21363  1.0000
  N   N33       1.0  0.29066  0.34323  0.33247  1.0000
  C   C93       1.0  0.74332  0.03752  0.26426  1.0000
  C   C94       1.0  0.75354  0.05807  0.26536  1.0000
  H   H93       1.0  0.74855  0.06542  0.22775  1.0000
  C   C95       1.0  0.72181  0.96671  0.33631  1.0000
  C   C96       1.0  0.72959  0.97710  0.25675  1.0000
  N   N34       1.0  0.73875  0.99674  0.25709  1.0000
  H   H94       1.0  0.72818  0.97004  0.19787  1.0000
  N   N35       1.0  0.72706  0.02805  0.21334  1.0000
  H   H95       1.0  0.72254  0.03513  0.17695  1.0000
  H   H96       1.0  0.71907  0.01402  0.21370  1.0000
  N   N36       1.0  0.71114  0.94749  0.33278  1.0000
  C   C97       1.0  0.20659  0.37988  0.35406  1.0000
  C   C98       1.0  0.22354  0.37913  0.35372  1.0000
  C   C99       1.0  0.23915  0.39814  0.35118  1.0000
  N   N37       1.0  0.23110  0.40965  0.34898  1.0000
  C   C100      1.0  0.21145  0.39935  0.35153  1.0000
  C   C101      1.0  0.19788  0.40604  0.35270  1.0000
  C   C102      1.0  0.20281  0.42581  0.35194  1.0000
  N   N38       1.0  0.22073  0.44164  0.35022  1.0000
  C   C103      1.0  0.22006  0.45827  0.35156  1.0000
  C   C104      1.0  0.20041  0.45274  0.35398  1.0000
  C   C105      1.0  0.18977  0.43273  0.35404  1.0000
  C   C106      1.0  0.23592  0.47758  0.35223  1.0000
  C   C107      1.0  0.25582  0.48278  0.35132  1.0000
  N   N39       1.0  0.26390  0.47130  0.34801  1.0000
  C   C108      1.0  0.28356  0.48157  0.35094  1.0000
  C   C109      1.0  0.28840  0.50103  0.35474  1.0000
  C   C110      1.0  0.27144  0.50178  0.35477  1.0000
  C   C111      1.0  0.29715  0.47490  0.35162  1.0000
  C   C112      1.0  0.29220  0.45511  0.35036  1.0000
  N   N40       1.0  0.27427  0.43930  0.34897  1.0000
  C   C113      1.0  0.27491  0.42265  0.35039  1.0000
  C   C114      1.0  0.29456  0.42816  0.35236  1.0000
  C   C115      1.0  0.30521  0.44817  0.35206  1.0000
  C   C116      1.0  0.25904  0.40335  0.35178  1.0000
  C   C117      1.0  0.26346  0.38816  0.35966  1.0000
  C   C118      1.0  0.27379  0.35883  0.37800  1.0000
  C   C119      1.0  0.26910  0.36635  0.45358  1.0000
  C   C120      1.0  0.26406  0.38086  0.44467  1.0000
  C   C121      1.0  0.31719  0.48904  0.35965  1.0000
  C   C122      1.0  0.35682  0.51852  0.37861  1.0000
  C   C123      1.0  0.34557  0.50825  0.45375  1.0000
  C   C124      1.0  0.32602  0.49375  0.44455  1.0000
  C   C125      1.0  0.23145  0.49277  0.35901  1.0000
  C   C126      1.0  0.23046  0.50004  0.44352  1.0000
  C   C127      1.0  0.22569  0.51478  0.45090  1.0000
  C   C128      1.0  0.22184  0.52267  0.37416  1.0000
  C   C129      1.0  0.17785  0.39186  0.35917  1.0000
  C   C130      1.0  0.16891  0.38619  0.44362  1.0000
  C   C131      1.0  0.13801  0.36292  0.37365  1.0000
  C   C132      1.0  0.14924  0.37188  0.45068  1.0000
  H   H97       1.0  0.14317  0.36815  0.51293  1.0000
  H   H98       1.0  0.17668  0.39239  0.50051  1.0000
  H   H99       1.0  0.19301  0.36795  0.35666  1.0000
  H   H100      1.0  0.22412  0.36660  0.35585  1.0000
  H   H101      1.0  0.23850  0.42356  0.34709  1.0000
  H   H102      1.0  0.25650  0.45739  0.34501  1.0000
  H   H103      1.0  0.17497  0.42474  0.35619  1.0000
  H   H104      1.0  0.19456  0.46160  0.35611  1.0000
  H   H105      1.0  0.23314  0.49460  0.50025  1.0000
  H   H106      1.0  0.22515  0.51976  0.51322  1.0000
  H   H107      1.0  0.27085  0.51430  0.35813  1.0000
  H   H108      1.0  0.30197  0.51295  0.35835  1.0000
  H   H109      1.0  0.30040  0.41929  0.35462  1.0000
  H   H110      1.0  0.32002  0.45614  0.35403  1.0000
  H   H111      1.0  0.31819  0.48687  0.50042  1.0000
  H   H112      1.0  0.35137  0.51154  0.51660  1.0000
  H   H113      1.0  0.26111  0.38627  0.50077  1.0000
  H   H114      1.0  0.26978  0.36170  0.51646  1.0000
  C   C133      1.0  0.37576  0.53358  0.39115  1.0000
  C   C134      1.0  0.21718  0.53722  0.38379  1.0000
  C   C135      1.0  0.11860  0.34890  0.38283  1.0000
  C   C136      1.0  0.27991  0.34540  0.39003  1.0000
  H   H115      1.0  0.38228  0.53446  0.44904  1.0000
  H   H116      1.0  0.21151  0.53824  0.44131  1.0000
  H   H117      1.0  0.11421  0.34154  0.43978  1.0000
  H   H118      1.0  0.27698  0.33823  0.44759  1.0000
  C   C137      1.0  0.67444  0.82677  0.35324  1.0000
  C   C138      1.0  0.67518  0.84447  0.35295  1.0000
  C   C139      1.0  0.65617  0.84107  0.35102  1.0000
  N   N41       1.0  0.64466  0.82151  0.34893  1.0000
  C   C140      1.0  0.65496  0.81216  0.35126  1.0000
  C   C141      1.0  0.64827  0.79191  0.35284  1.0000
  C   C142      1.0  0.62849  0.77706  0.35233  1.0000
  N   N42       1.0  0.61267  0.77915  0.35045  1.0000
  C   C143      1.0  0.59604  0.76186  0.35204  1.0000
  C   C144      1.0  0.60156  0.74774  0.35479  1.0000
  C   C145      1.0  0.62157  0.75711  0.35486  1.0000
  C   C146      1.0  0.57673  0.75841  0.35260  1.0000
  C   C147      1.0  0.57152  0.77311  0.35137  1.0000
  N   N43       1.0  0.58301  0.79267  0.34813  1.0000
  C   C148      1.0  0.57274  0.80205  0.35088  1.0000
  C   C149      1.0  0.55327  0.78743  0.35448  1.0000
  C   C150      1.0  0.55253  0.76973  0.35442  1.0000
  C   C151      1.0  0.57941  0.82232  0.35164  1.0000
  C   C152      1.0  0.59920  0.83715  0.35076  1.0000
  N   N44       1.0  0.61502  0.83504  0.34924  1.0000
  C   C153      1.0  0.63166  0.85232  0.35094  1.0000
  C   C154      1.0  0.62615  0.86646  0.35320  1.0000
  C   C155      1.0  0.60614  0.85711  0.35280  1.0000
  C   C156      1.0  0.65096  0.85575  0.35208  1.0000
  C   C157      1.0  0.66616  0.87536  0.35997  1.0000
  C   C158      1.0  0.69550  0.91502  0.37836  1.0000
  C   C159      1.0  0.68799  0.90279  0.45391  1.0000
  C   C160      1.0  0.67349  0.88323  0.44497  1.0000
  C   C161      1.0  0.56527  0.82821  0.35975  1.0000
  C   C162      1.0  0.53581  0.83839  0.37873  1.0000
  C   C163      1.0  0.54603  0.83736  0.45389  1.0000
  C   C164      1.0  0.56052  0.83228  0.44468  1.0000
  C   C165      1.0  0.56153  0.73875  0.35931  1.0000
  C   C166      1.0  0.55423  0.73049  0.44381  1.0000
  C   C167      1.0  0.53948  0.71099  0.45115  1.0000
  C   C168      1.0  0.53163  0.69924  0.37440  1.0000
  C   C169      1.0  0.66245  0.78606  0.35934  1.0000
  C   C170      1.0  0.66815  0.78285  0.44383  1.0000
  C   C171      1.0  0.69136  0.77512  0.37389  1.0000
  C   C172      1.0  0.68245  0.77747  0.45092  1.0000
  H   H119      1.0  0.68620  0.77518  0.51320  1.0000
  H   H120      1.0  0.66198  0.78447  0.50072  1.0000
  H   H121      1.0  0.68636  0.82511  0.35592  1.0000
  H   H122      1.0  0.68772  0.85758  0.35520  1.0000
  H   H123      1.0  0.63075  0.81500  0.34803  1.0000
  H   H124      1.0  0.59692  0.79918  0.34538  1.0000
  H   H125      1.0  0.62956  0.75029  0.35712  1.0000
  H   H126      1.0  0.59270  0.73302  0.35714  1.0000
  H   H127      1.0  0.55964  0.73861  0.50055  1.0000
  H   H128      1.0  0.53448  0.70547  0.51346  1.0000
  H   H129      1.0  0.54000  0.75662  0.35795  1.0000
  H   H130      1.0  0.54136  0.78909  0.35793  1.0000
  H   H131      1.0  0.63503  0.88117  0.35546  1.0000
  H   H132      1.0  0.59817  0.86395  0.35467  1.0000
  H   H133      1.0  0.56736  0.83129  0.50056  1.0000
  H   H134      1.0  0.54271  0.83983  0.51676  1.0000
  H   H135      1.0  0.66809  0.87487  0.50105  1.0000
  H   H136      1.0  0.69267  0.90811  0.51677  1.0000
  C   C173      1.0  0.52078  0.84232  0.39124  1.0000
  C   C174      1.0  0.51707  0.68003  0.38400  1.0000
  C   C175      1.0  0.70535  0.76969  0.38312  1.0000
  C   C176      1.0  0.70891  0.93457  0.39044  1.0000
  H   H137      1.0  0.51989  0.84794  0.44918  1.0000
  H   H138      1.0  0.51604  0.67334  0.44151  1.0000
  H   H139      1.0  0.71274  0.77270  0.44000  1.0000
  H   H140      1.0  0.71607  0.93881  0.44803  1.0000
  C   C177      1.0  0.22756  0.84773  0.35350  1.0000
  C   C178      1.0  0.20986  0.83078  0.35310  1.0000
  C   C179      1.0  0.21326  0.81517  0.35082  1.0000
  N   N45       1.0  0.23281  0.82322  0.34862  1.0000
  C   C180      1.0  0.24217  0.84286  0.35108  1.0000
  C   C181      1.0  0.26242  0.85643  0.35234  1.0000
  C   C182      1.0  0.27727  0.85150  0.35167  1.0000
  N   N46       1.0  0.27517  0.83357  0.34992  1.0000
  C   C183      1.0  0.29247  0.83424  0.35132  1.0000
  C   C184      1.0  0.30659  0.85388  0.35386  1.0000
  C   C185      1.0  0.29722  0.86453  0.35393  1.0000
  C   C186      1.0  0.29591  0.81838  0.35204  1.0000
  C   C187      1.0  0.28121  0.79847  0.35113  1.0000
  N   N47       1.0  0.26165  0.79040  0.34782  1.0000
  C   C188      1.0  0.25226  0.77074  0.35078  1.0000
  C   C189      1.0  0.26689  0.76590  0.35468  1.0000
  C   C190      1.0  0.28459  0.78286  0.35462  1.0000
  C   C191      1.0  0.23200  0.75715  0.35140  1.0000
  C   C192      1.0  0.21717  0.76211  0.35032  1.0000
  N   N48       1.0  0.21929  0.78005  0.34891  1.0000
  C   C193      1.0  0.20200  0.77940  0.35040  1.0000
  C   C194      1.0  0.18786  0.75976  0.35239  1.0000
  C   C195      1.0  0.19721  0.74910  0.35205  1.0000
  C   C196      1.0  0.19857  0.79527  0.35158  1.0000
  C   C197      1.0  0.17896  0.79086  0.35952  1.0000
  C   C198      1.0  0.13930  0.78051  0.37800  1.0000
  C   C199      1.0  0.15152  0.78522  0.45353  1.0000
  C   C200      1.0  0.17108  0.79028  0.44455  1.0000
  C   C201      1.0  0.22610  0.73712  0.35945  1.0000
  C   C202      1.0  0.21592  0.69747  0.37837  1.0000
  C   C203      1.0  0.21689  0.70872  0.45352  1.0000
  C   C204      1.0  0.22195  0.72827  0.44433  1.0000
  C   C205      1.0  0.31557  0.82284  0.35885  1.0000
  C   C206      1.0  0.32382  0.82382  0.44339  1.0000
  C   C207      1.0  0.34333  0.82860  0.45081  1.0000
  C   C208      1.0  0.35509  0.83248  0.37410  1.0000
  C   C209      1.0  0.26827  0.87645  0.35888  1.0000
  C   C210      1.0  0.27151  0.88537  0.44337  1.0000
  C   C211      1.0  0.27923  0.91631  0.37349  1.0000
  C   C212      1.0  0.27691  0.90505  0.45049  1.0000
  H   H141      1.0  0.27922  0.91110  0.51277  1.0000
  H   H142      1.0  0.26991  0.87758  0.50025  1.0000
  H   H143      1.0  0.22922  0.86131  0.35610  1.0000
  H   H144      1.0  0.19675  0.83020  0.35539  1.0000
  H   H145      1.0  0.23932  0.81581  0.34703  1.0000
  H   H146      1.0  0.25515  0.79780  0.34459  1.0000
  H   H147      1.0  0.30404  0.87933  0.35608  1.0000
  H   H148      1.0  0.32131  0.85974  0.35607  1.0000
  H   H149      1.0  0.31569  0.82112  0.50010  1.0000
  H   H150      1.0  0.34883  0.82913  0.51315  1.0000
  H   H151      1.0  0.29770  0.78344  0.35812  1.0000
  H   H152      1.0  0.26522  0.75233  0.35829  1.0000
  H   H153      1.0  0.17314  0.75392  0.35439  1.0000
  H   H154      1.0  0.19037  0.73429  0.35374  1.0000
  H   H155      1.0  0.22291  0.73610  0.50021  1.0000
  H   H156      1.0  0.21437  0.70291  0.51636  1.0000
  H   H157      1.0  0.17944  0.79324  0.50061  1.0000
  H   H158      1.0  0.14619  0.78455  0.51642  1.0000
  C   C213      1.0  0.21202  0.67853  0.39088  1.0000
  C   C214      1.0  0.37431  0.83717  0.38377  1.0000
  C   C215      1.0  0.28468  0.93573  0.38275  1.0000
  C   C216      1.0  0.11975  0.77436  0.39012  1.0000
  H   H159      1.0  0.20638  0.67201  0.44881  1.0000
  H   H160      1.0  0.38097  0.84281  0.44134  1.0000
  H   H161      1.0  0.28168  0.94011  0.43965  1.0000
  H   H162      1.0  0.11550  0.77729  0.44766  1.0000
  C   C217      1.0  0.86578  0.65637  0.35422  1.0000
  C   C218      1.0  0.84883  0.65711  0.35385  1.0000
  C   C219      1.0  0.83322  0.63811  0.35138  1.0000
  N   N49       1.0  0.84128  0.62660  0.34917  1.0000
  C   C220      1.0  0.86092  0.63690  0.35172  1.0000
  C   C221      1.0  0.87449  0.63021  0.35297  1.0000
  C   C222      1.0  0.86957  0.61044  0.35226  1.0000
  N   N50       1.0  0.85165  0.59461  0.35060  1.0000
  C   C223      1.0  0.85232  0.57798  0.35194  1.0000
  C   C224      1.0  0.87197  0.58351  0.35431  1.0000
  C   C225      1.0  0.88260  0.60352  0.35444  1.0000
  C   C226      1.0  0.83646  0.55867  0.35273  1.0000
  C   C227      1.0  0.81656  0.55347  0.35176  1.0000
  N   N51       1.0  0.80848  0.56495  0.34832  1.0000
  C   C228      1.0  0.78882  0.55467  0.35122  1.0000
  C   C229      1.0  0.78399  0.53522  0.35530  1.0000
  C   C230      1.0  0.80095  0.53447  0.35533  1.0000
  C   C231      1.0  0.77523  0.56135  0.35172  1.0000
  C   C232      1.0  0.78018  0.58113  0.35055  1.0000
  N   N52       1.0  0.79811  0.59695  0.34924  1.0000
  C   C233      1.0  0.79746  0.61359  0.35070  1.0000
  C   C234      1.0  0.77782  0.60808  0.35261  1.0000
  C   C235      1.0  0.76716  0.58807  0.35220  1.0000
  C   C236      1.0  0.81333  0.63289  0.35194  1.0000
  C   C237      1.0  0.80891  0.64809  0.35992  1.0000
  C   C238      1.0  0.79859  0.67742  0.37843  1.0000
  C   C239      1.0  0.80324  0.66986  0.45397  1.0000
  C   C240      1.0  0.80829  0.65535  0.44498  1.0000
  C   C241      1.0  0.75519  0.54721  0.35983  1.0000
  C   C242      1.0  0.71556  0.51771  0.37891  1.0000
  C   C243      1.0  0.72680  0.52801  0.45400  1.0000
  C   C244      1.0  0.74635  0.54252  0.44474  1.0000
  C   C245      1.0  0.84093  0.54348  0.35945  1.0000
  C   C246      1.0  0.84194  0.53622  0.44395  1.0000
  C   C247      1.0  0.84672  0.52149  0.45129  1.0000
  C   C248      1.0  0.85057  0.51360  0.37452  1.0000
  C   C249      1.0  0.89452  0.64439  0.35939  1.0000
  C   C250      1.0  0.90346  0.65007  0.44383  1.0000
  C   C251      1.0  0.93437  0.67331  0.37379  1.0000
  C   C252      1.0  0.92314  0.66436  0.45084  1.0000
  H   H163      1.0  0.92920  0.66810  0.51309  1.0000
  H   H164      1.0  0.89569  0.64388  0.50075  1.0000
  H   H165      1.0  0.87936  0.66829  0.35693  1.0000
  H   H166      1.0  0.84825  0.66965  0.35608  1.0000
  H   H167      1.0  0.83388  0.61269  0.34732  1.0000
  H   H168      1.0  0.81587  0.57885  0.34498  1.0000
  H   H169      1.0  0.89741  0.61151  0.35644  1.0000
  H   H170      1.0  0.87782  0.57465  0.35649  1.0000
  H   H171      1.0  0.83927  0.54165  0.50071  1.0000
  H   H172      1.0  0.84727  0.51652  0.51361  1.0000
  H   H173      1.0  0.80153  0.52195  0.35896  1.0000
  H   H174      1.0  0.77041  0.52330  0.35893  1.0000
  H   H175      1.0  0.77197  0.61696  0.35462  1.0000
  H   H176      1.0  0.75235  0.58010  0.35398  1.0000
  H   H177      1.0  0.75418  0.54941  0.50058  1.0000
  H   H178      1.0  0.72099  0.52473  0.51685  1.0000
  H   H179      1.0  0.81122  0.64993  0.50104  1.0000
  H   H180      1.0  0.80256  0.67451  0.51686  1.0000
  C   C253      1.0  0.69662  0.50265  0.39149  1.0000
  C   C254      1.0  0.85525  0.49906  0.38411  1.0000
  C   C255      1.0  0.95379  0.68729  0.38293  1.0000
  C   C256      1.0  0.79247  0.69085  0.39053  1.0000
  H   H181      1.0  0.69010  0.50178  0.44941  1.0000
  H   H182      1.0  0.86093  0.49806  0.44161  1.0000
  H   H183      1.0  0.95818  0.69468  0.43981  1.0000
  H   H184      1.0  0.79537  0.69800  0.44813  1.0000
  C   C257      1.0  0.39794  0.20946  0.35448  1.0000
  C   C258      1.0  0.39720  0.19177  0.35416  1.0000
  C   C259      1.0  0.41620  0.19517  0.35168  1.0000
  N   N53       1.0  0.42771  0.21473  0.34948  1.0000
  C   C260      1.0  0.41741  0.22408  0.35199  1.0000
  C   C261      1.0  0.42409  0.24433  0.35316  1.0000
  C   C262      1.0  0.44387  0.25918  0.35242  1.0000
  N   N54       1.0  0.45969  0.25709  0.35072  1.0000
  C   C263      1.0  0.47632  0.27439  0.35208  1.0000
  C   C264      1.0  0.47079  0.28851  0.35448  1.0000
  C   C265      1.0  0.45078  0.27913  0.35453  1.0000
  C   C266      1.0  0.49563  0.27784  0.35276  1.0000
  C   C267      1.0  0.50084  0.26315  0.35187  1.0000
  N   N55       1.0  0.48936  0.24358  0.34858  1.0000
  C   C268      1.0  0.49963  0.23420  0.35152  1.0000
  C   C269      1.0  0.51910  0.24883  0.35529  1.0000
  C   C270      1.0  0.51983  0.26653  0.35531  1.0000
  C   C271      1.0  0.49296  0.21394  0.35222  1.0000
  C   C272      1.0  0.47318  0.19910  0.35095  1.0000
  N   N56       1.0  0.45736  0.20122  0.34954  1.0000
  C   C273      1.0  0.44072  0.18393  0.35096  1.0000
  C   C274      1.0  0.44623  0.16979  0.35296  1.0000
  C   C275      1.0  0.46624  0.17915  0.35268  1.0000
  C   C276      1.0  0.42142  0.18049  0.35232  1.0000
  C   C277      1.0  0.40622  0.16087  0.36017  1.0000
  C   C278      1.0  0.37688  0.12122  0.37843  1.0000
  C   C279      1.0  0.38440  0.13342  0.45404  1.0000
  C   C280      1.0  0.39892  0.15297  0.44517  1.0000
  C   C281      1.0  0.50711  0.20805  0.36025  1.0000
  C   C282      1.0  0.53659  0.19789  0.37921  1.0000
  C   C283      1.0  0.52632  0.19887  0.45435  1.0000
  C   C284      1.0  0.51182  0.20393  0.44515  1.0000
  C   C285      1.0  0.51082  0.29750  0.35953  1.0000
  C   C286      1.0  0.51809  0.30576  0.44404  1.0000
  C   C287      1.0  0.53283  0.32527  0.45142  1.0000
  C   C288      1.0  0.54072  0.33702  0.37468  1.0000
  C   C289      1.0  0.40991  0.25018  0.35957  1.0000
  C   C290      1.0  0.40422  0.25343  0.44401  1.0000
  C   C291      1.0  0.38096  0.26107  0.37397  1.0000
  C   C292      1.0  0.38990  0.25879  0.45102  1.0000
  H   H185      1.0  0.38616  0.26111  0.51327  1.0000
  H   H186      1.0  0.41041  0.25186  0.50093  1.0000
  H   H187      1.0  0.38601  0.21112  0.35704  1.0000
  H   H188      1.0  0.38466  0.17865  0.35628  1.0000
  H   H189      1.0  0.44162  0.22124  0.34764  1.0000
  H   H190      1.0  0.47545  0.23708  0.34559  1.0000
  H   H191      1.0  0.44279  0.28595  0.35666  1.0000
  H   H192      1.0  0.47965  0.30323  0.35662  1.0000
  H   H193      1.0  0.51266  0.29765  0.50078  1.0000
  H   H194      1.0  0.53780  0.33078  0.51374  1.0000
  H   H195      1.0  0.53236  0.27964  0.35866  1.0000
  H   H196      1.0  0.53101  0.24717  0.35891  1.0000
  H   H197      1.0  0.43736  0.15508  0.35522  1.0000
  H   H198      1.0  0.47421  0.17231  0.35466  1.0000
  H   H199      1.0  0.50494  0.20488  0.50103  1.0000
  H   H200      1.0  0.52961  0.19636  0.51720  1.0000
  H   H201      1.0  0.40433  0.16132  0.50127  1.0000
  H   H202      1.0  0.37974  0.12807  0.51690  1.0000
  C   C293      1.0  0.55164  0.19400  0.39173  1.0000
  C   C294      1.0  0.55527  0.35623  0.38431  1.0000
  C   C295      1.0  0.36694  0.26646  0.38310  1.0000
  C   C296      1.0  0.36344  0.10168  0.39041  1.0000
  H   H203      1.0  0.55251  0.18835  0.44963  1.0000
  H   H204      1.0  0.55628  0.36291  0.44182  1.0000
  H   H205      1.0  0.35955  0.26345  0.43998  1.0000
  H   H206      1.0  0.35628  0.09742  0.44801  1.0000
  C   C297      1.0  0.84483  0.18853  0.35313  1.0000
  C   C298      1.0  0.86253  0.20548  0.35283  1.0000
  C   C299      1.0  0.85913  0.22109  0.35092  1.0000
  N   N57       1.0  0.83958  0.21304  0.34887  1.0000
  C   C300      1.0  0.83022  0.19339  0.35118  1.0000
  C   C301      1.0  0.80997  0.17983  0.35279  1.0000
  C   C302      1.0  0.79512  0.18476  0.35230  1.0000
  N   N58       1.0  0.79722  0.20268  0.35038  1.0000
  C   C303      1.0  0.77992  0.20202  0.35198  1.0000
  C   C304      1.0  0.76580  0.18238  0.35478  1.0000
  C   C305      1.0  0.77517  0.17174  0.35486  1.0000
  C   C306      1.0  0.77648  0.21788  0.35248  1.0000
  C   C307      1.0  0.79118  0.23779  0.35126  1.0000
  N   N59       1.0  0.81074  0.24586  0.34802  1.0000
  C   C308      1.0  0.82013  0.26552  0.35076  1.0000
  C   C309      1.0  0.80550  0.27036  0.35434  1.0000
  C   C310      1.0  0.78780  0.25340  0.35430  1.0000
  C   C311      1.0  0.84039  0.27910  0.35152  1.0000
  C   C312      1.0  0.85522  0.27415  0.35064  1.0000
  N   N60       1.0  0.85310  0.25621  0.34913  1.0000
  C   C313      1.0  0.87039  0.25685  0.35085  1.0000
  C   C314      1.0  0.88453  0.27649  0.35311  1.0000
  C   C315      1.0  0.87518  0.28716  0.35270  1.0000
  C   C316      1.0  0.87382  0.24098  0.35198  1.0000
  C   C317      1.0  0.89343  0.24539  0.35986  1.0000
  C   C318      1.0  0.93308  0.25571  0.37823  1.0000
  C   C319      1.0  0.92085  0.25098  0.45378  1.0000
  C   C320      1.0  0.90129  0.24592  0.44485  1.0000
  C   C321      1.0  0.84629  0.29914  0.35961  1.0000
  C   C322      1.0  0.85646  0.33878  0.37860  1.0000
  C   C323      1.0  0.85543  0.32752  0.45376  1.0000
  C   C324      1.0  0.85035  0.30796  0.44455  1.0000
  C   C325      1.0  0.75682  0.21343  0.35926  1.0000
  C   C326      1.0  0.74858  0.21249  0.44377  1.0000
  C   C327      1.0  0.72907  0.20773  0.45117  1.0000
  C   C328      1.0  0.71731  0.20383  0.37446  1.0000
  C   C329      1.0  0.80412  0.15980  0.35929  1.0000
  C   C330      1.0  0.80091  0.15089  0.44377  1.0000
  C   C331      1.0  0.79317  0.11995  0.37382  1.0000
  C   C332      1.0  0.79553  0.13121  0.45085  1.0000
  H   H207      1.0  0.79324  0.12516  0.51313  1.0000
  H   H208      1.0  0.80253  0.15867  0.50067  1.0000
  H   H209      1.0  0.84317  0.17494  0.35580  1.0000
  H   H210      1.0  0.87564  0.20605  0.35506  1.0000
  H   H211      1.0  0.83307  0.22045  0.34802  1.0000
  H   H212      1.0  0.81724  0.23846  0.34527  1.0000
  H   H213      1.0  0.76835  0.15693  0.35716  1.0000
  H   H214      1.0  0.75109  0.17653  0.35714  1.0000
  H   H215      1.0  0.75670  0.21520  0.50049  1.0000
  H   H216      1.0  0.72357  0.20723  0.51349  1.0000
  H   H217      1.0  0.77469  0.25282  0.35781  1.0000
  H   H218      1.0  0.80716  0.28393  0.35778  1.0000
  H   H219      1.0  0.89924  0.28233  0.35536  1.0000
  H   H220      1.0  0.88202  0.30196  0.35456  1.0000
  H   H221      1.0  0.84936  0.30011  0.50043  1.0000
  H   H222      1.0  0.85789  0.33330  0.51663  1.0000
  H   H223      1.0  0.89293  0.24295  0.50093  1.0000
  H   H224      1.0  0.92617  0.25162  0.51664  1.0000
  C   C333      1.0  0.86037  0.35773  0.39110  1.0000
  C   C334      1.0  0.69811  0.19918  0.38411  1.0000
  C   C335      1.0  0.78774  0.10053  0.38304  1.0000
  C   C336      1.0  0.95263  0.26184  0.39030  1.0000
  H   H225      1.0  0.86600  0.36424  0.44904  1.0000
  H   H226      1.0  0.69143  0.19354  0.44167  1.0000
  H   H227      1.0  0.79074  0.09615  0.43992  1.0000
  H   H228      1.0  0.95687  0.25893  0.44788  1.0000
  C   C337      1.0  0.21940  0.56589  0.32171  1.0000
  C   C338      1.0  0.20597  0.56825  0.37390  1.0000
  N   N61       1.0  0.20606  0.58530  0.37232  1.0000
  C   C339      1.0  0.21835  0.60077  0.32149  1.0000
  C   C340      1.0  0.21735  0.61793  0.33202  1.0000
  C   C341      1.0  0.22059  0.62789  0.41472  1.0000
  C   C342      1.0  0.21960  0.64517  0.41520  1.0000
  H   H229      1.0  0.22267  0.65305  0.47286  1.0000
  H   H230      1.0  0.19639  0.55749  0.41503  1.0000
  N   N62       1.0  0.22539  0.62217  0.49146  1.0000
  H   H231      1.0  0.22734  0.61108  0.49339  1.0000
  H   H232      1.0  0.22789  0.62958  0.54637  1.0000
  N   N63       1.0  0.22155  0.55035  0.32391  1.0000
  C   C343      1.0  0.48843  0.65358  0.32183  1.0000
  C   C344      1.0  0.48607  0.63778  0.37400  1.0000
  N   N64       1.0  0.46902  0.62082  0.37243  1.0000
  C   C345      1.0  0.45355  0.61762  0.32161  1.0000
  C   C346      1.0  0.43639  0.59947  0.33216  1.0000
  C   C347      1.0  0.42643  0.59276  0.41487  1.0000
  C   C348      1.0  0.40914  0.57450  0.41538  1.0000
  H   H233      1.0  0.40126  0.56970  0.47304  1.0000
  H   H234      1.0  0.49682  0.63896  0.41513  1.0000
  N   N65       1.0  0.43214  0.60329  0.49159  1.0000
  H   H235      1.0  0.44324  0.61633  0.49350  1.0000
  H   H236      1.0  0.42473  0.59839  0.54651  1.0000
  N   N66       1.0  0.50396  0.67127  0.32405  1.0000
  C   C349      1.0  0.40075  0.83492  0.32184  1.0000
  C   C350      1.0  0.41654  0.84836  0.37400  1.0000
  N   N67       1.0  0.43350  0.84827  0.37250  1.0000
  C   C351      1.0  0.43670  0.83598  0.32175  1.0000
  C   C352      1.0  0.45485  0.83698  0.33230  1.0000
  C   C353      1.0  0.46158  0.83376  0.41504  1.0000
  C   C354      1.0  0.47984  0.83474  0.41554  1.0000
  H   H237      1.0  0.48465  0.83169  0.47323  1.0000
  H   H238      1.0  0.41536  0.85795  0.41508  1.0000
  N   N68       1.0  0.45105  0.82897  0.49179  1.0000
  H   H239      1.0  0.43801  0.82702  0.49371  1.0000
  H   H240      1.0  0.45596  0.82648  0.54673  1.0000
  N   N69       1.0  0.38307  0.83278  0.32395  1.0000
  C   C355      1.0  0.85298  0.47037  0.32212  1.0000
  C   C356      1.0  0.86640  0.46799  0.37429  1.0000
  N   N70       1.0  0.86631  0.45094  0.37270  1.0000
  C   C357      1.0  0.85403  0.43547  0.32187  1.0000
  C   C358      1.0  0.85501  0.41831  0.33236  1.0000
  C   C359      1.0  0.85178  0.40835  0.41505  1.0000
  C   C360      1.0  0.85276  0.39107  0.41550  1.0000
  H   H241      1.0  0.84969  0.38318  0.47316  1.0000
  H   H242      1.0  0.87599  0.47875  0.41542  1.0000
  N   N71       1.0  0.84697  0.41406  0.49181  1.0000
  H   H243      1.0  0.84502  0.42516  0.49376  1.0000
  H   H244      1.0  0.84447  0.40665  0.54671  1.0000
  N   N72       1.0  0.85085  0.48592  0.32431  1.0000
  C   C361      1.0  0.58393  0.38267  0.32223  1.0000
  C   C362      1.0  0.58630  0.39847  0.37441  1.0000
  N   N73       1.0  0.60335  0.41543  0.37284  1.0000
  C   C363      1.0  0.61882  0.41862  0.32202  1.0000
  C   C364      1.0  0.63598  0.43676  0.33256  1.0000
  C   C365      1.0  0.64594  0.44348  0.41526  1.0000
  C   C366      1.0  0.66323  0.46173  0.41576  1.0000
  H   H245      1.0  0.67111  0.46653  0.47342  1.0000
  H   H246      1.0  0.57554  0.39729  0.41554  1.0000
  N   N74       1.0  0.64021  0.43294  0.49200  1.0000
  H   H247      1.0  0.62911  0.41990  0.49392  1.0000
  H   H248      1.0  0.64762  0.43784  0.54691  1.0000
  N   N75       1.0  0.56839  0.36498  0.32442  1.0000
  C   C367      1.0  0.67164  0.20134  0.32197  1.0000
  C   C368      1.0  0.65585  0.18789  0.37412  1.0000
  N   N76       1.0  0.63887  0.18796  0.37263  1.0000
  C   C369      1.0  0.63567  0.20024  0.32190  1.0000
  C   C370      1.0  0.61752  0.19924  0.33253  1.0000
  C   C371      1.0  0.61080  0.20247  0.41529  1.0000
  C   C372      1.0  0.59255  0.20149  0.41586  1.0000
  H   H249      1.0  0.58775  0.20456  0.47356  1.0000
  H   H250      1.0  0.65704  0.17830  0.41519  1.0000
  N   N77       1.0  0.62134  0.20726  0.49200  1.0000
  H   H251      1.0  0.63438  0.20920  0.49388  1.0000
  H   H252      1.0  0.61643  0.20975  0.54695  1.0000
  N   N78       1.0  0.68933  0.20350  0.32413  1.0000
  C   C373      1.0  0.08680  0.33514  0.32089  1.0000
  C   C374      1.0  0.07630  0.31817  0.37241  1.0000
  N   N79       1.0  0.05667  0.30845  0.37076  1.0000
  C   C375      1.0  0.04595  0.31381  0.32034  1.0000
  C   C376      1.0  0.02558  0.30282  0.33101  1.0000
  C   C377      1.0  0.01601  0.30090  0.41379  1.0000
  C   C378      1.0  0.99550  0.28985  0.41446  1.0000
  H   H253      1.0  0.98819  0.28891  0.47212  1.0000
  H   H254      1.0  0.08317  0.31325  0.41326  1.0000
  N   N80       1.0  0.02544  0.30979  0.49039  1.0000
  H   H255      1.0  0.03939  0.31839  0.49216  1.0000
  H   H256      1.0  0.01836  0.30846  0.54535  1.0000
  N   N81       1.0  0.10596  0.34663  0.32353  1.0000
  C   C379      1.0  0.71916  0.75170  0.32109  1.0000
  C   C380      1.0  0.73613  0.75819  0.37262  1.0000
  N   N82       1.0  0.74587  0.74829  0.37096  1.0000
  C   C381      1.0  0.74051  0.73220  0.32053  1.0000
  C   C382      1.0  0.75151  0.72284  0.33122  1.0000
  C   C383      1.0  0.75342  0.71518  0.41400  1.0000
  C   C384      1.0  0.76447  0.70572  0.41466  1.0000
  H   H257      1.0  0.76540  0.69935  0.47234  1.0000
  H   H258      1.0  0.74104  0.76998  0.41348  1.0000
  N   N83       1.0  0.74453  0.71573  0.49058  1.0000
  H   H259      1.0  0.73592  0.72107  0.49235  1.0000
  H   H260      1.0  0.74585  0.70998  0.54554  1.0000
  N   N84       1.0  0.70766  0.75935  0.32377  1.0000
  C   C385      1.0  0.30263  0.96753  0.32065  1.0000
  C   C386      1.0  0.29613  0.97800  0.37220  1.0000
  N   N85       1.0  0.30602  0.99763  0.37058  1.0000
  C   C387      1.0  0.32212  0.00838  0.32014  1.0000
  C   C388      1.0  0.33147  0.02874  0.33088  1.0000
  C   C389      1.0  0.33912  0.03829  0.41368  1.0000
  C   C390      1.0  0.34859  0.05881  0.41442  1.0000
  H   H261      1.0  0.35495  0.06610  0.47210  1.0000
  H   H262      1.0  0.28434  0.97111  0.41308  1.0000
  N   N86       1.0  0.33858  0.02885  0.49024  1.0000
  H   H263      1.0  0.33324  0.01490  0.49197  1.0000
  H   H264      1.0  0.34432  0.03591  0.54521  1.0000
  N   N87       1.0  0.29499  0.94837  0.32331  1.0000
  C   C391      1.0  0.98558  0.70111  0.32076  1.0000
  C   C392      1.0  0.99607  0.71808  0.37227  1.0000
  N   N88       1.0  0.01570  0.72781  0.37057  1.0000
  C   C393      1.0  0.02643  0.72246  0.32010  1.0000
  C   C394      1.0  0.04680  0.73345  0.33078  1.0000
  C   C395      1.0  0.05636  0.73535  0.41354  1.0000
  C   C396      1.0  0.07687  0.74639  0.41421  1.0000
  H   H265      1.0  0.08417  0.74731  0.47186  1.0000
  H   H266      1.0  0.98919  0.72299  0.41318  1.0000
  N   N89       1.0  0.04692  0.72644  0.49012  1.0000
  H   H267      1.0  0.03297  0.71785  0.49188  1.0000
  H   H268      1.0  0.05399  0.72776  0.54506  1.0000
  N   N90       1.0  0.96643  0.68960  0.32350  1.0000
  C   C397      1.0  0.35322  0.28454  0.32115  1.0000
  C   C398      1.0  0.33625  0.27808  0.37266  1.0000
  N   N91       1.0  0.32654  0.28800  0.37094  1.0000
  C   C399      1.0  0.33192  0.30409  0.32044  1.0000
  C   C400      1.0  0.32093  0.31347  0.33102  1.0000
  C   C401      1.0  0.31901  0.32114  0.41376  1.0000
  C   C402      1.0  0.30796  0.33060  0.41434  1.0000
  H   H269      1.0  0.30701  0.33697  0.47198  1.0000
  H   H270      1.0  0.33132  0.26630  0.41357  1.0000
  N   N92       1.0  0.32789  0.32060  0.49038  1.0000
  H   H271      1.0  0.33649  0.31525  0.49220  1.0000
  H   H272      1.0  0.32656  0.32635  0.54531  1.0000
  N   N93       1.0  0.36470  0.27686  0.32385  1.0000
  C   C403      1.0  0.76976  0.06873  0.32099  1.0000
  C   C404      1.0  0.77625  0.05825  0.37252  1.0000
  N   N94       1.0  0.76635  0.03862  0.37086  1.0000
  C   C405      1.0  0.75026  0.02788  0.32041  1.0000
  C   C406      1.0  0.74090  0.00752  0.33110  1.0000
  C   C407      1.0  0.73324  0.99795  0.41388  1.0000
  C   C408      1.0  0.72378  0.97743  0.41456  1.0000
  H   H273      1.0  0.71741  0.97013  0.47222  1.0000
  H   H274      1.0  0.78803  0.06513  0.41340  1.0000
  N   N95       1.0  0.73378  0.00738  0.49047  1.0000
  H   H275      1.0  0.73912  0.02133  0.49224  1.0000
  H   H276      1.0  0.72802  0.00031  0.54543  1.0000
  N   N96       1.0  0.77741  0.08789  0.32368  1.0000
