data_image0
_chemical_formula_structural       CNC4H2CH3C4HCNHCH3C4HCNHCH3C4HCNHCH3CNC4H2CH3CNC4H2CH3CNC4H2CH3CNC4H2CH3C4HCNHCH3C4HCNHCH3CNC4H2CH3CNC4H2CH3C4HCNHCH3C4HCNHCH3CNC4H2CH3CNC4H2CH3C4HCNHCH3C4HCNHCH3CNC4H2CH3CNC4H2CH3C4HCNHCH3C4HCNHCH3C4HCNHCH3CNC4H2CH3C6H3C6H3C6H3C6H3C6H3C6H3C6H3C6H3C6H3C6H3C6H3C6H3C6H3C6H3C6H3C6H3C4HCNHCH3CNC4H2CH3CNC4H2CH3CNC4H2CH3C4HCNHCH3C4HCNHCH3C4HCNHCH3C4HCNHCH3CNC4H2CH3CNC4H2CH3C4HCNHCH3C4HCNHCH3CNC4H2CH3CNC4H2CH3C4HCNHCH3C4HCNHCH3CNC4H2CH3CNC4H2CH3C4HCNHCH3C4HCNHCH3CNC4H2CH3CNC4H2CH3CNC4H2CH3C4HCNHCH3
_chemical_formula_sum              "C384 N48 H288"
_cell_length_a       82.4443
_cell_length_b       42.5065
_cell_length_c       14.8357
_cell_angle_alpha    90
_cell_angle_beta     90
_cell_angle_gamma    90

_space_group_name_H-M_alt    "P 1"
_space_group_IT_number       1

loop_
  _space_group_symop_operation_xyz
  'x, y, z'

loop_
  _atom_site_type_symbol
  _atom_site_label
  _atom_site_symmetry_multiplicity
  _atom_site_fract_x
  _atom_site_fract_y
  _atom_site_fract_z
  _atom_site_occupancy
  C   C1        1.0  0.50037  0.43581  0.30431  1.0000
  N   N1        1.0  0.50702  0.46486  0.30775  1.0000
  C   C2        1.0  0.51006  0.51964  0.34353  1.0000
  C   C3        1.0  0.52307  0.52658  0.28224  1.0000
  C   C4        1.0  0.53074  0.55653  0.28700  1.0000
  C   C5        1.0  0.52599  0.57987  0.34939  1.0000
  H   H1        1.0  0.53970  0.56199  0.24187  1.0000
  H   H2        1.0  0.50643  0.41895  0.26871  1.0000
  C   C6        1.0  0.52879  0.50452  0.21095  1.0000
  H   H3        1.0  0.51862  0.49741  0.16850  1.0000
  H   H4        1.0  0.53425  0.48380  0.24200  1.0000
  H   H5        1.0  0.53795  0.51481  0.16664  1.0000
  C   C7        1.0  0.02567  0.92948  0.34190  1.0000
  C   C8        1.0  0.01040  0.99070  0.34045  1.0000
  C   C9        1.0  0.02580  0.98609  0.29734  1.0000
  C   C10       1.0  0.03298  0.95561  0.29889  1.0000
  H   H6        1.0  0.04373  0.95218  0.26598  1.0000
  C   C11       1.0  0.99764  0.07146  0.27961  1.0000
  N   N2        1.0  0.00468  0.04274  0.28526  1.0000
  H   H7        1.0  0.00166  0.08675  0.23141  1.0000
  C   C12       1.0  0.03502  0.01179  0.25223  1.0000
  H   H8        1.0  0.02846  0.01979  0.19264  1.0000
  H   H9        1.0  0.04707  0.00450  0.23000  1.0000
  H   H10       1.0  0.03666  0.03142  0.29876  1.0000
  C   C13       1.0  0.43729  0.35761  0.33398  1.0000
  C   C14       1.0  0.40411  0.33957  0.33477  1.0000
  C   C15       1.0  0.41342  0.33559  0.25469  1.0000
  C   C16       1.0  0.43002  0.34438  0.25646  1.0000
  H   H11       1.0  0.43707  0.34068  0.20063  1.0000
  C   C17       1.0  0.36038  0.33294  0.28940  1.0000
  N   N3        1.0  0.37623  0.34175  0.29000  1.0000
  H   H12       1.0  0.35276  0.34361  0.24457  1.0000
  C   C18       1.0  0.40648  0.32106  0.17204  1.0000
  H   H13       1.0  0.40165  0.29780  0.18779  1.0000
  H   H14       1.0  0.41546  0.31831  0.11850  1.0000
  H   H15       1.0  0.39672  0.33579  0.14594  1.0000
  C   C19       1.0  0.57365  0.65199  0.34153  1.0000
  C   C20       1.0  0.60672  0.67137  0.33878  1.0000
  C   C21       1.0  0.59870  0.66397  0.25609  1.0000
  C   C22       1.0  0.58217  0.65456  0.25927  1.0000
  H   H16       1.0  0.57603  0.65030  0.20052  1.0000
  C   C23       1.0  0.65075  0.67684  0.29675  1.0000
  N   N4        1.0  0.63488  0.66821  0.29828  1.0000
  H   H17       1.0  0.65848  0.66442  0.25646  1.0000
  C   C24       1.0  0.60672  0.66773  0.16689  1.0000
  H   H18       1.0  0.61160  0.69149  0.16044  1.0000
  H   H19       1.0  0.59841  0.66387  0.11064  1.0000
  H   H20       1.0  0.61658  0.65077  0.16036  1.0000
  C   C25       1.0  0.08378  0.86180  0.27893  1.0000
  N   N5        1.0  0.09953  0.85243  0.28103  1.0000
  C   C26       1.0  0.12332  0.82897  0.34452  1.0000
  C   C27       1.0  0.12809  0.80462  0.28423  1.0000
  C   C28       1.0  0.14456  0.79488  0.28489  1.0000
  C   C29       1.0  0.15628  0.80851  0.34281  1.0000
  H   H21       1.0  0.14812  0.77745  0.24165  1.0000
  H   H22       1.0  0.07913  0.87032  0.21993  1.0000
  C   C30       1.0  0.11627  0.78841  0.22438  1.0000
  H   H23       1.0  0.10638  0.77867  0.26454  1.0000
  H   H24       1.0  0.12175  0.76912  0.18652  1.0000
  H   H25       1.0  0.11130  0.80509  0.17579  1.0000
  C   C31       1.0  0.92884  0.15908  0.26796  1.0000
  N   N6        1.0  0.91310  0.16825  0.27263  1.0000
  C   C32       1.0  0.88806  0.18296  0.34271  1.0000
  C   C33       1.0  0.88338  0.20941  0.28956  1.0000
  C   C34       1.0  0.86686  0.21879  0.29052  1.0000
  C   C35       1.0  0.85488  0.20313  0.34231  1.0000
  H   H26       1.0  0.86342  0.23750  0.25157  1.0000
  H   H27       1.0  0.93442  0.15847  0.20648  1.0000
  C   C36       1.0  0.89523  0.22841  0.23688  1.0000
  H   H28       1.0  0.90527  0.23562  0.28018  1.0000
  H   H29       1.0  0.88987  0.24972  0.20855  1.0000
  H   H30       1.0  0.89994  0.21453  0.18089  1.0000
  C   C37       1.0  0.54353  0.20043  0.29071  1.0000
  N   N7        1.0  0.53393  0.22637  0.29020  1.0000
  C   C38       1.0  0.51346  0.26081  0.34581  1.0000
  C   C39       1.0  0.50095  0.26215  0.27989  1.0000
  C   C40       1.0  0.49066  0.28885  0.27972  1.0000
  C   C41       1.0  0.49258  0.31370  0.34230  1.0000
  H   H31       1.0  0.48161  0.29031  0.23268  1.0000
  H   H32       1.0  0.55024  0.19542  0.23457  1.0000
  C   C42       1.0  0.49807  0.23611  0.21488  1.0000
  H   H33       1.0  0.49600  0.21417  0.25136  1.0000
  H   H34       1.0  0.50860  0.23332  0.17114  1.0000
  H   H35       1.0  0.48753  0.24034  0.17194  1.0000
  C   C43       1.0  0.46744  0.80844  0.29149  1.0000
  N   N8        1.0  0.47700  0.78244  0.29202  1.0000
  C   C44       1.0  0.49728  0.74799  0.34961  1.0000
  C   C45       1.0  0.51011  0.74698  0.28555  1.0000
  C   C46       1.0  0.52044  0.72034  0.28605  1.0000
  C   C47       1.0  0.51825  0.69521  0.34744  1.0000
  H   H36       1.0  0.52971  0.71912  0.24033  1.0000
  H   H37       1.0  0.46095  0.81351  0.23466  1.0000
  C   C48       1.0  0.51327  0.77328  0.22177  1.0000
  H   H38       1.0  0.51513  0.79509  0.25919  1.0000
  H   H39       1.0  0.50294  0.77617  0.17659  1.0000
  H   H40       1.0  0.52401  0.76926  0.18027  1.0000
  C   C49       1.0  0.96827  0.67914  0.32530  1.0000
  C   C50       1.0  0.98739  0.73427  0.33047  1.0000
  C   C51       1.0  0.98834  0.71440  0.25352  1.0000
  C   C52       1.0  0.97871  0.68685  0.25292  1.0000
  H   H41       1.0  0.97972  0.67143  0.20016  1.0000
  C   C53       1.0  0.00569  0.81078  0.28387  1.0000
  N   N9        1.0  0.99609  0.78490  0.28377  1.0000
  H   H42       1.0  0.00376  0.82751  0.23561  1.0000
  C   C54       1.0  0.99980  0.72053  0.17803  1.0000
  H   H43       1.0  0.01217  0.72216  0.20384  1.0000
  H   H44       1.0  0.99664  0.74260  0.14487  1.0000
  H   H45       1.0  0.99956  0.70201  0.12703  1.0000
  C   C55       1.0  0.04315  0.32955  0.32447  1.0000
  C   C56       1.0  0.02411  0.27432  0.32757  1.0000
  C   C57       1.0  0.02338  0.29422  0.25061  1.0000
  C   C58       1.0  0.03295  0.32186  0.25108  1.0000
  H   H46       1.0  0.03204  0.33735  0.19845  1.0000
  C   C59       1.0  0.00597  0.19764  0.28067  1.0000
  N   N10       1.0  0.01561  0.22349  0.28111  1.0000
  H   H47       1.0  0.00811  0.18066  0.23342  1.0000
  C   C60       1.0  0.01218  0.28801  0.17397  1.0000
  H   H48       1.0  0.99973  0.28639  0.19849  1.0000
  H   H49       1.0  0.01546  0.26591  0.14135  1.0000
  H   H50       1.0  0.01259  0.30648  0.12286  1.0000
  C   C61       1.0  0.30408  0.07031  0.27246  1.0000
  N   N11       1.0  0.30585  0.10210  0.27502  1.0000
  C   C62       1.0  0.31128  0.15247  0.34185  1.0000
  C   C63       1.0  0.32322  0.16597  0.28414  1.0000
  C   C64       1.0  0.32528  0.19913  0.28520  1.0000
  C   C65       1.0  0.31596  0.21927  0.34109  1.0000
  H   H51       1.0  0.33379  0.20893  0.24361  1.0000
  H   H52       1.0  0.30268  0.05953  0.21138  1.0000
  C   C66       1.0  0.33406  0.14640  0.22673  1.0000
  H   H53       1.0  0.34021  0.12882  0.26803  1.0000
  H   H54       1.0  0.34337  0.16028  0.19266  1.0000
  H   H55       1.0  0.32695  0.13452  0.17491  1.0000
  C   C67       1.0  0.70812  0.94052  0.27160  1.0000
  N   N12       1.0  0.70635  0.90872  0.27387  1.0000
  C   C68       1.0  0.70018  0.85852  0.33952  1.0000
  C   C69       1.0  0.68848  0.84507  0.28031  1.0000
  C   C70       1.0  0.68638  0.81192  0.28136  1.0000
  C   C71       1.0  0.69543  0.79184  0.33871  1.0000
  H   H56       1.0  0.67801  0.80211  0.23887  1.0000
  H   H57       1.0  0.71018  0.95122  0.21100  1.0000
  C   C72       1.0  0.67794  0.86468  0.22136  1.0000
  H   H58       1.0  0.67157  0.88219  0.26185  1.0000
  H   H59       1.0  0.66883  0.85082  0.18567  1.0000
  H   H60       1.0  0.68531  0.87665  0.17088  1.0000
  C   C73       1.0  0.20565  0.55248  0.33639  1.0000
  C   C74       1.0  0.20249  0.61926  0.33752  1.0000
  C   C75       1.0  0.20124  0.60259  0.25439  1.0000
  C   C76       1.0  0.20264  0.56928  0.25588  1.0000
  H   H61       1.0  0.20105  0.55682  0.19747  1.0000
  C   C77       1.0  0.20693  0.70431  0.29355  1.0000
  N   N13       1.0  0.20865  0.67248  0.29459  1.0000
  H   H62       1.0  0.21397  0.71699  0.25010  1.0000
  C   C78       1.0  0.19748  0.61874  0.16790  1.0000
  H   H63       1.0  0.18634  0.63239  0.17471  1.0000
  H   H64       1.0  0.19582  0.60230  0.11211  1.0000
  H   H65       1.0  0.20741  0.63450  0.14991  1.0000
  C   C79       1.0  0.80520  0.45843  0.33803  1.0000
  C   C80       1.0  0.80829  0.39168  0.33940  1.0000
  C   C81       1.0  0.81039  0.40842  0.25695  1.0000
  C   C82       1.0  0.80901  0.44172  0.25840  1.0000
  H   H66       1.0  0.81119  0.45423  0.20068  1.0000
  C   C83       1.0  0.80406  0.30676  0.29434  1.0000
  N   N14       1.0  0.80231  0.33857  0.29537  1.0000
  H   H67       1.0  0.79724  0.29408  0.24979  1.0000
  C   C84       1.0  0.81498  0.39233  0.17163  1.0000
  H   H68       1.0  0.82606  0.37871  0.18164  1.0000
  H   H69       1.0  0.81716  0.40881  0.11647  1.0000
  H   H70       1.0  0.80526  0.37654  0.15068  1.0000
  C   C85       1.0  0.23224  0.42098  0.27796  1.0000
  N   N15       1.0  0.24477  0.40043  0.28373  1.0000
  C   C86       1.0  0.26857  0.37511  0.34377  1.0000
  C   C87       1.0  0.26663  0.34490  0.30234  1.0000
  C   C88       1.0  0.27994  0.32355  0.30258  1.0000
  C   C89       1.0  0.29510  0.33037  0.34333  1.0000
  H   H71       1.0  0.27860  0.30248  0.27029  1.0000
  H   H72       1.0  0.22420  0.41859  0.22602  1.0000
  C   C90       1.0  0.25111  0.33405  0.26140  1.0000
  H   H73       1.0  0.24119  0.33713  0.30935  1.0000
  H   H74       1.0  0.25131  0.30923  0.24242  1.0000
  H   H75       1.0  0.24858  0.34752  0.20042  1.0000
  C   C91       1.0  0.77868  0.58972  0.28014  1.0000
  N   N16       1.0  0.76616  0.61030  0.28560  1.0000
  C   C92       1.0  0.74241  0.63581  0.34535  1.0000
  C   C93       1.0  0.74434  0.66585  0.30293  1.0000
  C   C94       1.0  0.73106  0.68724  0.30289  1.0000
  C   C95       1.0  0.71594  0.68065  0.34441  1.0000
  H   H76       1.0  0.73239  0.70817  0.26983  1.0000
  H   H77       1.0  0.78672  0.59198  0.22809  1.0000
  C   C96       1.0  0.75984  0.67650  0.26119  1.0000
  H   H78       1.0  0.76979  0.67359  0.30895  1.0000
  H   H79       1.0  0.75963  0.70126  0.24147  1.0000
  H   H80       1.0  0.76230  0.66281  0.20055  1.0000
  C   C97       1.0  0.28068  0.94496  0.34597  1.0000
  C   C98       1.0  0.25467  0.89980  0.33992  1.0000
  C   C99       1.0  0.25579  0.92398  0.27278  1.0000
  C   C100      1.0  0.26873  0.94614  0.27778  1.0000
  H   H81       1.0  0.26986  0.96297  0.22883  1.0000
  C   C101      1.0  0.21493  0.86054  0.30578  1.0000
  N   N17       1.0  0.22770  0.88069  0.30772  1.0000
  H   H82       1.0  0.20471  0.86772  0.27289  1.0000
  C   C102      1.0  0.24445  0.92622  0.19496  1.0000
  H   H83       1.0  0.24393  0.90372  0.15964  1.0000
  H   H84       1.0  0.24808  0.94403  0.14587  1.0000
  H   H85       1.0  0.23236  0.93250  0.21872  1.0000
  C   C103      1.0  0.73053  0.06593  0.34310  1.0000
  C   C104      1.0  0.75652  0.11110  0.33777  1.0000
  C   C105      1.0  0.75538  0.08711  0.27006  1.0000
  C   C106      1.0  0.74244  0.06493  0.27471  1.0000
  H   H86       1.0  0.74130  0.04823  0.22541  1.0000
  C   C107      1.0  0.79619  0.15061  0.30360  1.0000
  N   N18       1.0  0.78344  0.13040  0.30535  1.0000
  H   H87       1.0  0.80638  0.14360  0.27020  1.0000
  C   C108      1.0  0.76669  0.08509  0.19204  1.0000
  H   H88       1.0  0.76718  0.10768  0.15719  1.0000
  H   H89       1.0  0.76304  0.06740  0.14263  1.0000
  H   H90       1.0  0.77879  0.07877  0.21551  1.0000
  C   C109      1.0  0.10083  0.39333  0.28327  1.0000
  N   N19       1.0  0.11638  0.40390  0.28255  1.0000
  C   C110      1.0  0.13877  0.43453  0.33357  1.0000
  C   C111      1.0  0.14297  0.45734  0.26747  1.0000
  C   C112      1.0  0.15906  0.46910  0.26754  1.0000
  C   C113      1.0  0.17080  0.45868  0.33041  1.0000
  H   H91       1.0  0.16229  0.48573  0.22099  1.0000
  H   H92       1.0  0.09693  0.37971  0.23083  1.0000
  C   C114      1.0  0.13090  0.46978  0.20209  1.0000
  H   H93       1.0  0.12072  0.48026  0.23827  1.0000
  H   H94       1.0  0.12640  0.45068  0.15977  1.0000
  H   H95       1.0  0.13601  0.48775  0.15782  1.0000
  C   C115      1.0  0.91024  0.61668  0.28893  1.0000
  N   N20       1.0  0.89467  0.60633  0.28820  1.0000
  C   C116      1.0  0.87221  0.57586  0.33862  1.0000
  C   C117      1.0  0.86798  0.55335  0.27174  1.0000
  C   C118      1.0  0.85186  0.54176  0.27121  1.0000
  C   C119      1.0  0.84012  0.55209  0.33422  1.0000
  H   H96       1.0  0.84861  0.52533  0.22414  1.0000
  H   H97       1.0  0.91418  0.63028  0.23654  1.0000
  C   C120      1.0  0.88005  0.54101  0.20616  1.0000
  H   H98       1.0  0.89019  0.53031  0.24217  1.0000
  H   H99       1.0  0.88460  0.56019  0.16438  1.0000
  H   H100      1.0  0.87491  0.52322  0.16138  1.0000
  C   C121      1.0  0.42110  0.90347  0.33768  1.0000
  C   C122      1.0  0.38837  0.92341  0.34225  1.0000
  C   C123      1.0  0.39849  0.93383  0.27067  1.0000
  C   C124      1.0  0.41483  0.92361  0.27017  1.0000
  H   H101      1.0  0.42245  0.93152  0.22061  1.0000
  C   C125      1.0  0.34528  0.93559  0.29561  1.0000
  N   N21       1.0  0.36081  0.92500  0.29539  1.0000
  H   H102      1.0  0.33755  0.92753  0.24701  1.0000
  C   C126      1.0  0.39264  0.95611  0.20049  1.0000
  H   H103      1.0  0.38832  0.97771  0.23221  1.0000
  H   H104      1.0  0.38271  0.94545  0.16273  1.0000
  H   H105      1.0  0.40212  0.96249  0.15243  1.0000
  C   C127      1.0  0.58998  0.10634  0.33268  1.0000
  C   C128      1.0  0.62278  0.08685  0.33713  1.0000
  C   C129      1.0  0.61267  0.07617  0.26580  1.0000
  C   C130      1.0  0.59628  0.08614  0.26543  1.0000
  H   H106      1.0  0.58865  0.07799  0.21624  1.0000
  C   C131      1.0  0.66591  0.07493  0.29119  1.0000
  N   N22       1.0  0.65035  0.08535  0.29046  1.0000
  H   H107      1.0  0.67364  0.08291  0.24246  1.0000
  C   C132      1.0  0.61857  0.05386  0.19586  1.0000
  H   H108      1.0  0.62297  0.03236  0.22781  1.0000
  H   H109      1.0  0.62845  0.06459  0.15788  1.0000
  H   H110      1.0  0.60910  0.04729  0.14797  1.0000
  C   C133      1.0  0.97665  0.56566  0.33401  1.0000
  C   C134      1.0  0.99984  0.51730  0.33279  1.0000
  C   C135      1.0  0.99823  0.53653  0.25490  1.0000
  C   C136      1.0  0.98660  0.56095  0.25768  1.0000
  H   H111      1.0  0.98535  0.57563  0.20339  1.0000
  C   C137      1.0  0.02067  0.44426  0.28069  1.0000
  N   N23       1.0  0.01022  0.46875  0.28253  1.0000
  H   H112      1.0  0.01888  0.42710  0.23348  1.0000
  C   C138      1.0  0.00869  0.53259  0.17396  1.0000
  H   H113      1.0  0.02143  0.53416  0.19323  1.0000
  H   H114      1.0  0.00639  0.55051  0.12276  1.0000
  H   H115      1.0  0.00645  0.50968  0.14329  1.0000
  C   C139      1.0  0.53286  0.04456  0.28273  1.0000
  N   N24       1.0  0.52140  0.02177  0.28535  1.0000
  C   C140      1.0  0.49959  0.99317  0.34797  1.0000
  C   C141      1.0  0.48676  0.99355  0.28404  1.0000
  C   C142      1.0  0.47567  0.96815  0.28546  1.0000
  C   C143      1.0  0.47720  0.94312  0.34774  1.0000
  H   H116      1.0  0.46643  0.96767  0.23941  1.0000
  H   H117      1.0  0.53980  0.04684  0.22605  1.0000
  C   C144      1.0  0.48446  0.01992  0.21940  1.0000
  H   H118      1.0  0.49480  0.02124  0.17370  1.0000
  H   H119      1.0  0.48344  0.04208  0.25612  1.0000
  H   H120      1.0  0.47354  0.01716  0.17853  1.0000
  C   C145      1.0  0.48199  0.34039  0.34252  1.0000
  C   C146      1.0  0.46498  0.33671  0.33686  1.0000
  C   C147      1.0  0.45439  0.36284  0.33818  1.0000
  C   C148      1.0  0.46118  0.39343  0.34297  1.0000
  C   C149      1.0  0.47823  0.39844  0.34624  1.0000
  C   C150      1.0  0.48827  0.37130  0.34799  1.0000
  H   H121      1.0  0.45351  0.41231  0.34050  1.0000
  H   H122      1.0  0.50056  0.37397  0.35261  1.0000
  H   H123      1.0  0.46016  0.31450  0.33464  1.0000
  C   C151      1.0  0.52891  0.66864  0.34829  1.0000
  C   C152      1.0  0.54595  0.67260  0.34513  1.0000
  C   C153      1.0  0.55661  0.64658  0.34360  1.0000
  C   C154      1.0  0.54996  0.61587  0.34448  1.0000
  C   C155      1.0  0.53295  0.61084  0.34924  1.0000
  C   C156      1.0  0.52271  0.63761  0.35121  1.0000
  H   H124      1.0  0.55764  0.59696  0.34387  1.0000
  H   H125      1.0  0.51040  0.63446  0.35075  1.0000
  H   H126      1.0  0.55071  0.69487  0.34482  1.0000
  C   C157      1.0  0.02908  0.84035  0.34634  1.0000
  C   C158      1.0  0.04609  0.83667  0.35222  1.0000
  C   C159      1.0  0.05668  0.86281  0.35088  1.0000
  C   C160      1.0  0.04989  0.89339  0.34594  1.0000
  C   C161      1.0  0.03283  0.89841  0.34260  1.0000
  C   C162      1.0  0.02281  0.87126  0.34074  1.0000
  H   H127      1.0  0.05756  0.91227  0.34860  1.0000
  H   H128      1.0  0.01051  0.87391  0.33597  1.0000
  H   H129      1.0  0.05091  0.81447  0.35442  1.0000
  C   C163      1.0  0.98217  0.16857  0.34055  1.0000
  C   C164      1.0  0.96514  0.17254  0.34382  1.0000
  C   C165      1.0  0.95447  0.14652  0.34534  1.0000
  C   C166      1.0  0.96111  0.11581  0.34440  1.0000
  C   C167      1.0  0.97812  0.11077  0.33957  1.0000
  C   C168      1.0  0.98837  0.13754  0.33756  1.0000
  H   H130      1.0  0.95343  0.09690  0.34511  1.0000
  H   H131      1.0  0.00068  0.13437  0.33786  1.0000
  H   H132      1.0  0.96038  0.19481  0.34414  1.0000
  C   C169      1.0  0.33827  0.29749  0.34425  1.0000
  C   C170      1.0  0.33482  0.26485  0.34422  1.0000
  C   C171      1.0  0.31879  0.25281  0.34378  1.0000
  C   C172      1.0  0.30593  0.27500  0.34560  1.0000
  C   C173      1.0  0.30851  0.30814  0.34395  1.0000
  C   C174      1.0  0.32491  0.31850  0.34241  1.0000
  H   H133      1.0  0.29433  0.26658  0.34737  1.0000
  H   H134      1.0  0.32731  0.34207  0.34046  1.0000
  H   H135      1.0  0.34431  0.24934  0.34442  1.0000
  C   C175      1.0  0.67282  0.71394  0.34397  1.0000
  C   C176      1.0  0.67643  0.74653  0.34178  1.0000
  C   C177      1.0  0.69248  0.75837  0.34189  1.0000
  C   C178      1.0  0.70527  0.73606  0.34514  1.0000
  C   C179      1.0  0.70258  0.70297  0.34462  1.0000
  C   C180      1.0  0.68614  0.69280  0.34373  1.0000
  H   H136      1.0  0.71689  0.74437  0.34705  1.0000
  H   H137      1.0  0.68371  0.66924  0.34333  1.0000
  H   H138      1.0  0.66703  0.76224  0.34029  1.0000
  C   C181      1.0  0.17280  0.79748  0.34469  1.0000
  C   C182      1.0  0.17625  0.76484  0.34467  1.0000
  C   C183      1.0  0.19228  0.75280  0.34505  1.0000
  C   C184      1.0  0.20514  0.77499  0.34324  1.0000
  C   C185      1.0  0.20257  0.80813  0.34493  1.0000
  C   C186      1.0  0.18616  0.81849  0.34653  1.0000
  H   H139      1.0  0.21674  0.76657  0.34140  1.0000
  H   H140      1.0  0.18376  0.84206  0.34851  1.0000
  H   H141      1.0  0.16676  0.74933  0.34447  1.0000
  C   C187      1.0  0.83827  0.21391  0.34477  1.0000
  C   C188      1.0  0.83466  0.24650  0.34691  1.0000
  C   C189      1.0  0.81861  0.25835  0.34677  1.0000
  C   C190      1.0  0.80582  0.23605  0.34353  1.0000
  C   C191      1.0  0.80851  0.20295  0.34408  1.0000
  C   C192      1.0  0.82495  0.19277  0.34500  1.0000
  H   H142      1.0  0.79420  0.24436  0.34159  1.0000
  H   H143      1.0  0.82737  0.16921  0.34544  1.0000
  H   H144      1.0  0.84406  0.26221  0.34839  1.0000
  C   C193      1.0  0.04498  0.41735  0.34051  1.0000
  C   C194      1.0  0.03926  0.38616  0.33347  1.0000
  C   C195      1.0  0.04996  0.36020  0.33158  1.0000
  C   C196      1.0  0.06685  0.36578  0.33821  1.0000
  C   C197      1.0  0.07302  0.39680  0.34603  1.0000
  C   C198      1.0  0.06189  0.42217  0.34672  1.0000
  H   H145      1.0  0.07469  0.34712  0.33735  1.0000
  H   H146      1.0  0.06623  0.44474  0.34887  1.0000
  H   H147      1.0  0.02701  0.38217  0.33160  1.0000
  C   C199      1.0  0.96580  0.59140  0.33806  1.0000
  C   C200      1.0  0.97176  0.62231  0.32949  1.0000
  C   C201      1.0  0.96128  0.64859  0.33161  1.0000
  C   C202      1.0  0.94441  0.64336  0.34198  1.0000
  C   C203      1.0  0.93806  0.61247  0.35050  1.0000
  C   C204      1.0  0.94899  0.58677  0.34931  1.0000
  H   H148      1.0  0.93669  0.66221  0.34300  1.0000
  H   H149      1.0  0.94463  0.56423  0.35279  1.0000
  H   H150      1.0  0.98403  0.62571  0.32356  1.0000
  C   C205      1.0  0.46611  0.91739  0.34844  1.0000
  C   C206      1.0  0.47182  0.88621  0.35578  1.0000
  C   C207      1.0  0.46112  0.86026  0.35750  1.0000
  C   C208      1.0  0.44424  0.86585  0.35067  1.0000
  C   C209      1.0  0.43806  0.89687  0.34271  1.0000
  C   C210      1.0  0.44920  0.92223  0.34196  1.0000
  H   H151      1.0  0.43639  0.84719  0.35148  1.0000
  H   H152      1.0  0.44487  0.94481  0.33960  1.0000
  H   H153      1.0  0.48408  0.88223  0.35779  1.0000
  C   C211      1.0  0.54525  0.09148  0.35130  1.0000
  C   C212      1.0  0.53931  0.12241  0.35968  1.0000
  C   C213      1.0  0.54980  0.14867  0.35745  1.0000
  C   C214      1.0  0.56667  0.14341  0.34709  1.0000
  C   C215      1.0  0.57300  0.11251  0.33870  1.0000
  C   C216      1.0  0.56206  0.08683  0.34010  1.0000
  H   H154      1.0  0.57440  0.16225  0.34593  1.0000
  H   H155      1.0  0.56642  0.06429  0.33667  1.0000
  H   H156      1.0  0.52704  0.12587  0.36538  1.0000
  C   C217      1.0  0.18674  0.47202  0.33336  1.0000
  C   C218      1.0  0.18890  0.50504  0.33297  1.0000
  C   C219      1.0  0.20445  0.51894  0.33869  1.0000
  C   C220      1.0  0.21819  0.49895  0.34418  1.0000
  C   C221      1.0  0.21661  0.46566  0.34167  1.0000
  C   C222      1.0  0.20075  0.45281  0.33737  1.0000
  H   H157      1.0  0.22951  0.50879  0.34645  1.0000
  H   H158      1.0  0.19935  0.42887  0.33669  1.0000
  H   H159      1.0  0.17890  0.51935  0.33085  1.0000
  C   C223      1.0  0.82417  0.53883  0.33669  1.0000
  C   C224      1.0  0.82199  0.50582  0.33574  1.0000
  C   C225      1.0  0.80643  0.49195  0.34099  1.0000
  C   C226      1.0  0.79270  0.51196  0.34671  1.0000
  C   C227      1.0  0.79432  0.54524  0.34464  1.0000
  C   C228      1.0  0.81018  0.55808  0.34076  1.0000
  H   H160      1.0  0.78137  0.50216  0.34867  1.0000
  H   H161      1.0  0.81159  0.58202  0.34037  1.0000
  H   H162      1.0  0.83198  0.49150  0.33355  1.0000
  C   C229      1.0  0.32434  0.97204  0.35520  1.0000
  C   C230      1.0  0.32217  0.00507  0.35556  1.0000
  C   C231      1.0  0.30661  0.01894  0.34999  1.0000
  C   C232      1.0  0.29288  0.99893  0.34462  1.0000
  C   C233      1.0  0.29447  0.96564  0.34705  1.0000
  C   C234      1.0  0.31034  0.95281  0.35127  1.0000
  H   H163      1.0  0.28155  0.00874  0.34234  1.0000
  H   H164      1.0  0.31174  0.92888  0.35193  1.0000
  H   H165      1.0  0.33216  0.01939  0.35767  1.0000
  C   C235      1.0  0.68689  0.03884  0.35193  1.0000
  C   C236      1.0  0.68908  0.00583  0.35287  1.0000
  C   C237      1.0  0.70464  0.99197  0.34762  1.0000
  C   C238      1.0  0.71836  0.01199  0.34187  1.0000
  C   C239      1.0  0.71675  0.04526  0.34393  1.0000
  C   C240      1.0  0.70088  0.05809  0.34785  1.0000
  H   H166      1.0  0.72970  0.00219  0.33989  1.0000
  H   H167      1.0  0.69946  0.08203  0.34825  1.0000
  H   H168      1.0  0.67909  0.99150  0.35508  1.0000
  C   C241      1.0  0.48539  0.42950  0.34694  1.0000
  C   C242      1.0  0.50069  0.49070  0.34860  1.0000
  C   C243      1.0  0.48534  0.48603  0.39230  1.0000
  C   C244      1.0  0.47814  0.45556  0.39060  1.0000
  H   H169      1.0  0.46744  0.45207  0.42390  1.0000
  C   C245      1.0  0.51333  0.57160  0.40872  1.0000
  N   N25       1.0  0.50632  0.54287  0.40315  1.0000
  H   H170      1.0  0.50923  0.58696  0.45651  1.0000
  C   C246      1.0  0.47619  0.51163  0.43834  1.0000
  H   H171      1.0  0.48287  0.51957  0.49758  1.0000
  H   H172      1.0  0.46419  0.50426  0.46129  1.0000
  H   H173      1.0  0.47443  0.53131  0.39215  1.0000
  C   C247      1.0  0.01064  0.93574  0.38396  1.0000
  N   N26       1.0  0.00399  0.96481  0.38065  1.0000
  C   C248      1.0  0.00104  0.01964  0.34548  1.0000
  C   C249      1.0  0.98815  0.02668  0.40738  1.0000
  C   C250      1.0  0.98044  0.05660  0.40250  1.0000
  C   C251      1.0  0.98507  0.07981  0.33942  1.0000
  H   H174      1.0  0.97156  0.06214  0.44803  1.0000
  H   H175      1.0  0.00453  0.91885  0.41914  1.0000
  C   C252      1.0  0.98260  0.00477  0.47947  1.0000
  H   H176      1.0  0.99287  0.99769  0.52114  1.0000
  H   H177      1.0  0.97704  0.98401  0.44919  1.0000
  H   H178      1.0  0.97358  0.01518  0.52438  1.0000
  C   C253      1.0  0.42733  0.36162  0.41039  1.0000
  N   N27       1.0  0.41157  0.35225  0.40824  1.0000
  C   C254      1.0  0.38776  0.32896  0.34450  1.0000
  C   C255      1.0  0.38298  0.30458  0.40467  1.0000
  C   C256      1.0  0.36652  0.29485  0.40400  1.0000
  C   C257      1.0  0.35480  0.30852  0.34617  1.0000
  H   H179      1.0  0.36296  0.27739  0.44716  1.0000
  H   H180      1.0  0.43199  0.36998  0.46953  1.0000
  C   C258      1.0  0.39481  0.28832  0.46441  1.0000
  H   H181      1.0  0.40470  0.27861  0.42419  1.0000
  H   H182      1.0  0.38933  0.26898  0.50210  1.0000
  H   H183      1.0  0.39977  0.30494  0.51315  1.0000
  C   C259      1.0  0.58223  0.65924  0.42096  1.0000
  N   N28       1.0  0.59797  0.66840  0.41624  1.0000
  C   C260      1.0  0.62303  0.68301  0.34614  1.0000
  C   C261      1.0  0.62771  0.70948  0.39920  1.0000
  C   C262      1.0  0.64423  0.71885  0.39821  1.0000
  C   C263      1.0  0.65621  0.70316  0.34645  1.0000
  H   H184      1.0  0.64767  0.73757  0.43710  1.0000
  H   H185      1.0  0.57664  0.65870  0.48242  1.0000
  C   C264      1.0  0.61586  0.72851  0.45181  1.0000
  H   H186      1.0  0.60582  0.73570  0.40850  1.0000
  H   H187      1.0  0.62123  0.74983  0.48005  1.0000
  H   H188      1.0  0.61115  0.71466  0.50788  1.0000
  C   C265      1.0  0.07378  0.85758  0.35514  1.0000
  C   C266      1.0  0.10696  0.83956  0.35430  1.0000
  C   C267      1.0  0.09763  0.83537  0.43419  1.0000
  C   C268      1.0  0.08103  0.84414  0.43244  1.0000
  H   H189      1.0  0.07396  0.84030  0.48813  1.0000
  C   C269      1.0  0.15069  0.83290  0.39970  1.0000
  N   N29       1.0  0.13484  0.84171  0.39913  1.0000
  H   H190      1.0  0.15831  0.84354  0.44460  1.0000
  C   C270      1.0  0.10455  0.82062  0.51658  1.0000
  H   H191      1.0  0.10938  0.79739  0.50040  1.0000
  H   H192      1.0  0.09556  0.81775  0.57001  1.0000
  H   H193      1.0  0.11431  0.83528  0.54305  1.0000
  C   C271      1.0  0.93743  0.15196  0.34744  1.0000
  C   C272      1.0  0.90436  0.17132  0.35011  1.0000
  C   C273      1.0  0.91239  0.16403  0.43285  1.0000
  C   C274      1.0  0.92892  0.15462  0.42971  1.0000
  H   H194      1.0  0.93506  0.15043  0.48848  1.0000
  C   C275      1.0  0.86033  0.17682  0.39211  1.0000
  N   N30       1.0  0.87620  0.16819  0.39062  1.0000
  H   H195      1.0  0.85260  0.16442  0.43244  1.0000
  C   C276      1.0  0.90438  0.16788  0.52202  1.0000
  H   H196      1.0  0.89950  0.19166  0.52827  1.0000
  H   H197      1.0  0.91269  0.16408  0.57830  1.0000
  H   H198      1.0  0.89452  0.15094  0.52873  1.0000
  C   C277      1.0  0.54282  0.17923  0.36371  1.0000
  C   C278      1.0  0.52370  0.23436  0.35847  1.0000
  C   C279      1.0  0.52278  0.21453  0.43552  1.0000
  C   C280      1.0  0.53241  0.18698  0.43616  1.0000
  H   H199      1.0  0.53141  0.17158  0.48897  1.0000
  C   C281      1.0  0.50541  0.31087  0.40491  1.0000
  N   N31       1.0  0.51502  0.28500  0.40502  1.0000
  H   H200      1.0  0.50734  0.32763  0.45309  1.0000
  C   C282      1.0  0.51134  0.22070  0.51107  1.0000
  H   H201      1.0  0.49896  0.22231  0.48533  1.0000
  H   H202      1.0  0.51450  0.24278  0.54411  1.0000
  H   H203      1.0  0.51159  0.20220  0.56214  1.0000
  C   C283      1.0  0.46792  0.82960  0.36460  1.0000
  C   C284      1.0  0.48697  0.77438  0.36142  1.0000
  C   C285      1.0  0.48769  0.79425  0.43845  1.0000
  C   C286      1.0  0.47812  0.82189  0.43802  1.0000
  H   H204      1.0  0.47901  0.83736  0.49070  1.0000
  C   C287      1.0  0.50511  0.69770  0.40816  1.0000
  N   N32       1.0  0.49547  0.72354  0.40777  1.0000
  H   H205      1.0  0.50297  0.68070  0.45537  1.0000
  C   C288      1.0  0.49887  0.78802  0.51511  1.0000
  H   H206      1.0  0.51133  0.78641  0.49065  1.0000
  H   H207      1.0  0.49560  0.76590  0.54766  1.0000
  H   H208      1.0  0.49845  0.80647  0.56627  1.0000
  C   C289      1.0  0.96755  0.70038  0.39822  1.0000
  N   N33       1.0  0.97715  0.72631  0.39870  1.0000
  C   C290      1.0  0.99763  0.76073  0.34309  1.0000
  C   C291      1.0  0.01012  0.76212  0.40912  1.0000
  C   C292      1.0  0.02041  0.78883  0.40927  1.0000
  C   C293      1.0  0.01850  0.81365  0.34657  1.0000
  H   H209      1.0  0.02944  0.79032  0.45638  1.0000
  H   H210      1.0  0.96083  0.69540  0.45432  1.0000
  C   C294      1.0  0.01299  0.73612  0.47427  1.0000
  H   H211      1.0  0.01507  0.71416  0.43790  1.0000
  H   H212      1.0  0.00245  0.73334  0.51792  1.0000
  H   H213      1.0  0.02352  0.74038  0.51727  1.0000
  C   C295      1.0  0.04365  0.30836  0.39751  1.0000
  N   N34       1.0  0.03409  0.28236  0.39694  1.0000
  C   C296      1.0  0.01380  0.24792  0.33934  1.0000
  C   C297      1.0  0.00098  0.24688  0.40344  1.0000
  C   C298      1.0  0.99066  0.22024  0.40291  1.0000
  C   C299      1.0  0.99284  0.19514  0.34142  1.0000
  H   H214      1.0  0.98139  0.21901  0.44865  1.0000
  H   H215      1.0  0.05015  0.31341  0.45433  1.0000
  C   C300      1.0  0.99783  0.27316  0.46730  1.0000
  H   H216      1.0  0.99597  0.29498  0.42995  1.0000
  H   H217      1.0  0.00817  0.27604  0.51246  1.0000
  H   H218      1.0  0.98710  0.26912  0.50884  1.0000
  C   C301      1.0  0.30539  0.05247  0.35225  1.0000
  C   C302      1.0  0.30859  0.11926  0.35116  1.0000
  C   C303      1.0  0.30974  0.10259  0.43435  1.0000
  C   C304      1.0  0.30833  0.06928  0.43282  1.0000
  H   H219      1.0  0.30984  0.05683  0.49130  1.0000
  C   C305      1.0  0.30413  0.20430  0.39512  1.0000
  N   N35       1.0  0.30242  0.17248  0.39405  1.0000
  H   H220      1.0  0.29707  0.21698  0.43851  1.0000
  C   C306      1.0  0.31341  0.11874  0.52095  1.0000
  H   H221      1.0  0.32457  0.13238  0.51451  1.0000
  H   H222      1.0  0.31501  0.10229  0.57680  1.0000
  H   H223      1.0  0.30347  0.13450  0.53865  1.0000
  C   C307      1.0  0.70588  0.95845  0.35057  1.0000
  C   C308      1.0  0.70279  0.89170  0.34920  1.0000
  C   C309      1.0  0.70070  0.90843  0.43167  1.0000
  C   C310      1.0  0.70208  0.94173  0.43021  1.0000
  H   H224      1.0  0.69991  0.95425  0.48795  1.0000
  C   C311      1.0  0.70703  0.80678  0.39427  1.0000
  N   N36       1.0  0.70878  0.83859  0.39323  1.0000
  H   H225      1.0  0.71386  0.79411  0.43882  1.0000
  C   C312      1.0  0.69613  0.89234  0.51701  1.0000
  H   H226      1.0  0.68505  0.87872  0.50704  1.0000
  H   H227      1.0  0.69396  0.90882  0.57218  1.0000
  H   H228      1.0  0.70586  0.87656  0.53791  1.0000
  C   C313      1.0  0.20709  0.57032  0.41611  1.0000
  N   N37       1.0  0.20532  0.60211  0.41358  1.0000
  C   C314      1.0  0.19981  0.65247  0.34688  1.0000
  C   C315      1.0  0.18788  0.66595  0.40470  1.0000
  C   C316      1.0  0.18582  0.69912  0.40367  1.0000
  C   C317      1.0  0.19511  0.71926  0.34771  1.0000
  H   H229      1.0  0.17731  0.70891  0.44532  1.0000
  H   H230      1.0  0.20856  0.55954  0.47713  1.0000
  C   C318      1.0  0.17707  0.64637  0.46220  1.0000
  H   H231      1.0  0.17090  0.62880  0.42093  1.0000
  H   H232      1.0  0.16777  0.66024  0.49642  1.0000
  H   H233      1.0  0.18420  0.63447  0.51389  1.0000
  C   C319      1.0  0.80295  0.44049  0.41699  1.0000
  N   N38       1.0  0.80472  0.40870  0.41473  1.0000
  C   C320      1.0  0.81090  0.35851  0.34909  1.0000
  C   C321      1.0  0.82260  0.34505  0.40832  1.0000
  C   C322      1.0  0.82471  0.31190  0.40727  1.0000
  C   C323      1.0  0.81566  0.29182  0.34992  1.0000
  H   H234      1.0  0.83307  0.30210  0.44979  1.0000
  H   H235      1.0  0.80088  0.45120  0.47758  1.0000
  C   C324      1.0  0.83314  0.36467  0.46728  1.0000
  H   H236      1.0  0.83952  0.38219  0.42681  1.0000
  H   H237      1.0  0.84225  0.35082  0.50301  1.0000
  H   H238      1.0  0.82576  0.37664  0.51775  1.0000
  C   C325      1.0  0.23040  0.44500  0.34274  1.0000
  C   C326      1.0  0.25641  0.39982  0.34889  1.0000
  C   C327      1.0  0.25527  0.42397  0.41609  1.0000
  C   C328      1.0  0.24233  0.44615  0.41105  1.0000
  H   H239      1.0  0.24119  0.46296  0.46006  1.0000
  C   C329      1.0  0.29614  0.36055  0.38313  1.0000
  N   N39       1.0  0.28337  0.38071  0.38116  1.0000
  H   H240      1.0  0.30635  0.36773  0.41606  1.0000
  C   C330      1.0  0.26659  0.42618  0.49401  1.0000
  H   H241      1.0  0.26710  0.40366  0.52925  1.0000
  H   H242      1.0  0.26295  0.44397  0.54313  1.0000
  H   H243      1.0  0.27869  0.43246  0.47037  1.0000
  C   C331      1.0  0.78053  0.56590  0.34546  1.0000
  C   C332      1.0  0.75455  0.61109  0.35087  1.0000
  C   C333      1.0  0.75570  0.58711  0.41860  1.0000
  C   C334      1.0  0.76863  0.56492  0.41392  1.0000
  H   H244      1.0  0.76978  0.54823  0.46325  1.0000
  C   C335      1.0  0.71489  0.65062  0.38510  1.0000
  N   N40       1.0  0.72764  0.63040  0.38334  1.0000
  H   H245      1.0  0.70470  0.64362  0.41852  1.0000
  C   C336      1.0  0.74440  0.58511  0.49667  1.0000
  H   H246      1.0  0.74392  0.60772  0.53149  1.0000
  H   H247      1.0  0.74805  0.56744  0.54611  1.0000
  H   H248      1.0  0.73229  0.57880  0.47328  1.0000
  C   C337      1.0  0.27886  0.92093  0.41071  1.0000
  N   N41       1.0  0.26632  0.90038  0.40497  1.0000
  C   C338      1.0  0.24251  0.87509  0.34505  1.0000
  C   C339      1.0  0.24445  0.84487  0.38644  1.0000
  C   C340      1.0  0.23113  0.82353  0.38623  1.0000
  C   C341      1.0  0.21598  0.83036  0.34554  1.0000
  H   H249      1.0  0.23248  0.80245  0.41849  1.0000
  H   H250      1.0  0.28691  0.91851  0.46259  1.0000
  C   C342      1.0  0.25998  0.83401  0.42732  1.0000
  H   H251      1.0  0.26988  0.83708  0.37933  1.0000
  H   H252      1.0  0.25977  0.80919  0.44628  1.0000
  H   H253      1.0  0.26252  0.84747  0.48829  1.0000
  C   C343      1.0  0.73237  0.08976  0.40841  1.0000
  N   N42       1.0  0.74490  0.11032  0.40298  1.0000
  C   C344      1.0  0.76867  0.13581  0.34331  1.0000
  C   C345      1.0  0.76674  0.16586  0.38572  1.0000
  C   C346      1.0  0.78003  0.18724  0.38578  1.0000
  C   C347      1.0  0.79514  0.18064  0.34429  1.0000
  H   H254      1.0  0.77869  0.20817  0.41882  1.0000
  H   H255      1.0  0.72433  0.09203  0.46044  1.0000
  C   C348      1.0  0.75124  0.17652  0.42743  1.0000
  H   H256      1.0  0.74129  0.17361  0.37965  1.0000
  H   H257      1.0  0.75145  0.20128  0.44715  1.0000
  H   H258      1.0  0.74877  0.16283  0.48806  1.0000
  C   C349      1.0  0.08998  0.40339  0.35098  1.0000
  C   C350      1.0  0.12272  0.42334  0.34631  1.0000
  C   C351      1.0  0.11261  0.43375  0.41796  1.0000
  C   C352      1.0  0.09627  0.42352  0.41850  1.0000
  H   H259      1.0  0.08865  0.43141  0.46811  1.0000
  C   C353      1.0  0.16581  0.43555  0.39293  1.0000
  N   N43       1.0  0.15028  0.42494  0.39314  1.0000
  H   H260      1.0  0.17354  0.42749  0.44154  1.0000
  C   C354      1.0  0.11846  0.45600  0.48818  1.0000
  H   H261      1.0  0.12278  0.47761  0.45650  1.0000
  H   H262      1.0  0.12840  0.44533  0.52589  1.0000
  H   H263      1.0  0.10899  0.46237  0.53629  1.0000
  C   C355      1.0  0.92107  0.60631  0.35636  1.0000
  C   C356      1.0  0.88827  0.58688  0.35174  1.0000
  C   C357      1.0  0.89836  0.57620  0.42315  1.0000
  C   C358      1.0  0.91475  0.58615  0.42364  1.0000
  H   H264      1.0  0.92237  0.57800  0.47289  1.0000
  C   C359      1.0  0.84514  0.57494  0.39752  1.0000
  N   N44       1.0  0.86070  0.58537  0.39830  1.0000
  H   H265      1.0  0.83741  0.58289  0.44625  1.0000
  C   C360      1.0  0.89244  0.55390  0.49308  1.0000
  H   H266      1.0  0.88804  0.53241  0.46112  1.0000
  H   H267      1.0  0.88256  0.56465  0.53099  1.0000
  H   H268      1.0  0.90190  0.54732  0.54103  1.0000
  C   C361      1.0  0.41024  0.89337  0.40530  1.0000
  N   N45       1.0  0.39470  0.90394  0.40599  1.0000
  C   C362      1.0  0.37232  0.93460  0.35497  1.0000
  C   C363      1.0  0.36811  0.95740  0.42106  1.0000
  C   C364      1.0  0.35203  0.96916  0.42099  1.0000
  C   C365      1.0  0.34028  0.95873  0.35812  1.0000
  H   H269      1.0  0.34879  0.98579  0.46754  1.0000
  H   H270      1.0  0.41414  0.87973  0.45772  1.0000
  C   C366      1.0  0.38018  0.96984  0.48645  1.0000
  H   H271      1.0  0.39037  0.98033  0.45028  1.0000
  H   H272      1.0  0.38468  0.95075  0.52876  1.0000
  H   H273      1.0  0.37507  0.98781  0.53072  1.0000
  C   C367      1.0  0.60083  0.11667  0.40007  1.0000
  N   N46       1.0  0.61641  0.10631  0.40071  1.0000
  C   C368      1.0  0.63885  0.07581  0.35015  1.0000
  C   C369      1.0  0.64309  0.05330  0.41697  1.0000
  C   C370      1.0  0.65920  0.04173  0.41746  1.0000
  C   C371      1.0  0.67094  0.05209  0.35447  1.0000
  H   H274      1.0  0.66246  0.02529  0.46449  1.0000
  H   H275      1.0  0.59691  0.13029  0.45247  1.0000
  C   C372      1.0  0.63102  0.04093  0.48254  1.0000
  H   H276      1.0  0.62088  0.03023  0.44652  1.0000
  H   H277      1.0  0.62646  0.06010  0.52437  1.0000
  H   H278      1.0  0.63616  0.02313  0.52728  1.0000
  C   C373      1.0  0.97856  0.54514  0.40785  1.0000
  N   N47       1.0  0.99002  0.52236  0.40493  1.0000
  C   C374      1.0  0.01150  0.49320  0.34087  1.0000
  C   C375      1.0  0.02447  0.49378  0.40394  1.0000
  C   C376      1.0  0.03555  0.46836  0.40259  1.0000
  C   C377      1.0  0.03389  0.44310  0.34117  1.0000
  H   H279      1.0  0.04487  0.46803  0.44810  1.0000
  H   H280      1.0  0.97192  0.54791  0.46546  1.0000
  C   C378      1.0  0.02694  0.52040  0.46756  1.0000
  H   H281      1.0  0.01674  0.52186  0.51420  1.0000
  H   H282      1.0  0.02783  0.54243  0.43009  1.0000
  H   H283      1.0  0.03799  0.51783  0.50747  1.0000
  C   C379      1.0  0.53436  0.06574  0.35533  1.0000
  C   C380      1.0  0.51120  0.01733  0.35618  1.0000
  C   C381      1.0  0.51237  0.03725  0.43285  1.0000
  C   C382      1.0  0.52401  0.06165  0.43030  1.0000
  H   H284      1.0  0.52496  0.07676  0.48377  1.0000
  C   C383      1.0  0.49030  0.94447  0.40903  1.0000
  N   N48       1.0  0.50075  0.96895  0.40716  1.0000
  H   H285      1.0  0.49197  0.92746  0.45680  1.0000
  C   C384      1.0  0.50145  0.03399  0.51217  1.0000
  H   H286      1.0  0.48882  0.03548  0.49057  1.0000
  H   H287      1.0  0.50349  0.05230  0.56257  1.0000
  H   H288      1.0  0.50348  0.01131  0.54465  1.0000
