data_image0
_chemical_formula_structural       C3H2C3H2C3H2C3H2C3HOHC3HOHC3H2C3H2C3HOHC3HOHC3H2C3H2C3H2C3H2C3HOHC3HOHC3HOHC3HOHCNCNCNCNCNCNCNCNCNCNCNCNCNCNCNCNCNCNCNCNCNCNCNCNCNCNCNCNCNCNCNCNCNCNCNCNC3HOHC3HOHC3HOHC3HOHC3H2C3H2C3HOHC3HOHC3H2C3H2C3HOHC3HOHC3HOHC3HOHC3H2C3H2C3H2C3H2C3H2C3H2C3H2C3H2C3HOHC3HOHC3H2C3H2C3HOHC3HOHC3H2C3H2C3H2C3H2C3HOHC3HOHC3HOHC3HOHCNCNCNCNCNCNCNCNCNCNCNCNCNCNCNCNCNCNCNCNCNCNCNCNCNCNCNCNCNCNCNCNCNCNCNCNC3HOHC3HOHC3HOHC3HOHC3H2C3H2C3HOHC3HOHC3H2C3H2C3HOHC3HOHC3HOHC3HOHC3H2C3H2C3H2C3H2
_chemical_formula_sum              "C288 H144 O36 N72"
_cell_length_a       42.6232
_cell_length_b       55.2593
_cell_length_c       14.9494
_cell_angle_alpha    90
_cell_angle_beta     90
_cell_angle_gamma    90

_space_group_name_H-M_alt    "P 1"
_space_group_IT_number       1

loop_
  _space_group_symop_operation_xyz
  'x, y, z'

loop_
  _atom_site_type_symbol
  _atom_site_label
  _atom_site_symmetry_multiplicity
  _atom_site_fract_x
  _atom_site_fract_y
  _atom_site_fract_z
  _atom_site_occupancy
  C   C1        1.0  0.28446  0.16951  0.30058  1.0000
  C   C2        1.0  0.26642  0.18987  0.27480  1.0000
  C   C3        1.0  0.23379  0.18973  0.27856  1.0000
  H   H1        1.0  0.22282  0.20548  0.26061  1.0000
  H   H2        1.0  0.27669  0.20574  0.25501  1.0000
  C   C4        1.0  0.21809  0.83354  0.30120  1.0000
  C   C5        1.0  0.23628  0.81317  0.27641  1.0000
  C   C6        1.0  0.26890  0.81340  0.28083  1.0000
  H   H3        1.0  0.27994  0.79764  0.26346  1.0000
  H   H4        1.0  0.22613  0.79725  0.25674  1.0000
  C   C7        1.0  0.03463  0.66902  0.30044  1.0000
  C   C8        1.0  0.01670  0.68930  0.27330  1.0000
  C   C9        1.0  0.48408  0.68931  0.27744  1.0000
  H   H5        1.0  0.47318  0.70502  0.25868  1.0000
  H   H6        1.0  0.02703  0.70506  0.25263  1.0000
  C   C10       1.0  0.46805  0.33396  0.29973  1.0000
  C   C11       1.0  0.48619  0.31366  0.27401  1.0000
  C   C12       1.0  0.01878  0.31373  0.27950  1.0000
  H   H7        1.0  0.02981  0.29799  0.26165  1.0000
  H   H8        1.0  0.47602  0.29783  0.25344  1.0000
  C   C13       1.0  0.05606  0.10653  0.36283  1.0000
  C   C14       1.0  0.08756  0.09881  0.34935  1.0000
  C   C15       1.0  0.11273  0.11572  0.34846  1.0000
  H   H9        1.0  0.13491  0.10949  0.33608  1.0000
  O   O1        1.0  0.09442  0.07506  0.33535  1.0000
  H   H10       1.0  0.09389  0.07261  0.27020  1.0000
  C   C16       1.0  0.44625  0.89694  0.36591  1.0000
  C   C17       1.0  0.41473  0.90465  0.35281  1.0000
  C   C18       1.0  0.38957  0.88773  0.35254  1.0000
  H   H11       1.0  0.36740  0.89391  0.33967  1.0000
  O   O2        1.0  0.40789  0.92834  0.33767  1.0000
  H   H12       1.0  0.40830  0.93055  0.27240  1.0000
  C   C19       1.0  0.39397  0.14111  0.34511  1.0000
  C   C20       1.0  0.42526  0.14858  0.36053  1.0000
  C   C21       1.0  0.44992  0.13202  0.36612  1.0000
  H   H13       1.0  0.47167  0.13931  0.37614  1.0000
  H   H14       1.0  0.43101  0.16647  0.36706  1.0000
  C   C22       1.0  0.10819  0.86182  0.33893  1.0000
  C   C23       1.0  0.07676  0.85432  0.35150  1.0000
  C   C24       1.0  0.05209  0.87088  0.35682  1.0000
  H   H15       1.0  0.03025  0.86356  0.36483  1.0000
  H   H16       1.0  0.07092  0.83641  0.35652  1.0000
  C   C25       1.0  0.30569  0.60680  0.35726  1.0000
  C   C26       1.0  0.33725  0.59903  0.34540  1.0000
  C   C27       1.0  0.36241  0.61593  0.34405  1.0000
  H   H17       1.0  0.38470  0.60960  0.33408  1.0000
  O   O3        1.0  0.34424  0.57517  0.33512  1.0000
  H   H18       1.0  0.34413  0.57206  0.27034  1.0000
  C   C28       1.0  0.19652  0.39674  0.36259  1.0000
  C   C29       1.0  0.16499  0.40447  0.34987  1.0000
  C   C30       1.0  0.13984  0.38754  0.34916  1.0000
  H   H19       1.0  0.11761  0.39377  0.33744  1.0000
  O   O4        1.0  0.15808  0.42823  0.33660  1.0000
  H   H20       1.0  0.15835  0.43078  0.27149  1.0000
  C   C31       1.0  0.14379  0.64099  0.35176  1.0000
  C   C32       1.0  0.17491  0.64837  0.36990  1.0000
  C   C33       1.0  0.19955  0.63177  0.37497  1.0000
  H   H21       1.0  0.22123  0.63894  0.38711  1.0000
  H   H22       1.0  0.18055  0.66622  0.37838  1.0000
  C   C34       1.0  0.35842  0.36193  0.34386  1.0000
  C   C35       1.0  0.32714  0.35448  0.35930  1.0000
  C   C36       1.0  0.30250  0.37107  0.36448  1.0000
  H   H23       1.0  0.28074  0.36382  0.37461  1.0000
  H   H24       1.0  0.32140  0.33659  0.36606  1.0000
  C   C37       1.0  0.11781  0.27710  0.35213  1.0000
  C   C38       1.0  0.14907  0.26959  0.33803  1.0000
  C   C39       1.0  0.15697  0.24486  0.33646  1.0000
  H   H25       1.0  0.17988  0.24055  0.32377  1.0000
  H   H26       1.0  0.16631  0.28203  0.32558  1.0000
  C   C40       1.0  0.38500  0.72629  0.34911  1.0000
  C   C41       1.0  0.35372  0.73386  0.33572  1.0000
  C   C42       1.0  0.34579  0.75858  0.33590  1.0000
  H   H27       1.0  0.32284  0.76291  0.32385  1.0000
  H   H28       1.0  0.33645  0.72146  0.32294  1.0000
  C   C43       1.0  0.36813  0.22625  0.31857  1.0000
  C   C44       1.0  0.39941  0.23359  0.30069  1.0000
  C   C45       1.0  0.40751  0.25834  0.30058  1.0000
  H   H29       1.0  0.43037  0.26274  0.28755  1.0000
  O   O5        1.0  0.42267  0.21740  0.28286  1.0000
  H   H30       1.0  0.42145  0.21398  0.21839  1.0000
  C   C46       1.0  0.13450  0.77667  0.31825  1.0000
  C   C47       1.0  0.10336  0.76922  0.29911  1.0000
  C   C48       1.0  0.09527  0.74448  0.30033  1.0000
  H   H31       1.0  0.07251  0.74000  0.28628  1.0000
  O   O6        1.0  0.08021  0.78529  0.27876  1.0000
  H   H32       1.0  0.08192  0.78841  0.21416  1.0000
  C   C49       1.0  0.00184  0.97546  0.34033  1.0000
  C   C50       1.0  0.02928  0.98925  0.32149  1.0000
  C   C51       1.0  0.02871  0.01482  0.32343  1.0000
  H   H33       1.0  0.04915  0.02388  0.31054  1.0000
  O   O7        1.0  0.05741  0.97876  0.30268  1.0000
  H   H34       1.0  0.05743  0.97564  0.23789  1.0000
  C   C52       1.0  0.25190  0.47545  0.34053  1.0000
  C   C53       1.0  0.27927  0.48929  0.32121  1.0000
  C   C54       1.0  0.27861  0.51486  0.32312  1.0000
  H   H35       1.0  0.29901  0.52395  0.30985  1.0000
  O   O8        1.0  0.30736  0.47882  0.30179  1.0000
  H   H36       1.0  0.30712  0.47554  0.23712  1.0000
  C   C55       1.0  0.18396  0.17194  0.32315  1.0000
  N   N1        1.0  0.16251  0.15387  0.33628  1.0000
  C   C56       1.0  0.13150  0.15877  0.35234  1.0000
  N   N2        1.0  0.12306  0.18260  0.35682  1.0000
  C   C57       1.0  0.14304  0.20141  0.34609  1.0000
  N   N3        1.0  0.17293  0.19498  0.32888  1.0000
  C   C58       1.0  0.31857  0.83138  0.32587  1.0000
  N   N4        1.0  0.33993  0.84948  0.33981  1.0000
  C   C59       1.0  0.37094  0.84464  0.35622  1.0000
  N   N5        1.0  0.37951  0.82082  0.35980  1.0000
  C   C60       1.0  0.35965  0.80198  0.34803  1.0000
  N   N6        1.0  0.32976  0.80838  0.33080  1.0000
  C   C61       1.0  0.31745  0.17211  0.30925  1.0000
  N   N7        1.0  0.33885  0.15402  0.32328  1.0000
  C   C62       1.0  0.37018  0.15890  0.33418  1.0000
  N   N8        1.0  0.37896  0.18268  0.33213  1.0000
  C   C63       1.0  0.35899  0.20138  0.31962  1.0000
  N   N9        1.0  0.32874  0.19512  0.30837  1.0000
  C   C64       1.0  0.18507  0.83088  0.30872  1.0000
  N   N10       1.0  0.16351  0.84897  0.32070  1.0000
  C   C65       1.0  0.13213  0.84406  0.32994  1.0000
  N   N11       1.0  0.12346  0.82025  0.32860  1.0000
  C   C66       1.0  0.14358  0.80155  0.31827  1.0000
  N   N12       1.0  0.17387  0.80784  0.30840  1.0000
  C   C67       1.0  0.43418  0.67185  0.32259  1.0000
  N   N13       1.0  0.41241  0.65389  0.33347  1.0000
  C   C68       1.0  0.38130  0.65896  0.34727  1.0000
  N   N14       1.0  0.37300  0.68283  0.35203  1.0000
  C   C69       1.0  0.39352  0.70138  0.34435  1.0000
  N   N15       1.0  0.42349  0.69496  0.32907  1.0000
  C   C70       1.0  0.06843  0.33142  0.32587  1.0000
  N   N16       1.0  0.09005  0.34944  0.33792  1.0000
  C   C71       1.0  0.12112  0.34447  0.35301  1.0000
  N   N17       1.0  0.12958  0.32062  0.35741  1.0000
  C   C72       1.0  0.10922  0.30201  0.34835  1.0000
  N   N18       1.0  0.07928  0.30835  0.33214  1.0000
  C   C73       1.0  0.06759  0.67167  0.31002  1.0000
  N   N19       1.0  0.08898  0.65375  0.32646  1.0000
  C   C74       1.0  0.12017  0.65882  0.33923  1.0000
  N   N20       1.0  0.12893  0.68263  0.33660  1.0000
  C   C75       1.0  0.10889  0.70117  0.32115  1.0000
  N   N21       1.0  0.07883  0.69466  0.30822  1.0000
  C   C76       1.0  0.43504  0.33128  0.30766  1.0000
  N   N22       1.0  0.41348  0.34921  0.32208  1.0000
  C   C77       1.0  0.38221  0.34414  0.33305  1.0000
  N   N23       1.0  0.37356  0.32030  0.33096  1.0000
  C   C78       1.0  0.39375  0.30175  0.31767  1.0000
  N   N24       1.0  0.42389  0.30826  0.30626  1.0000
  C   C79       1.0  0.02919  0.09120  0.35914  1.0000
  N   N25       1.0  0.02834  0.06666  0.35088  1.0000
  C   C80       1.0  0.00076  0.05387  0.34654  1.0000
  N   N26       1.0  0.47315  0.06667  0.34896  1.0000
  C   C81       1.0  0.47227  0.09126  0.35629  1.0000
  N   N27       1.0  0.00073  0.10193  0.36125  1.0000
  C   C82       1.0  0.47315  0.91217  0.36003  1.0000
  N   N28       1.0  0.47418  0.93672  0.35171  1.0000
  C   C83       1.0  0.50179  0.94943  0.34467  1.0000
  N   N29       1.0  0.02918  0.93635  0.34461  1.0000
  C   C84       1.0  0.02997  0.91177  0.35152  1.0000
  N   N30       1.0  0.50150  0.90126  0.35921  1.0000
  C   C85       1.0  0.27891  0.59135  0.35618  1.0000
  N   N31       1.0  0.27813  0.56678  0.34861  1.0000
  C   C86       1.0  0.25060  0.55387  0.34676  1.0000
  N   N32       1.0  0.22296  0.56658  0.35153  1.0000
  C   C87       1.0  0.22201  0.59116  0.35923  1.0000
  N   N33       1.0  0.25042  0.60195  0.36119  1.0000
  C   C88       1.0  0.22338  0.41208  0.35844  1.0000
  N   N34       1.0  0.22434  0.43664  0.35031  1.0000
  C   C89       1.0  0.25193  0.44943  0.34495  1.0000
  N   N35       1.0  0.27940  0.43644  0.34676  1.0000
  C   C90       1.0  0.28025  0.41187  0.35424  1.0000
  N   N36       1.0  0.25178  0.40128  0.35990  1.0000
  C   C91       1.0  0.21670  0.16923  0.30815  1.0000
  C   C92       1.0  0.23431  0.14781  0.32479  1.0000
  C   C93       1.0  0.26766  0.14804  0.32059  1.0000
  H   H37       1.0  0.27967  0.13279  0.33885  1.0000
  O   O9        1.0  0.21991  0.12704  0.35133  1.0000
  H   H38       1.0  0.21914  0.12756  0.41707  1.0000
  C   C94       1.0  0.28584  0.83398  0.31040  1.0000
  C   C95       1.0  0.26808  0.85537  0.32634  1.0000
  C   C96       1.0  0.23475  0.85508  0.32117  1.0000
  H   H39       1.0  0.22261  0.87032  0.33884  1.0000
  O   O10       1.0  0.28234  0.87621  0.35277  1.0000
  H   H40       1.0  0.28290  0.87580  0.41853  1.0000
  C   C97       1.0  0.46691  0.66897  0.30805  1.0000
  C   C98       1.0  0.48439  0.64753  0.32547  1.0000
  C   C99       1.0  0.01774  0.64765  0.32141  1.0000
  H   H41       1.0  0.02969  0.63249  0.34093  1.0000
  O   O11       1.0  0.46987  0.62693  0.35322  1.0000
  H   H42       1.0  0.46889  0.62781  0.41888  1.0000
  C   C100      1.0  0.03574  0.33417  0.31021  1.0000
  C   C101      1.0  0.01809  0.35560  0.32636  1.0000
  C   C102      1.0  0.48476  0.35540  0.32086  1.0000
  H   H43       1.0  0.47267  0.37060  0.33923  1.0000
  O   O12       1.0  0.03241  0.37631  0.35392  1.0000
  H   H44       1.0  0.03302  0.37562  0.41964  1.0000
  C   C103      1.0  0.10766  0.14090  0.36022  1.0000
  C   C104      1.0  0.07644  0.14818  0.37756  1.0000
  C   C105      1.0  0.05167  0.13164  0.37873  1.0000
  H   H45       1.0  0.02997  0.13873  0.39120  1.0000
  H   H46       1.0  0.07079  0.16593  0.38831  1.0000
  C   C106      1.0  0.39467  0.86256  0.36471  1.0000
  C   C107      1.0  0.42587  0.85535  0.38280  1.0000
  C   C108      1.0  0.45063  0.87190  0.38334  1.0000
  H   H47       1.0  0.47234  0.86487  0.39632  1.0000
  H   H48       1.0  0.43151  0.83763  0.39437  1.0000
  C   C109      1.0  0.44544  0.10669  0.35633  1.0000
  C   C110      1.0  0.41388  0.09885  0.34503  1.0000
  C   C111      1.0  0.38882  0.11579  0.33923  1.0000
  H   H49       1.0  0.36663  0.10943  0.32790  1.0000
  O   O13       1.0  0.40699  0.07500  0.33416  1.0000
  H   H50       1.0  0.40300  0.06859  0.39446  1.0000
  C   C112      1.0  0.05670  0.89626  0.34962  1.0000
  C   C113      1.0  0.08833  0.90409  0.33959  1.0000
  C   C114      1.0  0.11339  0.88715  0.33411  1.0000
  H   H51       1.0  0.13568  0.89353  0.32466  1.0000
  O   O14       1.0  0.09535  0.92798  0.33093  1.0000
  H   H52       1.0  0.09908  0.93403  0.39187  1.0000
  C   C115      1.0  0.35730  0.64118  0.35342  1.0000
  C   C116      1.0  0.32593  0.64861  0.36737  1.0000
  C   C117      1.0  0.30118  0.63207  0.36919  1.0000
  H   H53       1.0  0.27940  0.63929  0.37920  1.0000
  H   H54       1.0  0.32019  0.66646  0.37565  1.0000
  C   C118      1.0  0.14497  0.36233  0.36027  1.0000
  C   C119      1.0  0.17624  0.35504  0.37678  1.0000
  C   C120      1.0  0.20097  0.37160  0.37789  1.0000
  H   H55       1.0  0.22269  0.36449  0.38980  1.0000
  H   H56       1.0  0.18193  0.33726  0.38703  1.0000
  C   C121      1.0  0.19515  0.60653  0.36185  1.0000
  C   C122      1.0  0.16364  0.59872  0.34943  1.0000
  C   C123      1.0  0.13862  0.61569  0.34406  1.0000
  H   H57       1.0  0.11653  0.60942  0.33078  1.0000
  O   O15       1.0  0.15684  0.57498  0.33538  1.0000
  H   H58       1.0  0.15263  0.56803  0.39473  1.0000
  C   C124      1.0  0.30702  0.39639  0.35428  1.0000
  C   C125      1.0  0.33858  0.40420  0.34285  1.0000
  C   C126      1.0  0.36362  0.38724  0.33746  1.0000
  H   H59       1.0  0.38581  0.39357  0.32597  1.0000
  O   O16       1.0  0.34551  0.42802  0.33141  1.0000
  H   H60       1.0  0.34954  0.43453  0.39154  1.0000
  C   C127      1.0  0.13423  0.22643  0.35046  1.0000
  C   C128      1.0  0.10301  0.23406  0.36820  1.0000
  C   C129      1.0  0.09508  0.25886  0.36746  1.0000
  H   H61       1.0  0.07219  0.26350  0.37914  1.0000
  O   O17       1.0  0.07928  0.21809  0.38323  1.0000
  H   H62       1.0  0.07855  0.21558  0.44835  1.0000
  C   C130      1.0  0.36852  0.77695  0.35085  1.0000
  C   C131      1.0  0.39978  0.76927  0.36770  1.0000
  C   C132      1.0  0.40773  0.74448  0.36530  1.0000
  H   H63       1.0  0.43063  0.73980  0.37653  1.0000
  O   O18       1.0  0.42350  0.78520  0.38346  1.0000
  H   H64       1.0  0.42431  0.78740  0.44872  1.0000
  C   C133      1.0  0.38506  0.27677  0.31707  1.0000
  C   C134      1.0  0.35390  0.26936  0.33404  1.0000
  C   C135      1.0  0.34565  0.24469  0.33462  1.0000
  H   H65       1.0  0.32282  0.24038  0.34851  1.0000
  H   H66       1.0  0.33678  0.28187  0.34691  1.0000
  C   C136      1.0  0.11760  0.72614  0.31943  1.0000
  C   C137      1.0  0.14863  0.73365  0.33761  1.0000
  C   C138      1.0  0.15687  0.75832  0.33688  1.0000
  H   H67       1.0  0.17960  0.76272  0.35174  1.0000
  H   H68       1.0  0.16566  0.72121  0.35230  1.0000
  C   C139      1.0  0.00091  0.02795  0.34188  1.0000
  C   C140      1.0  0.97345  0.01421  0.35786  1.0000
  C   C141      1.0  0.97396  0.98871  0.35743  1.0000
  H   H69       1.0  0.95345  0.97991  0.37186  1.0000
  H   H70       1.0  0.95270  0.02263  0.37253  1.0000
  C   C142      1.0  0.25083  0.52794  0.34213  1.0000
  C   C143      1.0  0.22345  0.51414  0.35859  1.0000
  C   C144      1.0  0.22401  0.48864  0.35809  1.0000
  H   H71       1.0  0.20358  0.47981  0.37303  1.0000
  H   H72       1.0  0.20271  0.52253  0.37374  1.0000
  C   C145      1.0  0.78446  0.16951  0.30058  1.0000
  C   C146      1.0  0.76642  0.18987  0.27480  1.0000
  C   C147      1.0  0.73379  0.18973  0.27856  1.0000
  H   H73       1.0  0.72282  0.20548  0.26061  1.0000
  H   H74       1.0  0.77669  0.20574  0.25501  1.0000
  C   C148      1.0  0.71809  0.83354  0.30120  1.0000
  C   C149      1.0  0.73628  0.81317  0.27641  1.0000
  C   C150      1.0  0.76890  0.81340  0.28083  1.0000
  H   H75       1.0  0.77994  0.79764  0.26346  1.0000
  H   H76       1.0  0.72613  0.79725  0.25674  1.0000
  C   C151      1.0  0.53463  0.66902  0.30044  1.0000
  C   C152      1.0  0.51670  0.68930  0.27330  1.0000
  C   C153      1.0  0.98408  0.68931  0.27744  1.0000
  H   H77       1.0  0.97318  0.70502  0.25868  1.0000
  H   H78       1.0  0.52704  0.70506  0.25263  1.0000
  C   C154      1.0  0.96805  0.33396  0.29973  1.0000
  C   C155      1.0  0.98619  0.31366  0.27401  1.0000
  C   C156      1.0  0.51878  0.31373  0.27950  1.0000
  H   H79       1.0  0.52981  0.29799  0.26165  1.0000
  H   H80       1.0  0.97602  0.29783  0.25344  1.0000
  C   C157      1.0  0.55606  0.10653  0.36283  1.0000
  C   C158      1.0  0.58756  0.09881  0.34935  1.0000
  C   C159      1.0  0.61273  0.11572  0.34846  1.0000
  H   H81       1.0  0.63492  0.10949  0.33608  1.0000
  O   O19       1.0  0.59442  0.07506  0.33535  1.0000
  H   H82       1.0  0.59389  0.07261  0.27020  1.0000
  C   C160      1.0  0.94625  0.89694  0.36591  1.0000
  C   C161      1.0  0.91473  0.90465  0.35281  1.0000
  C   C162      1.0  0.88957  0.88773  0.35254  1.0000
  H   H83       1.0  0.86740  0.89391  0.33967  1.0000
  O   O20       1.0  0.90789  0.92834  0.33767  1.0000
  H   H84       1.0  0.90830  0.93055  0.27240  1.0000
  C   C163      1.0  0.89397  0.14111  0.34511  1.0000
  C   C164      1.0  0.92526  0.14858  0.36053  1.0000
  C   C165      1.0  0.94992  0.13202  0.36612  1.0000
  H   H85       1.0  0.97167  0.13931  0.37614  1.0000
  H   H86       1.0  0.93101  0.16647  0.36706  1.0000
  C   C166      1.0  0.60819  0.86182  0.33893  1.0000
  C   C167      1.0  0.57676  0.85432  0.35150  1.0000
  C   C168      1.0  0.55209  0.87088  0.35682  1.0000
  H   H87       1.0  0.53025  0.86356  0.36483  1.0000
  H   H88       1.0  0.57092  0.83641  0.35652  1.0000
  C   C169      1.0  0.80569  0.60680  0.35726  1.0000
  C   C170      1.0  0.83725  0.59903  0.34540  1.0000
  C   C171      1.0  0.86241  0.61593  0.34405  1.0000
  H   H89       1.0  0.88470  0.60960  0.33408  1.0000
  O   O21       1.0  0.84423  0.57517  0.33512  1.0000
  H   H90       1.0  0.84413  0.57206  0.27034  1.0000
  C   C172      1.0  0.69652  0.39674  0.36259  1.0000
  C   C173      1.0  0.66499  0.40447  0.34987  1.0000
  C   C174      1.0  0.63984  0.38754  0.34916  1.0000
  H   H91       1.0  0.61761  0.39377  0.33745  1.0000
  O   O22       1.0  0.65808  0.42823  0.33660  1.0000
  H   H92       1.0  0.65835  0.43078  0.27149  1.0000
  C   C175      1.0  0.64379  0.64099  0.35176  1.0000
  C   C176      1.0  0.67491  0.64837  0.36990  1.0000
  C   C177      1.0  0.69955  0.63177  0.37497  1.0000
  H   H93       1.0  0.72123  0.63894  0.38711  1.0000
  H   H94       1.0  0.68055  0.66622  0.37838  1.0000
  C   C178      1.0  0.85842  0.36193  0.34386  1.0000
  C   C179      1.0  0.82714  0.35448  0.35930  1.0000
  C   C180      1.0  0.80250  0.37107  0.36448  1.0000
  H   H95       1.0  0.78074  0.36382  0.37462  1.0000
  H   H96       1.0  0.82140  0.33659  0.36606  1.0000
  C   C181      1.0  0.61781  0.27710  0.35213  1.0000
  C   C182      1.0  0.64907  0.26959  0.33803  1.0000
  C   C183      1.0  0.65697  0.24486  0.33646  1.0000
  H   H97       1.0  0.67988  0.24055  0.32377  1.0000
  H   H98       1.0  0.66631  0.28203  0.32558  1.0000
  C   C184      1.0  0.88500  0.72629  0.34911  1.0000
  C   C185      1.0  0.85372  0.73386  0.33572  1.0000
  C   C186      1.0  0.84579  0.75858  0.33590  1.0000
  H   H99       1.0  0.82284  0.76291  0.32385  1.0000
  H   H100      1.0  0.83645  0.72146  0.32294  1.0000
  C   C187      1.0  0.86813  0.22625  0.31857  1.0000
  C   C188      1.0  0.89941  0.23359  0.30069  1.0000
  C   C189      1.0  0.90751  0.25834  0.30058  1.0000
  H   H101      1.0  0.93037  0.26274  0.28755  1.0000
  O   O23       1.0  0.92267  0.21740  0.28286  1.0000
  H   H102      1.0  0.92145  0.21398  0.21839  1.0000
  C   C190      1.0  0.63450  0.77667  0.31825  1.0000
  C   C191      1.0  0.60336  0.76922  0.29911  1.0000
  C   C192      1.0  0.59527  0.74448  0.30033  1.0000
  H   H103      1.0  0.57251  0.74000  0.28628  1.0000
  O   O24       1.0  0.58022  0.78529  0.27876  1.0000
  H   H104      1.0  0.58193  0.78841  0.21416  1.0000
  C   C193      1.0  0.50184  0.97546  0.34033  1.0000
  C   C194      1.0  0.52928  0.98925  0.32149  1.0000
  C   C195      1.0  0.52870  0.01482  0.32343  1.0000
  H   H105      1.0  0.54915  0.02388  0.31054  1.0000
  O   O25       1.0  0.55741  0.97876  0.30268  1.0000
  H   H106      1.0  0.55743  0.97564  0.23789  1.0000
  C   C196      1.0  0.75190  0.47545  0.34053  1.0000
  C   C197      1.0  0.77927  0.48929  0.32121  1.0000
  C   C198      1.0  0.77861  0.51486  0.32312  1.0000
  H   H107      1.0  0.79901  0.52395  0.30985  1.0000
  O   O26       1.0  0.80736  0.47882  0.30179  1.0000
  H   H108      1.0  0.80712  0.47554  0.23712  1.0000
  C   C199      1.0  0.68396  0.17194  0.32315  1.0000
  N   N37       1.0  0.66251  0.15387  0.33628  1.0000
  C   C200      1.0  0.63149  0.15877  0.35234  1.0000
  N   N38       1.0  0.62306  0.18260  0.35682  1.0000
  C   C201      1.0  0.64304  0.20141  0.34609  1.0000
  N   N39       1.0  0.67293  0.19498  0.32888  1.0000
  C   C202      1.0  0.81858  0.83138  0.32587  1.0000
  N   N40       1.0  0.83993  0.84948  0.33981  1.0000
  C   C203      1.0  0.87094  0.84464  0.35622  1.0000
  N   N41       1.0  0.87951  0.82082  0.35980  1.0000
  C   C204      1.0  0.85965  0.80198  0.34803  1.0000
  N   N42       1.0  0.82976  0.80838  0.33080  1.0000
  C   C205      1.0  0.81745  0.17211  0.30925  1.0000
  N   N43       1.0  0.83885  0.15402  0.32328  1.0000
  C   C206      1.0  0.87018  0.15890  0.33418  1.0000
  N   N44       1.0  0.87896  0.18268  0.33213  1.0000
  C   C207      1.0  0.85899  0.20138  0.31962  1.0000
  N   N45       1.0  0.82874  0.19512  0.30837  1.0000
  C   C208      1.0  0.68507  0.83088  0.30872  1.0000
  N   N46       1.0  0.66351  0.84897  0.32070  1.0000
  C   C209      1.0  0.63213  0.84406  0.32994  1.0000
  N   N47       1.0  0.62346  0.82025  0.32860  1.0000
  C   C210      1.0  0.64358  0.80155  0.31827  1.0000
  N   N48       1.0  0.67387  0.80784  0.30840  1.0000
  C   C211      1.0  0.93418  0.67185  0.32259  1.0000
  N   N49       1.0  0.91241  0.65389  0.33347  1.0000
  C   C212      1.0  0.88130  0.65896  0.34727  1.0000
  N   N50       1.0  0.87300  0.68283  0.35203  1.0000
  C   C213      1.0  0.89352  0.70138  0.34435  1.0000
  N   N51       1.0  0.92349  0.69496  0.32907  1.0000
  C   C214      1.0  0.56843  0.33142  0.32587  1.0000
  N   N52       1.0  0.59005  0.34944  0.33792  1.0000
  C   C215      1.0  0.62112  0.34447  0.35301  1.0000
  N   N53       1.0  0.62958  0.32062  0.35741  1.0000
  C   C216      1.0  0.60922  0.30201  0.34835  1.0000
  N   N54       1.0  0.57928  0.30835  0.33214  1.0000
  C   C217      1.0  0.56759  0.67167  0.31002  1.0000
  N   N55       1.0  0.58898  0.65375  0.32646  1.0000
  C   C218      1.0  0.62016  0.65882  0.33923  1.0000
  N   N56       1.0  0.62893  0.68263  0.33660  1.0000
  C   C219      1.0  0.60889  0.70117  0.32115  1.0000
  N   N57       1.0  0.57883  0.69466  0.30822  1.0000
  C   C220      1.0  0.93504  0.33128  0.30766  1.0000
  N   N58       1.0  0.91348  0.34921  0.32208  1.0000
  C   C221      1.0  0.88221  0.34414  0.33305  1.0000
  N   N59       1.0  0.87356  0.32030  0.33096  1.0000
  C   C222      1.0  0.89375  0.30175  0.31767  1.0000
  N   N60       1.0  0.92389  0.30826  0.30626  1.0000
  C   C223      1.0  0.52919  0.09120  0.35914  1.0000
  N   N61       1.0  0.52834  0.06666  0.35088  1.0000
  C   C224      1.0  0.50076  0.05387  0.34654  1.0000
  N   N62       1.0  0.97315  0.06667  0.34896  1.0000
  C   C225      1.0  0.97227  0.09126  0.35629  1.0000
  N   N63       1.0  0.50073  0.10193  0.36125  1.0000
  C   C226      1.0  0.97315  0.91217  0.36003  1.0000
  N   N64       1.0  0.97418  0.93672  0.35171  1.0000
  C   C227      1.0  0.00178  0.94943  0.34467  1.0000
  N   N65       1.0  0.52918  0.93635  0.34461  1.0000
  C   C228      1.0  0.52997  0.91177  0.35152  1.0000
  N   N66       1.0  0.00150  0.90126  0.35921  1.0000
  C   C229      1.0  0.77891  0.59135  0.35618  1.0000
  N   N67       1.0  0.77813  0.56678  0.34861  1.0000
  C   C230      1.0  0.75060  0.55387  0.34676  1.0000
  N   N68       1.0  0.72296  0.56658  0.35153  1.0000
  C   C231      1.0  0.72201  0.59116  0.35923  1.0000
  N   N69       1.0  0.75042  0.60195  0.36119  1.0000
  C   C232      1.0  0.72338  0.41208  0.35844  1.0000
  N   N70       1.0  0.72434  0.43664  0.35031  1.0000
  C   C233      1.0  0.75193  0.44943  0.34495  1.0000
  N   N71       1.0  0.77939  0.43644  0.34676  1.0000
  C   C234      1.0  0.78025  0.41187  0.35424  1.0000
  N   N72       1.0  0.75178  0.40128  0.35990  1.0000
  C   C235      1.0  0.71670  0.16923  0.30815  1.0000
  C   C236      1.0  0.73431  0.14781  0.32479  1.0000
  C   C237      1.0  0.76766  0.14804  0.32059  1.0000
  H   H109      1.0  0.77967  0.13279  0.33885  1.0000
  O   O27       1.0  0.71991  0.12704  0.35133  1.0000
  H   H110      1.0  0.71914  0.12756  0.41707  1.0000
  C   C238      1.0  0.78584  0.83398  0.31040  1.0000
  C   C239      1.0  0.76808  0.85537  0.32634  1.0000
  C   C240      1.0  0.73475  0.85508  0.32117  1.0000
  H   H111      1.0  0.72261  0.87032  0.33884  1.0000
  O   O28       1.0  0.78234  0.87621  0.35277  1.0000
  H   H112      1.0  0.78290  0.87580  0.41853  1.0000
  C   C241      1.0  0.96691  0.66897  0.30805  1.0000
  C   C242      1.0  0.98439  0.64753  0.32547  1.0000
  C   C243      1.0  0.51774  0.64765  0.32141  1.0000
  H   H113      1.0  0.52969  0.63249  0.34093  1.0000
  O   O29       1.0  0.96987  0.62693  0.35322  1.0000
  H   H114      1.0  0.96889  0.62781  0.41888  1.0000
  C   C244      1.0  0.53574  0.33417  0.31021  1.0000
  C   C245      1.0  0.51809  0.35560  0.32636  1.0000
  C   C246      1.0  0.98476  0.35540  0.32086  1.0000
  H   H115      1.0  0.97267  0.37060  0.33923  1.0000
  O   O30       1.0  0.53241  0.37631  0.35392  1.0000
  H   H116      1.0  0.53302  0.37562  0.41964  1.0000
  C   C247      1.0  0.60766  0.14090  0.36022  1.0000
  C   C248      1.0  0.57644  0.14818  0.37756  1.0000
  C   C249      1.0  0.55167  0.13164  0.37873  1.0000
  H   H117      1.0  0.52997  0.13873  0.39120  1.0000
  H   H118      1.0  0.57079  0.16593  0.38831  1.0000
  C   C250      1.0  0.89467  0.86256  0.36471  1.0000
  C   C251      1.0  0.92587  0.85535  0.38280  1.0000
  C   C252      1.0  0.95063  0.87190  0.38334  1.0000
  H   H119      1.0  0.97234  0.86487  0.39632  1.0000
  H   H120      1.0  0.93151  0.83763  0.39437  1.0000
  C   C253      1.0  0.94544  0.10669  0.35633  1.0000
  C   C254      1.0  0.91388  0.09885  0.34503  1.0000
  C   C255      1.0  0.88882  0.11579  0.33923  1.0000
  H   H121      1.0  0.86663  0.10943  0.32790  1.0000
  O   O31       1.0  0.90699  0.07500  0.33416  1.0000
  H   H122      1.0  0.90300  0.06859  0.39446  1.0000
  C   C256      1.0  0.55671  0.89626  0.34962  1.0000
  C   C257      1.0  0.58832  0.90409  0.33959  1.0000
  C   C258      1.0  0.61339  0.88715  0.33411  1.0000
  H   H123      1.0  0.63568  0.89353  0.32466  1.0000
  O   O32       1.0  0.59535  0.92798  0.33093  1.0000
  H   H124      1.0  0.59908  0.93403  0.39187  1.0000
  C   C259      1.0  0.85730  0.64118  0.35342  1.0000
  C   C260      1.0  0.82593  0.64861  0.36737  1.0000
  C   C261      1.0  0.80118  0.63207  0.36919  1.0000
  H   H125      1.0  0.77940  0.63929  0.37920  1.0000
  H   H126      1.0  0.82019  0.66646  0.37565  1.0000
  C   C262      1.0  0.64497  0.36233  0.36027  1.0000
  C   C263      1.0  0.67624  0.35504  0.37678  1.0000
  C   C264      1.0  0.70097  0.37160  0.37789  1.0000
  H   H127      1.0  0.72270  0.36449  0.38980  1.0000
  H   H128      1.0  0.68193  0.33726  0.38703  1.0000
  C   C265      1.0  0.69515  0.60653  0.36185  1.0000
  C   C266      1.0  0.66364  0.59872  0.34943  1.0000
  C   C267      1.0  0.63862  0.61569  0.34405  1.0000
  H   H129      1.0  0.61653  0.60942  0.33077  1.0000
  O   O33       1.0  0.65684  0.57498  0.33538  1.0000
  H   H130      1.0  0.65263  0.56803  0.39473  1.0000
  C   C268      1.0  0.80702  0.39639  0.35428  1.0000
  C   C269      1.0  0.83858  0.40420  0.34285  1.0000
  C   C270      1.0  0.86362  0.38724  0.33746  1.0000
  H   H131      1.0  0.88581  0.39357  0.32597  1.0000
  O   O34       1.0  0.84551  0.42802  0.33141  1.0000
  H   H132      1.0  0.84954  0.43453  0.39154  1.0000
  C   C271      1.0  0.63423  0.22643  0.35046  1.0000
  C   C272      1.0  0.60301  0.23406  0.36820  1.0000
  C   C273      1.0  0.59508  0.25886  0.36746  1.0000
  H   H133      1.0  0.57220  0.26350  0.37914  1.0000
  O   O35       1.0  0.57928  0.21809  0.38323  1.0000
  H   H134      1.0  0.57855  0.21558  0.44835  1.0000
  C   C274      1.0  0.86852  0.77695  0.35085  1.0000
  C   C275      1.0  0.89978  0.76927  0.36770  1.0000
  C   C276      1.0  0.90773  0.74448  0.36530  1.0000
  H   H135      1.0  0.93063  0.73980  0.37653  1.0000
  O   O36       1.0  0.92349  0.78520  0.38346  1.0000
  H   H136      1.0  0.92431  0.78740  0.44872  1.0000
  C   C277      1.0  0.88506  0.27677  0.31707  1.0000
  C   C278      1.0  0.85390  0.26936  0.33404  1.0000
  C   C279      1.0  0.84565  0.24469  0.33462  1.0000
  H   H137      1.0  0.82282  0.24038  0.34851  1.0000
  H   H138      1.0  0.83678  0.28187  0.34691  1.0000
  C   C280      1.0  0.61760  0.72614  0.31943  1.0000
  C   C281      1.0  0.64863  0.73365  0.33761  1.0000
  C   C282      1.0  0.65687  0.75832  0.33688  1.0000
  H   H139      1.0  0.67960  0.76272  0.35174  1.0000
  H   H140      1.0  0.66566  0.72121  0.35230  1.0000
  C   C283      1.0  0.50091  0.02795  0.34188  1.0000
  C   C284      1.0  0.47345  0.01421  0.35786  1.0000
  C   C285      1.0  0.47396  0.98871  0.35743  1.0000
  H   H141      1.0  0.45345  0.97991  0.37186  1.0000
  H   H142      1.0  0.45270  0.02263  0.37253  1.0000
  C   C286      1.0  0.75083  0.52794  0.34213  1.0000
  C   C287      1.0  0.72344  0.51414  0.35859  1.0000
  C   C288      1.0  0.72401  0.48864  0.35809  1.0000
  H   H143      1.0  0.70358  0.47981  0.37303  1.0000
  H   H144      1.0  0.70271  0.52253  0.37374  1.0000
