data_image0
_chemical_formula_structural       C2HC2H4C2H3C4H2C4H4C3H3C2HC2H4C2H3C4H2C4H4C3H3C2H2C2H2C2H4C2H5CHC3H2C2H4C2H5C2H2C2H4C2H5CHC3H2C2H4C2H5C2HC4HC3H2CH2C3H2CH2C4HC3HC4H2C6H2CH2C5H2CH2C2HC4HC3H2CH2C3H2CH2C4HC3HC4H2C6H2CH2C5H2CH2C2HC3H3CH3C3H3CH3C4H2C5H3CH3C5H3CH3C2HC3H3CH3C3H3CH3C4H2C5H3CH3C5H3CH3C2HC2HC2HC2HC2HC2HC3H3CH3C3H3CH3C3H3CH3C3H3CH3C3H3CH3C3H3CH3C4H2C4H2C4H2C4H2C4H2C4H2C5H3CH3C5H3CH3C5H3CH3C5H3CH3C5H3CH3C5H3CH3C2HC2HC2HC2HC2HC2HC3H3CH3C3H3CH3C3H3CH3C3H3CH3C3H3CH3C3H3CH3C4H2C4H2C4H2C4H2C4H2C4H2C5H3CH3C5H3CH3C5H3CH3C5H3CH3C5H3CH3C5H3CH3
_chemical_formula_sum              "C384 H360"
_cell_length_a       46.9716
_cell_length_b       46.9716
_cell_length_c       14.8006
_cell_angle_alpha    90
_cell_angle_beta     90
_cell_angle_gamma    120

_space_group_name_H-M_alt    "P 1"
_space_group_IT_number       1

loop_
  _space_group_symop_operation_xyz
  'x, y, z'

loop_
  _atom_site_type_symbol
  _atom_site_label
  _atom_site_symmetry_multiplicity
  _atom_site_fract_x
  _atom_site_fract_y
  _atom_site_fract_z
  _atom_site_occupancy
  C   C1        1.0  0.04712  0.30106  0.35028  1.0000
  C   C2        1.0  0.08203  0.31917  0.34857  1.0000
  H   H1        1.0  0.03600  0.31488  0.35047  1.0000
  C   C3        1.0  0.11706  0.25105  0.26429  1.0000
  C   C4        1.0  0.10180  0.25200  0.17583  1.0000
  H   H2        1.0  0.07824  0.25102  0.18226  1.0000
  H   H3        1.0  0.09711  0.23086  0.13449  1.0000
  H   H4        1.0  0.11830  0.27453  0.13941  1.0000
  H   H5        1.0  0.14623  0.22994  0.13449  1.0000
  C   C5        1.0  0.11666  0.36965  0.26433  1.0000
  C   C6        1.0  0.10101  0.35366  0.17599  1.0000
  H   H6        1.0  0.07698  0.33168  0.18274  1.0000
  H   H7        1.0  0.11684  0.34669  0.13975  1.0000
  H   H8        1.0  0.09715  0.37060  0.13437  1.0000
  C   C7        1.0  0.02802  0.26577  0.35114  1.0000
  C   C8        1.0  0.09906  0.30165  0.34657  1.0000
  C   C9        1.0  0.08237  0.26710  0.34846  1.0000
  C   C10       1.0  0.04747  0.24994  0.35126  1.0000
  H   H9        1.0  0.12432  0.31440  0.34513  1.0000
  H   H10       1.0  0.03662  0.22502  0.35238  1.0000
  C   C11       1.0  0.14634  0.24876  0.43108  1.0000
  C   C12       1.0  0.11626  0.24963  0.43108  1.0000
  C   C13       1.0  0.10219  0.25194  0.34767  1.0000
  C   C14       1.0  0.09925  0.24976  0.51715  1.0000
  H   H11       1.0  0.10902  0.24520  0.57853  1.0000
  H   H12       1.0  0.07341  0.23065  0.51381  1.0000
  H   H13       1.0  0.10068  0.27352  0.52578  1.0000
  H   H14       1.0  0.14440  0.22557  0.55663  1.0000
  C   C15       1.0  0.10142  0.35418  0.34765  1.0000
  C   C16       1.0  0.11586  0.37046  0.43094  1.0000
  C   C17       1.0  0.09935  0.35522  0.51891  1.0000
  H   H15       1.0  0.07565  0.33286  0.51217  1.0000
  H   H16       1.0  0.09461  0.37241  0.55648  1.0000
  H   H17       1.0  0.11511  0.34913  0.55896  1.0000
  C   C18       1.0  0.04712  0.80106  0.35028  1.0000
  C   C19       1.0  0.08203  0.81917  0.34857  1.0000
  H   H18       1.0  0.03600  0.81488  0.35047  1.0000
  C   C20       1.0  0.11706  0.75105  0.26429  1.0000
  C   C21       1.0  0.10180  0.75199  0.17583  1.0000
  H   H19       1.0  0.07824  0.75102  0.18226  1.0000
  H   H20       1.0  0.09711  0.73086  0.13449  1.0000
  H   H21       1.0  0.11831  0.77453  0.13941  1.0000
  H   H22       1.0  0.14623  0.72994  0.13449  1.0000
  C   C22       1.0  0.11665  0.86965  0.26433  1.0000
  C   C23       1.0  0.10101  0.85366  0.17599  1.0000
  H   H23       1.0  0.07698  0.83168  0.18274  1.0000
  H   H24       1.0  0.11684  0.84669  0.13975  1.0000
  H   H25       1.0  0.09716  0.87060  0.13437  1.0000
  C   C24       1.0  0.02802  0.76577  0.35114  1.0000
  C   C25       1.0  0.09906  0.80165  0.34657  1.0000
  C   C26       1.0  0.08237  0.76710  0.34846  1.0000
  C   C27       1.0  0.04747  0.74994  0.35126  1.0000
  H   H26       1.0  0.12432  0.81440  0.34513  1.0000
  H   H27       1.0  0.03662  0.72502  0.35238  1.0000
  C   C28       1.0  0.14634  0.74876  0.43108  1.0000
  C   C29       1.0  0.11627  0.74964  0.43108  1.0000
  C   C30       1.0  0.10219  0.75194  0.34767  1.0000
  C   C31       1.0  0.09925  0.74976  0.51715  1.0000
  H   H28       1.0  0.10902  0.74521  0.57853  1.0000
  H   H29       1.0  0.07341  0.73065  0.51381  1.0000
  H   H30       1.0  0.10068  0.77353  0.52578  1.0000
  H   H31       1.0  0.14440  0.72557  0.55663  1.0000
  C   C32       1.0  0.10141  0.85418  0.34765  1.0000
  C   C33       1.0  0.11586  0.87046  0.43094  1.0000
  C   C34       1.0  0.09935  0.85522  0.51891  1.0000
  H   H32       1.0  0.07565  0.83286  0.51217  1.0000
  H   H33       1.0  0.09461  0.87241  0.55648  1.0000
  H   H34       1.0  0.11511  0.84913  0.55896  1.0000
  C   C35       1.0  0.14681  0.40053  0.43097  1.0000
  C   C36       1.0  0.14681  0.90053  0.43097  1.0000
  H   H35       1.0  0.14716  0.41979  0.13456  1.0000
  H   H36       1.0  0.14715  0.91979  0.13456  1.0000
  C   C37       1.0  0.21576  0.24940  0.35039  1.0000
  C   C38       1.0  0.19765  0.26620  0.34859  1.0000
  H   H37       1.0  0.20194  0.22445  0.35073  1.0000
  H   H38       1.0  0.22786  0.03265  0.35072  1.0000
  C   C39       1.0  0.14721  0.25041  0.26443  1.0000
  C   C40       1.0  0.16319  0.25072  0.17611  1.0000
  H   H39       1.0  0.18515  0.24863  0.18286  1.0000
  H   H40       1.0  0.17021  0.27353  0.13987  1.0000
  H   H41       1.0  0.24248  0.34721  0.13926  1.0000
  H   H42       1.0  0.24342  0.40005  0.13972  1.0000
  C   C41       1.0  0.14743  0.39982  0.26428  1.0000
  C   C42       1.0  0.16362  0.41511  0.17584  1.0000
  H   H43       1.0  0.18619  0.43868  0.18228  1.0000
  H   H44       1.0  0.16967  0.39864  0.13933  1.0000
  H   H45       1.0  0.23423  0.14385  0.13443  1.0000
  H   H46       1.0  0.23331  0.09381  0.13449  1.0000
  H   H47       1.0  0.22838  0.19850  0.35224  1.0000
  C   C43       1.0  0.21518  0.30075  0.34661  1.0000
  H   H48       1.0  0.20243  0.31325  0.34515  1.0000
  C   C44       1.0  0.21607  0.41781  0.34659  1.0000
  C   C45       1.0  0.19821  0.43450  0.34842  1.0000
  C   C46       1.0  0.21595  0.46940  0.35118  1.0000
  H   H49       1.0  0.20356  0.39255  0.34511  1.0000
  H   H50       1.0  0.20189  0.48025  0.35227  1.0000
  C   C47       1.0  0.16264  0.25059  0.34784  1.0000
  C   C48       1.0  0.16158  0.24751  0.51905  1.0000
  H   H51       1.0  0.18396  0.24619  0.51231  1.0000
  H   H52       1.0  0.16766  0.26936  0.55908  1.0000
  H   H53       1.0  0.24329  0.33053  0.52566  1.0000
  H   H54       1.0  0.24748  0.40166  0.55888  1.0000
  C   C49       1.0  0.16324  0.41467  0.34763  1.0000
  C   C50       1.0  0.16394  0.41752  0.51707  1.0000
  H   H55       1.0  0.14962  0.40775  0.57844  1.0000
  H   H56       1.0  0.17067  0.44337  0.51378  1.0000
  H   H57       1.0  0.18628  0.41609  0.52568  1.0000
  H   H58       1.0  0.23393  0.16733  0.51364  1.0000
  H   H59       1.0  0.22894  0.09127  0.55654  1.0000
  C   C51       1.0  0.21576  0.74940  0.35039  1.0000
  C   C52       1.0  0.19765  0.76620  0.34859  1.0000
  H   H60       1.0  0.20194  0.72445  0.35073  1.0000
  H   H61       1.0  0.22786  0.53265  0.35072  1.0000
  C   C53       1.0  0.14721  0.75041  0.26443  1.0000
  C   C54       1.0  0.16319  0.75072  0.17611  1.0000
  H   H62       1.0  0.18515  0.74863  0.18286  1.0000
  H   H63       1.0  0.17021  0.77353  0.13987  1.0000
  H   H64       1.0  0.24248  0.84721  0.13926  1.0000
  H   H65       1.0  0.24342  0.90005  0.13972  1.0000
  C   C55       1.0  0.14743  0.89982  0.26428  1.0000
  C   C56       1.0  0.16362  0.91511  0.17584  1.0000
  H   H66       1.0  0.18619  0.93868  0.18228  1.0000
  H   H67       1.0  0.16967  0.89864  0.13933  1.0000
  H   H68       1.0  0.23423  0.64385  0.13443  1.0000
  H   H69       1.0  0.23331  0.59382  0.13449  1.0000
  H   H70       1.0  0.22838  0.69850  0.35224  1.0000
  C   C57       1.0  0.21518  0.80075  0.34661  1.0000
  H   H71       1.0  0.20243  0.81326  0.34515  1.0000
  C   C58       1.0  0.21607  0.91781  0.34659  1.0000
  C   C59       1.0  0.19821  0.93450  0.34842  1.0000
  C   C60       1.0  0.21595  0.96940  0.35118  1.0000
  H   H72       1.0  0.20356  0.89255  0.34511  1.0000
  H   H73       1.0  0.20189  0.98025  0.35227  1.0000
  C   C61       1.0  0.16264  0.75059  0.34784  1.0000
  C   C62       1.0  0.16158  0.74751  0.51905  1.0000
  H   H74       1.0  0.18396  0.74619  0.51231  1.0000
  H   H75       1.0  0.16766  0.76936  0.55908  1.0000
  H   H76       1.0  0.24329  0.83053  0.52566  1.0000
  H   H77       1.0  0.24748  0.90166  0.55888  1.0000
  C   C63       1.0  0.16325  0.91467  0.34763  1.0000
  C   C64       1.0  0.16394  0.91752  0.51707  1.0000
  H   H78       1.0  0.14962  0.90775  0.57844  1.0000
  H   H79       1.0  0.17067  0.94337  0.51378  1.0000
  H   H80       1.0  0.18628  0.91609  0.52568  1.0000
  H   H81       1.0  0.23393  0.66733  0.51364  1.0000
  H   H82       1.0  0.22894  0.59127  0.55654  1.0000
  C   C65       1.0  0.32253  0.24723  0.34855  1.0000
  C   C66       1.0  0.30442  0.26403  0.35036  1.0000
  H   H83       1.0  0.31824  0.28897  0.35069  1.0000
  C   C67       1.0  0.26962  0.07868  0.34849  1.0000
  C   C68       1.0  0.25280  0.04377  0.35034  1.0000
  C   C69       1.0  0.26742  0.46975  0.35026  1.0000
  C   C70       1.0  0.25061  0.43484  0.34853  1.0000
  H   H84       1.0  0.29236  0.48086  0.35052  1.0000
  C   C71       1.0  0.26589  0.36941  0.26423  1.0000
  C   C72       1.0  0.26652  0.40020  0.26436  1.0000
  C   C73       1.0  0.26499  0.35323  0.17578  1.0000
  H   H85       1.0  0.26596  0.33064  0.18224  1.0000
  H   H86       1.0  0.28615  0.36968  0.13453  1.0000
  C   C74       1.0  0.26622  0.41586  0.17603  1.0000
  H   H87       1.0  0.26828  0.43990  0.18277  1.0000
  H   H88       1.0  0.28702  0.41972  0.13446  1.0000
  C   C75       1.0  0.25441  0.14410  0.26424  1.0000
  C   C76       1.0  0.25380  0.11332  0.26443  1.0000
  C   C77       1.0  0.25535  0.16030  0.17577  1.0000
  H   H89       1.0  0.25437  0.18287  0.18218  1.0000
  H   H90       1.0  0.27789  0.16634  0.13935  1.0000
  C   C78       1.0  0.25411  0.09765  0.17609  1.0000
  H   H91       1.0  0.25203  0.07360  0.18283  1.0000
  H   H92       1.0  0.27691  0.11346  0.13983  1.0000
  C   C79       1.0  0.26913  0.24784  0.35115  1.0000
  C   C80       1.0  0.25330  0.21257  0.35119  1.0000
  C   C81       1.0  0.27046  0.19483  0.34838  1.0000
  C   C82       1.0  0.30501  0.21268  0.34654  1.0000
  H   H93       1.0  0.31776  0.20018  0.34511  1.0000
  C   C83       1.0  0.25105  0.26559  0.35115  1.0000
  C   C84       1.0  0.24972  0.31860  0.34844  1.0000
  C   C85       1.0  0.26689  0.30086  0.35114  1.0000
  H   H94       1.0  0.29181  0.31493  0.35215  1.0000
  C   C86       1.0  0.26899  0.02467  0.35109  1.0000
  C   C87       1.0  0.30427  0.04410  0.35109  1.0000
  C   C88       1.0  0.32202  0.07901  0.34836  1.0000
  C   C89       1.0  0.30417  0.09570  0.34653  1.0000
  H   H95       1.0  0.31833  0.03325  0.35209  1.0000
  H   H96       1.0  0.31668  0.12096  0.34507  1.0000
  C   C90       1.0  0.25123  0.48884  0.35110  1.0000
  C   C91       1.0  0.26620  0.41543  0.34763  1.0000
  C   C92       1.0  0.26805  0.40094  0.43084  1.0000
  C   C93       1.0  0.26717  0.36998  0.43087  1.0000
  C   C94       1.0  0.26488  0.35357  0.34751  1.0000
  C   C95       1.0  0.26706  0.35286  0.51699  1.0000
  H   H97       1.0  0.27163  0.36719  0.57835  1.0000
  H   H98       1.0  0.28616  0.34613  0.51365  1.0000
  C   C96       1.0  0.26932  0.41743  0.51884  1.0000
  H   H99       1.0  0.27064  0.44113  0.51214  1.0000
  H   H100      1.0  0.29126  0.42218  0.55638  1.0000
  C   C97       1.0  0.25402  0.09808  0.34784  1.0000
  C   C98       1.0  0.25213  0.11255  0.43102  1.0000
  C   C99       1.0  0.25296  0.14348  0.43102  1.0000
  C   C100      1.0  0.25528  0.15985  0.34759  1.0000
  C   C101      1.0  0.25305  0.16061  0.51707  1.0000
  H   H101      1.0  0.24845  0.14627  0.57843  1.0000
  H   H102      1.0  0.27680  0.18294  0.52577  1.0000
  C   C102      1.0  0.25090  0.09607  0.51900  1.0000
  H   H103      1.0  0.24964  0.07241  0.51228  1.0000
  H   H104      1.0  0.27273  0.11188  0.55905  1.0000
  C   C103      1.0  0.32253  0.74723  0.34855  1.0000
  C   C104      1.0  0.30442  0.76404  0.35036  1.0000
  H   H105      1.0  0.31824  0.78897  0.35069  1.0000
  C   C105      1.0  0.26962  0.57868  0.34849  1.0000
  C   C106      1.0  0.25280  0.54377  0.35034  1.0000
  C   C107      1.0  0.26742  0.96975  0.35026  1.0000
  C   C108      1.0  0.25061  0.93484  0.34853  1.0000
  H   H106      1.0  0.29236  0.98086  0.35052  1.0000
  C   C109      1.0  0.26589  0.86942  0.26423  1.0000
  C   C110      1.0  0.26652  0.90020  0.26436  1.0000
  C   C111      1.0  0.26499  0.85323  0.17578  1.0000
  H   H107      1.0  0.26596  0.83064  0.18224  1.0000
  H   H108      1.0  0.28615  0.86968  0.13453  1.0000
  C   C112      1.0  0.26622  0.91586  0.17603  1.0000
  H   H109      1.0  0.26828  0.93990  0.18277  1.0000
  H   H110      1.0  0.28702  0.91972  0.13446  1.0000
  C   C113      1.0  0.25441  0.64410  0.26424  1.0000
  C   C114      1.0  0.25380  0.61332  0.26443  1.0000
  C   C115      1.0  0.25535  0.66030  0.17577  1.0000
  H   H111      1.0  0.25437  0.68287  0.18218  1.0000
  H   H112      1.0  0.27789  0.66634  0.13935  1.0000
  C   C116      1.0  0.25411  0.59765  0.17609  1.0000
  H   H113      1.0  0.25203  0.57360  0.18283  1.0000
  H   H114      1.0  0.27691  0.61345  0.13983  1.0000
  C   C117      1.0  0.26913  0.74784  0.35115  1.0000
  C   C118      1.0  0.25330  0.71257  0.35119  1.0000
  C   C119      1.0  0.27046  0.69483  0.34838  1.0000
  C   C120      1.0  0.30501  0.71268  0.34654  1.0000
  H   H115      1.0  0.31776  0.70018  0.34511  1.0000
  C   C121      1.0  0.25105  0.76559  0.35115  1.0000
  C   C122      1.0  0.24973  0.81860  0.34844  1.0000
  C   C123      1.0  0.26689  0.80086  0.35114  1.0000
  H   H116      1.0  0.29181  0.81493  0.35215  1.0000
  C   C124      1.0  0.26899  0.52467  0.35109  1.0000
  C   C125      1.0  0.30427  0.54410  0.35109  1.0000
  C   C126      1.0  0.32202  0.57901  0.34836  1.0000
  C   C127      1.0  0.30417  0.59570  0.34653  1.0000
  H   H117      1.0  0.31833  0.53325  0.35209  1.0000
  H   H118      1.0  0.31668  0.62096  0.34507  1.0000
  C   C128      1.0  0.25123  0.98884  0.35110  1.0000
  C   C129      1.0  0.26620  0.91543  0.34763  1.0000
  C   C130      1.0  0.26805  0.90094  0.43084  1.0000
  C   C131      1.0  0.26717  0.86998  0.43087  1.0000
  C   C132      1.0  0.26488  0.85357  0.34751  1.0000
  C   C133      1.0  0.26706  0.85286  0.51699  1.0000
  H   H119      1.0  0.27163  0.86719  0.57835  1.0000
  H   H120      1.0  0.28616  0.84613  0.51365  1.0000
  C   C134      1.0  0.26932  0.91743  0.51884  1.0000
  H   H121      1.0  0.27064  0.94113  0.51214  1.0000
  H   H122      1.0  0.29126  0.92218  0.55638  1.0000
  C   C135      1.0  0.25401  0.59808  0.34784  1.0000
  C   C136      1.0  0.25213  0.61255  0.43102  1.0000
  C   C137      1.0  0.25296  0.64348  0.43102  1.0000
  C   C138      1.0  0.25528  0.65985  0.34759  1.0000
  C   C139      1.0  0.25305  0.66060  0.51707  1.0000
  H   H123      1.0  0.24845  0.64627  0.57843  1.0000
  H   H124      1.0  0.27680  0.68294  0.52577  1.0000
  C   C140      1.0  0.25090  0.59608  0.51900  1.0000
  H   H125      1.0  0.24964  0.57241  0.51228  1.0000
  H   H126      1.0  0.27273  0.61188  0.55905  1.0000
  C   C141      1.0  0.43819  0.19431  0.34851  1.0000
  C   C142      1.0  0.47310  0.21241  0.35022  1.0000
  H   H127      1.0  0.48422  0.19859  0.35039  1.0000
  C   C143      1.0  0.40315  0.26242  0.26434  1.0000
  C   C144      1.0  0.37298  0.26304  0.26443  1.0000
  C   C145      1.0  0.41842  0.26149  0.17588  1.0000
  H   H128      1.0  0.44199  0.26249  0.18230  1.0000
  H   H129      1.0  0.42309  0.28262  0.13455  1.0000
  H   H130      1.0  0.40193  0.23896  0.13943  1.0000
  C   C146      1.0  0.35700  0.26270  0.17609  1.0000
  H   H131      1.0  0.33503  0.26477  0.18280  1.0000
  H   H132      1.0  0.35001  0.23989  0.13986  1.0000
  H   H133      1.0  0.37395  0.28349  0.13445  1.0000
  C   C147      1.0  0.37278  0.11362  0.26410  1.0000
  C   C148      1.0  0.40355  0.14378  0.26423  1.0000
  C   C149      1.0  0.35658  0.09832  0.17567  1.0000
  H   H134      1.0  0.33402  0.07476  0.18216  1.0000
  H   H135      1.0  0.37305  0.09363  0.13440  1.0000
  H   H136      1.0  0.35054  0.11479  0.13915  1.0000
  C   C150      1.0  0.41921  0.15977  0.17591  1.0000
  H   H137      1.0  0.44324  0.18176  0.18267  1.0000
  H   H138      1.0  0.40338  0.16674  0.13964  1.0000
  H   H139      1.0  0.42307  0.14283  0.13431  1.0000
  C   C151      1.0  0.49220  0.24770  0.35113  1.0000
  C   C152      1.0  0.47275  0.26354  0.35128  1.0000
  C   C153      1.0  0.43785  0.24638  0.34844  1.0000
  C   C154      1.0  0.42116  0.21183  0.34655  1.0000
  H   H140      1.0  0.48360  0.28845  0.35247  1.0000
  H   H141      1.0  0.39591  0.19908  0.34509  1.0000
  C   C155      1.0  0.35754  0.26285  0.34781  1.0000
  C   C156      1.0  0.37385  0.26471  0.43105  1.0000
  C   C157      1.0  0.40393  0.26385  0.43107  1.0000
  C   C158      1.0  0.41802  0.26153  0.34772  1.0000
  C   C159      1.0  0.42094  0.26373  0.51714  1.0000
  H   H142      1.0  0.41118  0.26829  0.57851  1.0000
  H   H143      1.0  0.44678  0.28283  0.51381  1.0000
  H   H144      1.0  0.41951  0.23996  0.52578  1.0000
  C   C160      1.0  0.35860  0.26596  0.51902  1.0000
  H   H145      1.0  0.33622  0.26726  0.51226  1.0000
  H   H146      1.0  0.37577  0.28790  0.55659  1.0000
  H   H147      1.0  0.35253  0.24411  0.55906  1.0000
  C   C161      1.0  0.41878  0.15931  0.34753  1.0000
  C   C162      1.0  0.40429  0.14302  0.43081  1.0000
  C   C163      1.0  0.37334  0.11294  0.43088  1.0000
  C   C164      1.0  0.35700  0.09881  0.34745  1.0000
  C   C165      1.0  0.35620  0.09595  0.51699  1.0000
  H   H148      1.0  0.37051  0.10574  0.57837  1.0000
  H   H149      1.0  0.34951  0.07011  0.51374  1.0000
  H   H150      1.0  0.33385  0.09735  0.52556  1.0000
  C   C166      1.0  0.42079  0.15825  0.51880  1.0000
  H   H151      1.0  0.44450  0.18060  0.51210  1.0000
  H   H152      1.0  0.42552  0.14105  0.55639  1.0000
  H   H153      1.0  0.40503  0.16435  0.55881  1.0000
  C   C167      1.0  0.43819  0.69431  0.34851  1.0000
  C   C168      1.0  0.47310  0.71241  0.35022  1.0000
  H   H154      1.0  0.48422  0.69859  0.35039  1.0000
  C   C169      1.0  0.40315  0.76242  0.26434  1.0000
  C   C170      1.0  0.37298  0.76303  0.26443  1.0000
  C   C171      1.0  0.41842  0.76149  0.17588  1.0000
  H   H155      1.0  0.44199  0.76249  0.18230  1.0000
  H   H156      1.0  0.42309  0.78262  0.13455  1.0000
  H   H157      1.0  0.40193  0.73896  0.13943  1.0000
  C   C172      1.0  0.35700  0.76270  0.17609  1.0000
  H   H158      1.0  0.33503  0.76477  0.18280  1.0000
  H   H159      1.0  0.35001  0.73989  0.13986  1.0000
  H   H160      1.0  0.37395  0.78349  0.13445  1.0000
  C   C173      1.0  0.37278  0.61362  0.26410  1.0000
  C   C174      1.0  0.40355  0.64378  0.26423  1.0000
  C   C175      1.0  0.35659  0.59832  0.17567  1.0000
  H   H161      1.0  0.33402  0.57476  0.18216  1.0000
  H   H162      1.0  0.37305  0.59363  0.13440  1.0000
  H   H163      1.0  0.35054  0.61479  0.13915  1.0000
  C   C176      1.0  0.41921  0.65977  0.17591  1.0000
  H   H164      1.0  0.44324  0.68176  0.18267  1.0000
  H   H165      1.0  0.40338  0.66674  0.13964  1.0000
  H   H166      1.0  0.42307  0.64283  0.13431  1.0000
  C   C177      1.0  0.49220  0.74770  0.35113  1.0000
  C   C178      1.0  0.47275  0.76354  0.35128  1.0000
  C   C179      1.0  0.43785  0.74638  0.34844  1.0000
  C   C180      1.0  0.42116  0.71183  0.34655  1.0000
  H   H167      1.0  0.48360  0.78845  0.35247  1.0000
  H   H168      1.0  0.39591  0.69908  0.34509  1.0000
  C   C181      1.0  0.35755  0.76285  0.34781  1.0000
  C   C182      1.0  0.37385  0.76471  0.43105  1.0000
  C   C183      1.0  0.40393  0.76385  0.43107  1.0000
  C   C184      1.0  0.41802  0.76153  0.34772  1.0000
  C   C185      1.0  0.42094  0.76373  0.51714  1.0000
  H   H169      1.0  0.41118  0.76829  0.57851  1.0000
  H   H170      1.0  0.44678  0.78283  0.51381  1.0000
  H   H171      1.0  0.41951  0.73996  0.52578  1.0000
  C   C186      1.0  0.35860  0.76596  0.51902  1.0000
  H   H172      1.0  0.33622  0.76726  0.51226  1.0000
  H   H173      1.0  0.37577  0.78790  0.55659  1.0000
  H   H174      1.0  0.35253  0.74411  0.55906  1.0000
  C   C187      1.0  0.41879  0.65931  0.34753  1.0000
  C   C188      1.0  0.40429  0.64302  0.43081  1.0000
  C   C189      1.0  0.37334  0.61294  0.43088  1.0000
  C   C190      1.0  0.35700  0.59881  0.34745  1.0000
  C   C191      1.0  0.35620  0.59595  0.51699  1.0000
  H   H175      1.0  0.37051  0.60574  0.57837  1.0000
  H   H176      1.0  0.34951  0.57012  0.51374  1.0000
  H   H177      1.0  0.33385  0.59735  0.52556  1.0000
  C   C192      1.0  0.42079  0.65825  0.51880  1.0000
  H   H178      1.0  0.44450  0.68060  0.51210  1.0000
  H   H179      1.0  0.42552  0.64105  0.55639  1.0000
  H   H180      1.0  0.40503  0.66435  0.55881  1.0000
  C   C193      1.0  0.93819  0.19431  0.34851  1.0000
  C   C194      1.0  0.97310  0.21241  0.35022  1.0000
  H   H181      1.0  0.98422  0.19859  0.35039  1.0000
  C   C195      1.0  0.54712  0.30106  0.35028  1.0000
  C   C196      1.0  0.58203  0.31917  0.34857  1.0000
  H   H182      1.0  0.53600  0.31488  0.35047  1.0000
  C   C197      1.0  0.82253  0.24723  0.34855  1.0000
  C   C198      1.0  0.80442  0.26403  0.35036  1.0000
  H   H183      1.0  0.81824  0.28897  0.35069  1.0000
  C   C199      1.0  0.71576  0.24940  0.35039  1.0000
  C   C200      1.0  0.69765  0.26620  0.34859  1.0000
  H   H184      1.0  0.70194  0.22445  0.35073  1.0000
  C   C201      1.0  0.76962  0.07868  0.34849  1.0000
  C   C202      1.0  0.75280  0.04377  0.35034  1.0000
  H   H185      1.0  0.72786  0.03265  0.35072  1.0000
  C   C203      1.0  0.76742  0.46975  0.35026  1.0000
  C   C204      1.0  0.75061  0.43484  0.34853  1.0000
  H   H186      1.0  0.79237  0.48086  0.35052  1.0000
  C   C205      1.0  0.61706  0.25105  0.26429  1.0000
  C   C206      1.0  0.64721  0.25041  0.26443  1.0000
  C   C207      1.0  0.60180  0.25200  0.17583  1.0000
  H   H187      1.0  0.57824  0.25102  0.18226  1.0000
  H   H188      1.0  0.59711  0.23086  0.13449  1.0000
  H   H189      1.0  0.61831  0.27453  0.13941  1.0000
  C   C208      1.0  0.66319  0.25072  0.17611  1.0000
  H   H190      1.0  0.68515  0.24863  0.18286  1.0000
  H   H191      1.0  0.67021  0.27353  0.13987  1.0000
  H   H192      1.0  0.64623  0.22994  0.13449  1.0000
  C   C209      1.0  0.76589  0.36941  0.26423  1.0000
  C   C210      1.0  0.76652  0.40020  0.26436  1.0000
  C   C211      1.0  0.76499  0.35323  0.17578  1.0000
  H   H193      1.0  0.76596  0.33064  0.18224  1.0000
  H   H194      1.0  0.78615  0.36968  0.13453  1.0000
  H   H195      1.0  0.74248  0.34721  0.13926  1.0000
  C   C212      1.0  0.76622  0.41586  0.17603  1.0000
  H   H196      1.0  0.76828  0.43990  0.18277  1.0000
  H   H197      1.0  0.74342  0.40005  0.13972  1.0000
  H   H198      1.0  0.78702  0.41972  0.13446  1.0000
  C   C213      1.0  0.64743  0.39982  0.26428  1.0000
  C   C214      1.0  0.61665  0.36965  0.26433  1.0000
  C   C215      1.0  0.66362  0.41511  0.17584  1.0000
  H   H199      1.0  0.68619  0.43868  0.18228  1.0000
  H   H200      1.0  0.64716  0.41979  0.13456  1.0000
  H   H201      1.0  0.66967  0.39864  0.13933  1.0000
  C   C216      1.0  0.60101  0.35366  0.17599  1.0000
  H   H202      1.0  0.57698  0.33168  0.18274  1.0000
  H   H203      1.0  0.61684  0.34669  0.13975  1.0000
  H   H204      1.0  0.59715  0.37060  0.13437  1.0000
  C   C217      1.0  0.90315  0.26242  0.26434  1.0000
  C   C218      1.0  0.87299  0.26304  0.26443  1.0000
  C   C219      1.0  0.91842  0.26149  0.17588  1.0000
  H   H205      1.0  0.94199  0.26249  0.18230  1.0000
  H   H206      1.0  0.92309  0.28262  0.13455  1.0000
  H   H207      1.0  0.90193  0.23896  0.13943  1.0000
  C   C220      1.0  0.85700  0.26270  0.17609  1.0000
  H   H208      1.0  0.83503  0.26477  0.18280  1.0000
  H   H209      1.0  0.85001  0.23989  0.13986  1.0000
  H   H210      1.0  0.87395  0.28349  0.13445  1.0000
  C   C221      1.0  0.75441  0.14410  0.26424  1.0000
  C   C222      1.0  0.75380  0.11332  0.26443  1.0000
  C   C223      1.0  0.75535  0.16030  0.17577  1.0000
  H   H211      1.0  0.75437  0.18287  0.18218  1.0000
  H   H212      1.0  0.73423  0.14385  0.13443  1.0000
  H   H213      1.0  0.77789  0.16634  0.13935  1.0000
  C   C224      1.0  0.75411  0.09765  0.17609  1.0000
  H   H214      1.0  0.75203  0.07360  0.18283  1.0000
  H   H215      1.0  0.77691  0.11346  0.13983  1.0000
  H   H216      1.0  0.73331  0.09381  0.13449  1.0000
  C   C225      1.0  0.87278  0.11362  0.26410  1.0000
  C   C226      1.0  0.90355  0.14378  0.26423  1.0000
  C   C227      1.0  0.85658  0.09832  0.17567  1.0000
  H   H217      1.0  0.83401  0.07476  0.18216  1.0000
  H   H218      1.0  0.87305  0.09363  0.13440  1.0000
  H   H219      1.0  0.85054  0.11479  0.13915  1.0000
  C   C228      1.0  0.91921  0.15977  0.17591  1.0000
  H   H220      1.0  0.94324  0.18176  0.18267  1.0000
  H   H221      1.0  0.90338  0.16674  0.13964  1.0000
  H   H222      1.0  0.92307  0.14283  0.13431  1.0000
  C   C229      1.0  0.99220  0.24770  0.35113  1.0000
  C   C230      1.0  0.97275  0.26354  0.35128  1.0000
  C   C231      1.0  0.93785  0.24638  0.34844  1.0000
  C   C232      1.0  0.92116  0.21183  0.34655  1.0000
  H   H223      1.0  0.98360  0.28845  0.35247  1.0000
  H   H224      1.0  0.89591  0.19908  0.34509  1.0000
  C   C233      1.0  0.52802  0.26577  0.35114  1.0000
  C   C234      1.0  0.59906  0.30165  0.34657  1.0000
  C   C235      1.0  0.58237  0.26710  0.34846  1.0000
  C   C236      1.0  0.54747  0.24994  0.35126  1.0000
  H   H225      1.0  0.62432  0.31440  0.34513  1.0000
  H   H226      1.0  0.53662  0.22502  0.35238  1.0000
  C   C237      1.0  0.76913  0.24784  0.35115  1.0000
  C   C238      1.0  0.75330  0.21257  0.35119  1.0000
  C   C239      1.0  0.77046  0.19483  0.34838  1.0000
  C   C240      1.0  0.80501  0.21268  0.34654  1.0000
  H   H227      1.0  0.72838  0.19850  0.35224  1.0000
  H   H228      1.0  0.81776  0.20018  0.34511  1.0000
  C   C241      1.0  0.75105  0.26559  0.35115  1.0000
  C   C242      1.0  0.71518  0.30075  0.34661  1.0000
  C   C243      1.0  0.74972  0.31860  0.34844  1.0000
  C   C244      1.0  0.76689  0.30086  0.35114  1.0000
  H   H229      1.0  0.70243  0.31325  0.34515  1.0000
  H   H230      1.0  0.79181  0.31493  0.35215  1.0000
  C   C245      1.0  0.76899  0.02467  0.35109  1.0000
  C   C246      1.0  0.80427  0.04410  0.35109  1.0000
  C   C247      1.0  0.82202  0.07901  0.34836  1.0000
  C   C248      1.0  0.80417  0.09570  0.34653  1.0000
  H   H231      1.0  0.81833  0.03325  0.35209  1.0000
  H   H232      1.0  0.81668  0.12096  0.34507  1.0000
  C   C249      1.0  0.75123  0.48884  0.35110  1.0000
  C   C250      1.0  0.71607  0.41781  0.34659  1.0000
  C   C251      1.0  0.69821  0.43450  0.34842  1.0000
  C   C252      1.0  0.71595  0.46940  0.35118  1.0000
  H   H233      1.0  0.70356  0.39255  0.34511  1.0000
  H   H234      1.0  0.70188  0.48025  0.35227  1.0000
  C   C253      1.0  0.66264  0.25059  0.34784  1.0000
  C   C254      1.0  0.64634  0.24876  0.43108  1.0000
  C   C255      1.0  0.61627  0.24963  0.43108  1.0000
  C   C256      1.0  0.60219  0.25194  0.34767  1.0000
  C   C257      1.0  0.59925  0.24976  0.51715  1.0000
  H   H235      1.0  0.60902  0.24520  0.57853  1.0000
  H   H236      1.0  0.57341  0.23065  0.51381  1.0000
  H   H237      1.0  0.60068  0.27352  0.52578  1.0000
  C   C258      1.0  0.66158  0.24751  0.51905  1.0000
  H   H238      1.0  0.68396  0.24619  0.51231  1.0000
  H   H239      1.0  0.64440  0.22557  0.55663  1.0000
  H   H240      1.0  0.66766  0.26936  0.55908  1.0000
  C   C259      1.0  0.76620  0.41543  0.34763  1.0000
  C   C260      1.0  0.76805  0.40094  0.43084  1.0000
  C   C261      1.0  0.76718  0.36998  0.43087  1.0000
  C   C262      1.0  0.76488  0.35357  0.34751  1.0000
  C   C263      1.0  0.76706  0.35286  0.51699  1.0000
  H   H241      1.0  0.77163  0.36719  0.57835  1.0000
  H   H242      1.0  0.78616  0.34613  0.51365  1.0000
  H   H243      1.0  0.74329  0.33053  0.52566  1.0000
  C   C264      1.0  0.76932  0.41743  0.51884  1.0000
  H   H244      1.0  0.77064  0.44113  0.51214  1.0000
  H   H245      1.0  0.79126  0.42218  0.55638  1.0000
  H   H246      1.0  0.74747  0.40166  0.55888  1.0000
  C   C265      1.0  0.60142  0.35418  0.34765  1.0000
  C   C266      1.0  0.61586  0.37046  0.43094  1.0000
  C   C267      1.0  0.64681  0.40053  0.43097  1.0000
  C   C268      1.0  0.66324  0.41467  0.34763  1.0000
  C   C269      1.0  0.66394  0.41752  0.51707  1.0000
  H   H247      1.0  0.64962  0.40775  0.57844  1.0000
  H   H248      1.0  0.67067  0.44337  0.51378  1.0000
  H   H249      1.0  0.68628  0.41609  0.52568  1.0000
  C   C270      1.0  0.59935  0.35522  0.51891  1.0000
  H   H250      1.0  0.57565  0.33286  0.51217  1.0000
  H   H251      1.0  0.59461  0.37241  0.55648  1.0000
  H   H252      1.0  0.61511  0.34913  0.55896  1.0000
  C   C271      1.0  0.85754  0.26285  0.34781  1.0000
  C   C272      1.0  0.87385  0.26471  0.43105  1.0000
  C   C273      1.0  0.90393  0.26385  0.43107  1.0000
  C   C274      1.0  0.91802  0.26153  0.34772  1.0000
  C   C275      1.0  0.92094  0.26373  0.51714  1.0000
  H   H253      1.0  0.91118  0.26829  0.57851  1.0000
  H   H254      1.0  0.94678  0.28283  0.51381  1.0000
  H   H255      1.0  0.91951  0.23996  0.52578  1.0000
  C   C276      1.0  0.85860  0.26596  0.51902  1.0000
  H   H256      1.0  0.83622  0.26726  0.51226  1.0000
  H   H257      1.0  0.87577  0.28790  0.55659  1.0000
  H   H258      1.0  0.85253  0.24411  0.55906  1.0000
  C   C277      1.0  0.75401  0.09808  0.34784  1.0000
  C   C278      1.0  0.75213  0.11255  0.43102  1.0000
  C   C279      1.0  0.75296  0.14348  0.43102  1.0000
  C   C280      1.0  0.75528  0.15985  0.34759  1.0000
  C   C281      1.0  0.75305  0.16061  0.51707  1.0000
  H   H259      1.0  0.74846  0.14627  0.57843  1.0000
  H   H260      1.0  0.73394  0.16733  0.51364  1.0000
  H   H261      1.0  0.77680  0.18294  0.52577  1.0000
  C   C282      1.0  0.75090  0.09607  0.51900  1.0000
  H   H262      1.0  0.74964  0.07241  0.51228  1.0000
  H   H263      1.0  0.72894  0.09127  0.55654  1.0000
  H   H264      1.0  0.77273  0.11188  0.55905  1.0000
  C   C283      1.0  0.91878  0.15931  0.34753  1.0000
  C   C284      1.0  0.90429  0.14302  0.43081  1.0000
  C   C285      1.0  0.87334  0.11294  0.43088  1.0000
  C   C286      1.0  0.85700  0.09881  0.34745  1.0000
  C   C287      1.0  0.85620  0.09595  0.51699  1.0000
  H   H265      1.0  0.87051  0.10574  0.57837  1.0000
  H   H266      1.0  0.84951  0.07011  0.51374  1.0000
  H   H267      1.0  0.83385  0.09735  0.52556  1.0000
  C   C288      1.0  0.92079  0.15825  0.51880  1.0000
  H   H268      1.0  0.94450  0.18060  0.51210  1.0000
  H   H269      1.0  0.92552  0.14105  0.55639  1.0000
  H   H270      1.0  0.90503  0.16435  0.55881  1.0000
  C   C289      1.0  0.93819  0.69431  0.34851  1.0000
  C   C290      1.0  0.97310  0.71241  0.35022  1.0000
  H   H271      1.0  0.98422  0.69859  0.35039  1.0000
  C   C291      1.0  0.54712  0.80106  0.35028  1.0000
  C   C292      1.0  0.58203  0.81917  0.34857  1.0000
  H   H272      1.0  0.53600  0.81488  0.35047  1.0000
  C   C293      1.0  0.82253  0.74723  0.34855  1.0000
  C   C294      1.0  0.80442  0.76404  0.35036  1.0000
  H   H273      1.0  0.81824  0.78897  0.35069  1.0000
  C   C295      1.0  0.71576  0.74940  0.35039  1.0000
  C   C296      1.0  0.69765  0.76620  0.34859  1.0000
  H   H274      1.0  0.70194  0.72445  0.35073  1.0000
  C   C297      1.0  0.76962  0.57868  0.34849  1.0000
  C   C298      1.0  0.75280  0.54377  0.35034  1.0000
  H   H275      1.0  0.72786  0.53265  0.35072  1.0000
  C   C299      1.0  0.76742  0.96975  0.35026  1.0000
  C   C300      1.0  0.75061  0.93484  0.34853  1.0000
  H   H276      1.0  0.79237  0.98086  0.35052  1.0000
  C   C301      1.0  0.61706  0.75105  0.26429  1.0000
  C   C302      1.0  0.64721  0.75041  0.26443  1.0000
  C   C303      1.0  0.60180  0.75199  0.17583  1.0000
  H   H277      1.0  0.57824  0.75102  0.18226  1.0000
  H   H278      1.0  0.59711  0.73086  0.13449  1.0000
  H   H279      1.0  0.61831  0.77453  0.13941  1.0000
  C   C304      1.0  0.66319  0.75072  0.17611  1.0000
  H   H280      1.0  0.68515  0.74863  0.18286  1.0000
  H   H281      1.0  0.67021  0.77353  0.13987  1.0000
  H   H282      1.0  0.64623  0.72994  0.13449  1.0000
  C   C305      1.0  0.76589  0.86942  0.26423  1.0000
  C   C306      1.0  0.76652  0.90020  0.26436  1.0000
  C   C307      1.0  0.76499  0.85323  0.17578  1.0000
  H   H283      1.0  0.76596  0.83064  0.18224  1.0000
  H   H284      1.0  0.78615  0.86968  0.13453  1.0000
  H   H285      1.0  0.74248  0.84721  0.13926  1.0000
  C   C308      1.0  0.76622  0.91586  0.17603  1.0000
  H   H286      1.0  0.76828  0.93990  0.18277  1.0000
  H   H287      1.0  0.74342  0.90005  0.13972  1.0000
  H   H288      1.0  0.78702  0.91972  0.13446  1.0000
  C   C309      1.0  0.64743  0.89982  0.26428  1.0000
  C   C310      1.0  0.61666  0.86965  0.26433  1.0000
  C   C311      1.0  0.66362  0.91511  0.17584  1.0000
  H   H289      1.0  0.68619  0.93868  0.18228  1.0000
  H   H290      1.0  0.64715  0.91979  0.13456  1.0000
  H   H291      1.0  0.66967  0.89864  0.13933  1.0000
  C   C312      1.0  0.60101  0.85366  0.17599  1.0000
  H   H292      1.0  0.57698  0.83168  0.18274  1.0000
  H   H293      1.0  0.61684  0.84669  0.13975  1.0000
  H   H294      1.0  0.59715  0.87060  0.13437  1.0000
  C   C313      1.0  0.90315  0.76242  0.26434  1.0000
  C   C314      1.0  0.87299  0.76303  0.26443  1.0000
  C   C315      1.0  0.91842  0.76149  0.17588  1.0000
  H   H295      1.0  0.94199  0.76249  0.18230  1.0000
  H   H296      1.0  0.92309  0.78262  0.13455  1.0000
  H   H297      1.0  0.90193  0.73896  0.13943  1.0000
  C   C316      1.0  0.85700  0.76270  0.17609  1.0000
  H   H298      1.0  0.83503  0.76477  0.18280  1.0000
  H   H299      1.0  0.85001  0.73989  0.13986  1.0000
  H   H300      1.0  0.87395  0.78349  0.13445  1.0000
  C   C317      1.0  0.75441  0.64410  0.26424  1.0000
  C   C318      1.0  0.75380  0.61332  0.26443  1.0000
  C   C319      1.0  0.75535  0.66030  0.17577  1.0000
  H   H301      1.0  0.75437  0.68287  0.18218  1.0000
  H   H302      1.0  0.73423  0.64385  0.13443  1.0000
  H   H303      1.0  0.77789  0.66634  0.13935  1.0000
  C   C320      1.0  0.75411  0.59765  0.17609  1.0000
  H   H304      1.0  0.75203  0.57360  0.18283  1.0000
  H   H305      1.0  0.77691  0.61345  0.13983  1.0000
  H   H306      1.0  0.73331  0.59382  0.13449  1.0000
  C   C321      1.0  0.87278  0.61362  0.26410  1.0000
  C   C322      1.0  0.90355  0.64378  0.26423  1.0000
  C   C323      1.0  0.85658  0.59832  0.17567  1.0000
  H   H307      1.0  0.83401  0.57476  0.18216  1.0000
  H   H308      1.0  0.87305  0.59363  0.13440  1.0000
  H   H309      1.0  0.85054  0.61479  0.13915  1.0000
  C   C324      1.0  0.91921  0.65977  0.17591  1.0000
  H   H310      1.0  0.94324  0.68176  0.18267  1.0000
  H   H311      1.0  0.90338  0.66674  0.13964  1.0000
  H   H312      1.0  0.92307  0.64283  0.13431  1.0000
  C   C325      1.0  0.99220  0.74770  0.35113  1.0000
  C   C326      1.0  0.97275  0.76354  0.35128  1.0000
  C   C327      1.0  0.93785  0.74638  0.34844  1.0000
  C   C328      1.0  0.92116  0.71183  0.34655  1.0000
  H   H313      1.0  0.98360  0.78845  0.35247  1.0000
  H   H314      1.0  0.89591  0.69908  0.34509  1.0000
  C   C329      1.0  0.52802  0.76577  0.35114  1.0000
  C   C330      1.0  0.59906  0.80165  0.34657  1.0000
  C   C331      1.0  0.58237  0.76710  0.34846  1.0000
  C   C332      1.0  0.54747  0.74994  0.35126  1.0000
  H   H315      1.0  0.62432  0.81440  0.34513  1.0000
  H   H316      1.0  0.53662  0.72502  0.35238  1.0000
  C   C333      1.0  0.76913  0.74784  0.35115  1.0000
  C   C334      1.0  0.75330  0.71257  0.35119  1.0000
  C   C335      1.0  0.77046  0.69483  0.34838  1.0000
  C   C336      1.0  0.80501  0.71268  0.34654  1.0000
  H   H317      1.0  0.72838  0.69850  0.35224  1.0000
  H   H318      1.0  0.81776  0.70018  0.34511  1.0000
  C   C337      1.0  0.75105  0.76559  0.35115  1.0000
  C   C338      1.0  0.71518  0.80075  0.34661  1.0000
  C   C339      1.0  0.74972  0.81860  0.34844  1.0000
  C   C340      1.0  0.76689  0.80086  0.35114  1.0000
  H   H319      1.0  0.70243  0.81326  0.34515  1.0000
  H   H320      1.0  0.79181  0.81493  0.35215  1.0000
  C   C341      1.0  0.76899  0.52467  0.35109  1.0000
  C   C342      1.0  0.80427  0.54410  0.35109  1.0000
  C   C343      1.0  0.82202  0.57901  0.34836  1.0000
  C   C344      1.0  0.80417  0.59570  0.34653  1.0000
  H   H321      1.0  0.81833  0.53325  0.35209  1.0000
  H   H322      1.0  0.81668  0.62096  0.34507  1.0000
  C   C345      1.0  0.75123  0.98884  0.35110  1.0000
  C   C346      1.0  0.71607  0.91781  0.34659  1.0000
  C   C347      1.0  0.69821  0.93450  0.34842  1.0000
  C   C348      1.0  0.71595  0.96940  0.35118  1.0000
  H   H323      1.0  0.70356  0.89255  0.34511  1.0000
  H   H324      1.0  0.70188  0.98025  0.35227  1.0000
  C   C349      1.0  0.66264  0.75059  0.34784  1.0000
  C   C350      1.0  0.64634  0.74876  0.43108  1.0000
  C   C351      1.0  0.61627  0.74964  0.43108  1.0000
  C   C352      1.0  0.60219  0.75194  0.34767  1.0000
  C   C353      1.0  0.59925  0.74976  0.51715  1.0000
  H   H325      1.0  0.60902  0.74521  0.57853  1.0000
  H   H326      1.0  0.57341  0.73065  0.51381  1.0000
  H   H327      1.0  0.60068  0.77353  0.52578  1.0000
  C   C354      1.0  0.66158  0.74751  0.51905  1.0000
  H   H328      1.0  0.68396  0.74619  0.51231  1.0000
  H   H329      1.0  0.64440  0.72557  0.55663  1.0000
  H   H330      1.0  0.66766  0.76936  0.55908  1.0000
  C   C355      1.0  0.76620  0.91543  0.34763  1.0000
  C   C356      1.0  0.76806  0.90094  0.43084  1.0000
  C   C357      1.0  0.76718  0.86998  0.43087  1.0000
  C   C358      1.0  0.76488  0.85357  0.34751  1.0000
  C   C359      1.0  0.76706  0.85286  0.51699  1.0000
  H   H331      1.0  0.77163  0.86719  0.57835  1.0000
  H   H332      1.0  0.78616  0.84613  0.51365  1.0000
  H   H333      1.0  0.74329  0.83053  0.52566  1.0000
  C   C360      1.0  0.76932  0.91743  0.51884  1.0000
  H   H334      1.0  0.77064  0.94113  0.51214  1.0000
  H   H335      1.0  0.79126  0.92218  0.55638  1.0000
  H   H336      1.0  0.74747  0.90166  0.55888  1.0000
  C   C361      1.0  0.60142  0.85418  0.34765  1.0000
  C   C362      1.0  0.61586  0.87046  0.43094  1.0000
  C   C363      1.0  0.64681  0.90053  0.43097  1.0000
  C   C364      1.0  0.66324  0.91467  0.34763  1.0000
  C   C365      1.0  0.66394  0.91752  0.51707  1.0000
  H   H337      1.0  0.64962  0.90775  0.57844  1.0000
  H   H338      1.0  0.67067  0.94337  0.51378  1.0000
  H   H339      1.0  0.68628  0.91609  0.52568  1.0000
  C   C366      1.0  0.59935  0.85522  0.51891  1.0000
  H   H340      1.0  0.57565  0.83286  0.51217  1.0000
  H   H341      1.0  0.59461  0.87241  0.55648  1.0000
  H   H342      1.0  0.61511  0.84913  0.55896  1.0000
  C   C367      1.0  0.85754  0.76285  0.34781  1.0000
  C   C368      1.0  0.87385  0.76471  0.43105  1.0000
  C   C369      1.0  0.90393  0.76385  0.43107  1.0000
  C   C370      1.0  0.91802  0.76153  0.34772  1.0000
  C   C371      1.0  0.92094  0.76373  0.51714  1.0000
  H   H343      1.0  0.91118  0.76829  0.57851  1.0000
  H   H344      1.0  0.94678  0.78283  0.51381  1.0000
  H   H345      1.0  0.91951  0.73996  0.52578  1.0000
  C   C372      1.0  0.85860  0.76596  0.51902  1.0000
  H   H346      1.0  0.83622  0.76726  0.51226  1.0000
  H   H347      1.0  0.87577  0.78790  0.55659  1.0000
  H   H348      1.0  0.85253  0.74411  0.55906  1.0000
  C   C373      1.0  0.75401  0.59808  0.34784  1.0000
  C   C374      1.0  0.75213  0.61255  0.43102  1.0000
  C   C375      1.0  0.75296  0.64348  0.43102  1.0000
  C   C376      1.0  0.75528  0.65985  0.34759  1.0000
  C   C377      1.0  0.75304  0.66060  0.51707  1.0000
  H   H349      1.0  0.74846  0.64627  0.57843  1.0000
  H   H350      1.0  0.73394  0.66733  0.51364  1.0000
  H   H351      1.0  0.77680  0.68294  0.52577  1.0000
  C   C378      1.0  0.75090  0.59608  0.51900  1.0000
  H   H352      1.0  0.74964  0.57241  0.51228  1.0000
  H   H353      1.0  0.72894  0.59127  0.55654  1.0000
  H   H354      1.0  0.77273  0.61188  0.55905  1.0000
  C   C379      1.0  0.91878  0.65931  0.34753  1.0000
  C   C380      1.0  0.90429  0.64302  0.43081  1.0000
  C   C381      1.0  0.87334  0.61294  0.43088  1.0000
  C   C382      1.0  0.85700  0.59881  0.34745  1.0000
  C   C383      1.0  0.85620  0.59595  0.51699  1.0000
  H   H355      1.0  0.87051  0.60574  0.57837  1.0000
  H   H356      1.0  0.84951  0.57012  0.51374  1.0000
  H   H357      1.0  0.83385  0.59735  0.52556  1.0000
  C   C384      1.0  0.92079  0.65825  0.51880  1.0000
  H   H358      1.0  0.94450  0.68060  0.51210  1.0000
  H   H359      1.0  0.92552  0.64105  0.55639  1.0000
  H   H360      1.0  0.90503  0.66435  0.55881  1.0000
