data_image0
_chemical_formula_structural       NC3H3C2H2CNC2HC2H2C2H2C2H3NC3H3NC3H3NC3H3NC3H3NC3H3NC4H3NC3H3NC3H3C3H3NC3H3N2C3H3NC3H3NC3H3NC3H3NC3H3NC3H3NCNCNCNC15H10CNCNCNC18H12CNCNCNC15H10CNCNCNC18H12CNCNCNC18H12CNCNCNC18H12CNCNCNC18H12CNCNCNC18H12CNCNCNC18H12CNCNCNC18H12CNCNCNC18H12CNCNCNC18H12C3H3NC3H3NC3H3NC3H3NC3H3NC3H3NC2H3NC3H3NCNC2H3NC3H3NC3H3C3H3NC3H3NC3H3NC3H3NC3H3NC3H3NC
_chemical_formula_sum              "N72 C360 H252"
_cell_length_a       74.1491
_cell_length_b       74.1492
_cell_length_c       14.979
_cell_angle_alpha    90
_cell_angle_beta     90
_cell_angle_gamma    120

_space_group_name_H-M_alt    "P 1"
_space_group_IT_number       1

loop_
  _space_group_symop_operation_xyz
  'x, y, z'

loop_
  _atom_site_type_symbol
  _atom_site_label
  _atom_site_symmetry_multiplicity
  _atom_site_fract_x
  _atom_site_fract_y
  _atom_site_fract_z
  _atom_site_occupancy
  N   N1        1.0  0.00797  0.79926  0.26076  1.0000
  C   C1        1.0  0.01828  0.20079  0.33183  1.0000
  C   C2        1.0  0.00631  0.19485  0.25242  1.0000
  C   C3        1.0  0.01553  0.19951  0.16201  1.0000
  H   H1        1.0  0.02516  0.21632  0.15319  1.0000
  H   H2        1.0  0.00349  0.19352  0.11053  1.0000
  H   H3        1.0  0.02516  0.19234  0.15287  1.0000
  C   C4        1.0  0.01474  0.80263  0.51137  1.0000
  C   C5        1.0  0.00624  0.79841  0.41961  1.0000
  H   H4        1.0  0.00931  0.81187  0.54683  1.0000
  H   H5        1.0  0.00926  0.78792  0.54668  1.0000
  C   C6        1.0  0.01822  0.80441  0.34009  1.0000
  N   N2        1.0  0.00803  0.19567  0.41114  1.0000
  C   C7        1.0  0.04025  0.21171  0.33328  1.0000
  C   C8        1.0  0.04018  0.81546  0.33771  1.0000
  H   H6        1.0  0.03171  0.81108  0.51276  1.0000
  C   C9        1.0  0.05133  0.20082  0.33390  1.0000
  C   C10       1.0  0.05147  0.23366  0.33379  1.0000
  H   H7        1.0  0.04353  0.18488  0.33354  1.0000
  H   H8        1.0  0.04377  0.24190  0.33334  1.0000
  C   C11       1.0  0.05138  0.80471  0.33648  1.0000
  C   C12       1.0  0.05126  0.83741  0.33703  1.0000
  H   H9        1.0  0.04368  0.78877  0.33704  1.0000
  H   H10       1.0  0.04346  0.84556  0.33796  1.0000
  C   C13       1.0  0.20359  0.40571  0.15789  1.0000
  C   C14       1.0  0.19932  0.39720  0.24963  1.0000
  H   H11       1.0  0.21284  0.40027  0.12254  1.0000
  H   H12       1.0  0.21206  0.42269  0.15653  1.0000
  H   H13       1.0  0.18890  0.40025  0.12245  1.0000
  N   N3        1.0  0.18879  0.37612  0.25807  1.0000
  C   C15       1.0  0.20528  0.40916  0.32920  1.0000
  C   C16       1.0  0.58267  0.78484  0.15789  1.0000
  C   C17       1.0  0.59118  0.78909  0.24963  1.0000
  H   H14       1.0  0.58811  0.79953  0.12254  1.0000
  H   H15       1.0  0.56569  0.77634  0.15653  1.0000
  H   H16       1.0  0.58813  0.77562  0.12245  1.0000
  N   N4        1.0  0.61227  0.79964  0.25807  1.0000
  C   C18       1.0  0.57922  0.78309  0.32920  1.0000
  C   C19       1.0  0.20352  0.78478  0.15788  1.0000
  C   C20       1.0  0.19926  0.78904  0.24963  1.0000
  H   H17       1.0  0.18882  0.77553  0.12252  1.0000
  H   H18       1.0  0.21201  0.77630  0.15652  1.0000
  H   H19       1.0  0.21274  0.79947  0.12246  1.0000
  N   N5        1.0  0.18872  0.79958  0.25807  1.0000
  C   C21       1.0  0.20526  0.78307  0.32919  1.0000
  C   C22       1.0  0.78960  0.57785  0.15789  1.0000
  C   C23       1.0  0.79387  0.58637  0.24963  1.0000
  H   H20       1.0  0.78035  0.58329  0.12254  1.0000
  H   H21       1.0  0.78113  0.56088  0.15653  1.0000
  H   H22       1.0  0.80429  0.58332  0.12245  1.0000
  N   N6        1.0  0.80440  0.60745  0.25807  1.0000
  C   C24       1.0  0.78790  0.57440  0.32920  1.0000
  C   C25       1.0  0.41052  0.19871  0.15789  1.0000
  C   C26       1.0  0.40200  0.19446  0.24963  1.0000
  H   H23       1.0  0.40507  0.18401  0.12253  1.0000
  H   H24       1.0  0.42749  0.20721  0.15652  1.0000
  H   H25       1.0  0.40505  0.20794  0.12246  1.0000
  N   N7        1.0  0.38092  0.18391  0.25807  1.0000
  C   C27       1.0  0.41397  0.20046  0.32920  1.0000
  C   C28       1.0  0.78965  0.19877  0.15789  1.0000
  C   C29       1.0  0.79390  0.19450  0.24964  1.0000
  H   H26       1.0  0.80434  0.20802  0.12254  1.0000
  H   H27       1.0  0.78115  0.20724  0.15653  1.0000
  H   H28       1.0  0.78043  0.18408  0.12245  1.0000
  N   N8        1.0  0.80445  0.18397  0.25808  1.0000
  C   C30       1.0  0.78790  0.20046  0.32920  1.0000
  C   C31       1.0  0.20560  0.17910  0.33183  1.0000
  C   C32       1.0  0.19966  0.18514  0.25242  1.0000
  C   C33       1.0  0.20432  0.18057  0.16200  1.0000
  H   H29       1.0  0.22113  0.18774  0.15319  1.0000
  H   H30       1.0  0.19833  0.18662  0.11053  1.0000
  H   H31       1.0  0.19715  0.16377  0.15287  1.0000
  N   N9        1.0  0.18911  0.19567  0.26076  1.0000
  C   C34       1.0  0.80927  0.01347  0.33182  1.0000
  C   C35       1.0  0.80324  0.00150  0.25242  1.0000
  C   C36       1.0  0.80781  0.01072  0.16200  1.0000
  H   H32       1.0  0.80063  0.02035  0.15319  1.0000
  H   H33       1.0  0.80176  0.99868  0.11052  1.0000
  H   H34       1.0  0.82461  0.02035  0.15287  1.0000
  N   N10       1.0  0.79270  0.98040  0.26076  1.0000
  C   C37       1.0  0.97490  0.78277  0.33182  1.0000
  C   C38       1.0  0.98688  0.78871  0.25242  1.0000
  C   C39       1.0  0.97765  0.78405  0.16200  1.0000
  H   H35       1.0  0.96802  0.76724  0.15319  1.0000
  H   H36       1.0  0.98969  0.79004  0.11052  1.0000
  H   H37       1.0  0.96802  0.79122  0.15287  1.0000
  C   C40       1.0  0.78758  0.80446  0.33182  1.0000
  C   C41       1.0  0.79353  0.79843  0.25242  1.0000
  C   C42       1.0  0.78887  0.80299  0.16200  1.0000
  H   H38       1.0  0.77206  0.79582  0.15319  1.0000
  H   H39       1.0  0.79486  0.79694  0.11053  1.0000
  H   H40       1.0  0.79604  0.81979  0.15287  1.0000
  N   N11       1.0  0.80407  0.78788  0.26076  1.0000
  C   C43       1.0  0.18391  0.97009  0.33183  1.0000
  C   C44       1.0  0.18994  0.98207  0.25242  1.0000
  C   C45       1.0  0.18538  0.97284  0.16201  1.0000
  H   H41       1.0  0.19255  0.96321  0.15319  1.0000
  H   H42       1.0  0.19143  0.98488  0.11053  1.0000
  H   H43       1.0  0.16858  0.96321  0.15287  1.0000
  N   N12       1.0  0.20048  0.00316  0.26076  1.0000
  N   N13       1.0  0.98522  0.18430  0.26076  1.0000
  C   C46       1.0  0.21168  0.58051  0.33327  1.0000
  C   C47       1.0  0.21085  0.59037  0.25353  1.0000
  C   C48       1.0  0.21209  0.58295  0.16331  1.0000
  H   H44       1.0  0.22673  0.58299  0.15532  1.0000
  H   H45       1.0  0.21124  0.59288  0.11155  1.0000
  H   H46       1.0  0.19915  0.56715  0.15367  1.0000
  N   N14       1.0  0.21137  0.60889  0.26122  1.0000
  C   C49       1.0  0.40780  0.61813  0.33365  1.0000
  C   C50       1.0  0.39799  0.60749  0.25374  1.0000
  C   C51       1.0  0.40543  0.61616  0.16355  1.0000
  H   H47       1.0  0.40539  0.63076  0.15552  1.0000
  H   H48       1.0  0.39554  0.60538  0.11173  1.0000
  H   H49       1.0  0.42125  0.61904  0.15402  1.0000
  N   N15       1.0  0.37948  0.58947  0.26129  1.0000
  C   C52       1.0  0.37020  0.77666  0.33351  1.0000
  C   C53       1.0  0.38086  0.77753  0.25363  1.0000
  C   C54       1.0  0.37221  0.77637  0.16346  1.0000
  H   H50       1.0  0.35759  0.76174  0.15534  1.0000
  H   H51       1.0  0.38297  0.77725  0.11161  1.0000
  H   H52       1.0  0.36935  0.78932  0.15409  1.0000
  N   N16       1.0  0.39886  0.77699  0.26107  1.0000
  C   C55       1.0  0.78149  0.40303  0.33360  1.0000
  C   C56       1.0  0.78233  0.39324  0.25371  1.0000
  C   C57       1.0  0.78107  0.40064  0.16349  1.0000
  H   H53       1.0  0.76642  0.40059  0.15551  1.0000
  H   H54       1.0  0.78193  0.39072  0.11173  1.0000
  H   H55       1.0  0.79399  0.41645  0.15383  1.0000
  N   N17       1.0  0.78179  0.37471  0.26141  1.0000
  C   C58       1.0  0.58529  0.36541  0.33328  1.0000
  C   C59       1.0  0.59515  0.37609  0.25356  1.0000
  C   C60       1.0  0.58775  0.36744  0.16333  1.0000
  H   H56       1.0  0.58777  0.35282  0.15534  1.0000
  H   H57       1.0  0.59769  0.37821  0.11159  1.0000
  H   H58       1.0  0.57195  0.36458  0.15364  1.0000
  N   N18       1.0  0.61369  0.39407  0.26132  1.0000
  C   C61       1.0  0.62296  0.20694  0.33365  1.0000
  C   C62       1.0  0.61231  0.20609  0.25375  1.0000
  C   C63       1.0  0.62097  0.20732  0.16355  1.0000
  H   H59       1.0  0.63557  0.22197  0.15551  1.0000
  H   H60       1.0  0.61020  0.20644  0.11174  1.0000
  H   H61       1.0  0.62386  0.19439  0.15403  1.0000
  N   N19       1.0  0.59429  0.20658  0.26130  1.0000
  C   C64       1.0  0.13932  0.24489  0.33435  1.0000
  N   N20       1.0  0.14940  0.26607  0.33415  1.0000
  C   C65       1.0  0.13932  0.27716  0.33395  1.0000
  N   N21       1.0  0.11815  0.26607  0.33406  1.0000
  C   C66       1.0  0.10705  0.24489  0.33429  1.0000
  N   N22       1.0  0.11814  0.23480  0.33445  1.0000
  C   C67       1.0  0.15044  0.29941  0.33409  1.0000
  C   C68       1.0  0.17253  0.31088  0.33419  1.0000
  C   C69       1.0  0.18352  0.33279  0.33496  1.0000
  C   C70       1.0  0.17269  0.34392  0.33584  1.0000
  C   C71       1.0  0.15073  0.33278  0.33525  1.0000
  C   C72       1.0  0.13981  0.31087  0.33446  1.0000
  C   C73       1.0  0.15051  0.23383  0.33493  1.0000
  C   C74       1.0  0.17261  0.24451  0.33517  1.0000
  C   C75       1.0  0.18366  0.23365  0.33648  1.0000
  C   C76       1.0  0.17291  0.21170  0.33771  1.0000
  C   C77       1.0  0.15096  0.20082  0.33703  1.0000
  C   C78       1.0  0.13996  0.21174  0.33570  1.0000
  C   C79       1.0  0.08479  0.23383  0.33435  1.0000
  C   C80       1.0  0.07325  0.21174  0.33435  1.0000
  C   C81       1.0  0.07338  0.24451  0.33423  1.0000
  H   H62       1.0  0.19961  0.24189  0.33703  1.0000
  H   H63       1.0  0.18102  0.26043  0.33469  1.0000
  H   H64       1.0  0.14281  0.18487  0.33796  1.0000
  H   H65       1.0  0.12404  0.20325  0.33560  1.0000
  H   H66       1.0  0.08067  0.20325  0.33443  1.0000
  H   H67       1.0  0.08089  0.26044  0.33424  1.0000
  H   H68       1.0  0.12389  0.30340  0.33441  1.0000
  H   H69       1.0  0.14254  0.34053  0.33583  1.0000
  H   H70       1.0  0.19946  0.34055  0.33532  1.0000
  H   H71       1.0  0.18099  0.30341  0.33391  1.0000
  C   C82       1.0  0.74349  0.88140  0.33435  1.0000
  N   N23       1.0  0.72231  0.87031  0.33415  1.0000
  C   C83       1.0  0.71122  0.84913  0.33394  1.0000
  N   N24       1.0  0.72231  0.83905  0.33405  1.0000
  C   C84       1.0  0.74349  0.84913  0.33429  1.0000
  N   N25       1.0  0.75358  0.87031  0.33445  1.0000
  C   C85       1.0  0.68898  0.83801  0.33408  1.0000
  C   C86       1.0  0.67750  0.84862  0.33418  1.0000
  C   C87       1.0  0.65559  0.83769  0.33496  1.0000
  C   C88       1.0  0.64446  0.81574  0.33583  1.0000
  C   C89       1.0  0.65560  0.80492  0.33523  1.0000
  C   C90       1.0  0.67751  0.81592  0.33445  1.0000
  C   C91       1.0  0.75455  0.90366  0.33494  1.0000
  C   C92       1.0  0.74387  0.91507  0.33518  1.0000
  C   C93       1.0  0.75473  0.93699  0.33649  1.0000
  C   C94       1.0  0.77668  0.94819  0.33772  1.0000
  C   C95       1.0  0.78756  0.93712  0.33704  1.0000
  C   C96       1.0  0.77664  0.91519  0.33571  1.0000
  C   C97       1.0  0.75455  0.83794  0.33435  1.0000
  C   C98       1.0  0.77663  0.84848  0.33434  1.0000
  C   C99       1.0  0.78755  0.83748  0.33389  1.0000
  C   C100      1.0  0.77667  0.81552  0.33328  1.0000
  C   C101      1.0  0.75472  0.80478  0.33380  1.0000
  C   C102      1.0  0.74386  0.81584  0.33424  1.0000
  H   H72       1.0  0.74649  0.94469  0.33702  1.0000
  H   H73       1.0  0.72795  0.90756  0.33469  1.0000
  H   H74       1.0  0.80351  0.94491  0.33797  1.0000
  H   H75       1.0  0.78513  0.90777  0.33561  1.0000
  H   H76       1.0  0.78513  0.86440  0.33442  1.0000
  H   H77       1.0  0.80350  0.84562  0.33352  1.0000
  H   H78       1.0  0.72794  0.80743  0.33425  1.0000
  H   H79       1.0  0.74647  0.78883  0.33335  1.0000
  H   H80       1.0  0.68498  0.80747  0.33439  1.0000
  H   H81       1.0  0.64785  0.78898  0.33581  1.0000
  H   H82       1.0  0.64783  0.84588  0.33533  1.0000
  H   H83       1.0  0.68497  0.86454  0.33392  1.0000
  C   C103      1.0  0.10697  0.84905  0.33435  1.0000
  N   N26       1.0  0.11806  0.83897  0.33415  1.0000
  C   C104      1.0  0.13924  0.84905  0.33395  1.0000
  N   N27       1.0  0.14932  0.87023  0.33406  1.0000
  C   C105      1.0  0.13924  0.88133  0.33429  1.0000
  N   N28       1.0  0.11806  0.87024  0.33445  1.0000
  C   C106      1.0  0.15036  0.83793  0.33409  1.0000
  C   C107      1.0  0.13974  0.81584  0.33419  1.0000
  C   C108      1.0  0.15067  0.80486  0.33496  1.0000
  C   C109      1.0  0.17262  0.81568  0.33585  1.0000
  C   C110      1.0  0.18344  0.83764  0.33525  1.0000
  C   C111      1.0  0.17245  0.84856  0.33446  1.0000
  C   C112      1.0  0.08471  0.83786  0.33493  1.0000
  C   C113      1.0  0.07330  0.81577  0.33517  1.0000
  C   C114      1.0  0.07318  0.84841  0.33570  1.0000
  C   C115      1.0  0.15044  0.90358  0.33435  1.0000
  C   C116      1.0  0.13989  0.91512  0.33435  1.0000
  C   C117      1.0  0.15089  0.93705  0.33391  1.0000
  C   C118      1.0  0.17285  0.94812  0.33329  1.0000
  C   C119      1.0  0.18360  0.93691  0.33379  1.0000
  C   C120      1.0  0.17253  0.91499  0.33424  1.0000
  H   H84       1.0  0.08081  0.80736  0.33469  1.0000
  H   H85       1.0  0.08060  0.86433  0.33560  1.0000
  H   H86       1.0  0.12398  0.90770  0.33443  1.0000
  H   H87       1.0  0.14275  0.94485  0.33354  1.0000
  H   H88       1.0  0.18094  0.90748  0.33424  1.0000
  H   H89       1.0  0.19954  0.94461  0.33334  1.0000
  H   H90       1.0  0.18090  0.86448  0.33441  1.0000
  H   H91       1.0  0.19939  0.84583  0.33582  1.0000
  H   H92       1.0  0.14248  0.78891  0.33533  1.0000
  H   H93       1.0  0.12382  0.80739  0.33391  1.0000
  C   C121      1.0  0.85386  0.73867  0.33435  1.0000
  N   N29       1.0  0.84378  0.71749  0.33415  1.0000
  C   C122      1.0  0.85386  0.70640  0.33394  1.0000
  N   N30       1.0  0.87504  0.71749  0.33406  1.0000
  C   C123      1.0  0.88614  0.73867  0.33429  1.0000
  N   N31       1.0  0.87505  0.74877  0.33445  1.0000
  C   C124      1.0  0.84274  0.68416  0.33409  1.0000
  C   C125      1.0  0.82066  0.67269  0.33418  1.0000
  C   C126      1.0  0.80967  0.65077  0.33496  1.0000
  C   C127      1.0  0.82050  0.63965  0.33584  1.0000
  C   C128      1.0  0.84245  0.65078  0.33523  1.0000
  C   C129      1.0  0.85337  0.67270  0.33445  1.0000
  C   C130      1.0  0.84267  0.74974  0.33494  1.0000
  C   C131      1.0  0.82058  0.73906  0.33519  1.0000
  C   C132      1.0  0.80952  0.74991  0.33649  1.0000
  C   C133      1.0  0.82027  0.77186  0.33772  1.0000
  C   C134      1.0  0.84223  0.78275  0.33704  1.0000
  C   C135      1.0  0.85322  0.77182  0.33571  1.0000
  C   C136      1.0  0.90839  0.74973  0.33435  1.0000
  C   C137      1.0  0.91993  0.77182  0.33434  1.0000
  C   C138      1.0  0.94185  0.78274  0.33388  1.0000
  C   C139      1.0  0.95293  0.77185  0.33328  1.0000
  C   C140      1.0  0.94172  0.74990  0.33381  1.0000
  C   C141      1.0  0.91980  0.73905  0.33425  1.0000
  H   H94       1.0  0.79358  0.74167  0.33702  1.0000
  H   H95       1.0  0.81217  0.72313  0.33469  1.0000
  H   H96       1.0  0.85037  0.79869  0.33797  1.0000
  H   H97       1.0  0.86914  0.78032  0.33561  1.0000
  H   H98       1.0  0.91251  0.78032  0.33441  1.0000
  H   H99       1.0  0.94966  0.79868  0.33351  1.0000
  H   H100      1.0  0.91229  0.72313  0.33427  1.0000
  H   H101      1.0  0.94942  0.74166  0.33336  1.0000
  H   H102      1.0  0.86929  0.68016  0.33440  1.0000
  H   H103      1.0  0.85064  0.64303  0.33581  1.0000
  H   H104      1.0  0.79373  0.64302  0.33533  1.0000
  H   H105      1.0  0.81220  0.68015  0.33392  1.0000
  C   C142      1.0  0.24970  0.10216  0.33435  1.0000
  N   N32       1.0  0.27087  0.11326  0.33415  1.0000
  C   C143      1.0  0.28197  0.13443  0.33395  1.0000
  N   N33       1.0  0.27088  0.14451  0.33406  1.0000
  C   C144      1.0  0.24970  0.13443  0.33429  1.0000
  N   N34       1.0  0.23960  0.11325  0.33445  1.0000
  C   C145      1.0  0.30421  0.14555  0.33409  1.0000
  C   C146      1.0  0.31568  0.13493  0.33419  1.0000
  C   C147      1.0  0.33760  0.14586  0.33496  1.0000
  C   C148      1.0  0.34872  0.16782  0.33584  1.0000
  C   C149      1.0  0.33759  0.17864  0.33525  1.0000
  C   C150      1.0  0.31567  0.16764  0.33446  1.0000
  C   C151      1.0  0.23863  0.07990  0.33493  1.0000
  C   C152      1.0  0.24931  0.06849  0.33517  1.0000
  C   C153      1.0  0.23846  0.04657  0.33648  1.0000
  C   C154      1.0  0.21650  0.03537  0.33771  1.0000
  C   C155      1.0  0.20562  0.04645  0.33703  1.0000
  C   C156      1.0  0.21655  0.06837  0.33570  1.0000
  C   C157      1.0  0.23864  0.14563  0.33435  1.0000
  C   C158      1.0  0.21655  0.13508  0.33435  1.0000
  C   C159      1.0  0.20563  0.14608  0.33390  1.0000
  C   C160      1.0  0.21652  0.16804  0.33328  1.0000
  C   C161      1.0  0.23847  0.17878  0.33379  1.0000
  C   C162      1.0  0.24932  0.16772  0.33423  1.0000
  H   H106      1.0  0.24670  0.03887  0.33703  1.0000
  H   H107      1.0  0.26523  0.07600  0.33469  1.0000
  H   H108      1.0  0.18968  0.03865  0.33796  1.0000
  H   H109      1.0  0.20805  0.07579  0.33560  1.0000
  H   H110      1.0  0.20805  0.11916  0.33443  1.0000
  H   H111      1.0  0.18969  0.13794  0.33354  1.0000
  H   H112      1.0  0.26524  0.17613  0.33425  1.0000
  H   H113      1.0  0.24671  0.19473  0.33334  1.0000
  H   H114      1.0  0.30821  0.17609  0.33441  1.0000
  H   H115      1.0  0.34534  0.19458  0.33582  1.0000
  H   H116      1.0  0.34535  0.13767  0.33532  1.0000
  H   H117      1.0  0.30822  0.11901  0.33391  1.0000
  C   C163      1.0  0.88621  0.13451  0.33435  1.0000
  N   N35       1.0  0.87512  0.14459  0.33415  1.0000
  C   C164      1.0  0.85394  0.13451  0.33395  1.0000
  N   N36       1.0  0.84386  0.11334  0.33406  1.0000
  C   C165      1.0  0.85394  0.10224  0.33429  1.0000
  N   N37       1.0  0.87513  0.11333  0.33445  1.0000
  C   C166      1.0  0.84282  0.14563  0.33409  1.0000
  C   C167      1.0  0.85344  0.16772  0.33419  1.0000
  C   C168      1.0  0.84250  0.17870  0.33496  1.0000
  C   C169      1.0  0.82055  0.16787  0.33584  1.0000
  C   C170      1.0  0.80973  0.14592  0.33524  1.0000
  C   C171      1.0  0.82073  0.13500  0.33445  1.0000
  C   C172      1.0  0.90847  0.14570  0.33494  1.0000
  C   C173      1.0  0.91988  0.16779  0.33518  1.0000
  C   C174      1.0  0.94180  0.17885  0.33649  1.0000
  C   C175      1.0  0.95300  0.16810  0.33772  1.0000
  C   C176      1.0  0.94193  0.14615  0.33704  1.0000
  C   C177      1.0  0.92000  0.13515  0.33570  1.0000
  C   C178      1.0  0.84275  0.07998  0.33435  1.0000
  C   C179      1.0  0.85329  0.06844  0.33433  1.0000
  C   C180      1.0  0.84229  0.04652  0.33388  1.0000
  C   C181      1.0  0.82033  0.03544  0.33328  1.0000
  C   C182      1.0  0.80959  0.04665  0.33380  1.0000
  C   C183      1.0  0.82065  0.06857  0.33424  1.0000
  H   H118      1.0  0.94950  0.19480  0.33702  1.0000
  H   H119      1.0  0.91238  0.17621  0.33469  1.0000
  H   H120      1.0  0.94972  0.13800  0.33797  1.0000
  H   H121      1.0  0.91258  0.11923  0.33561  1.0000
  H   H122      1.0  0.86921  0.07586  0.33441  1.0000
  H   H123      1.0  0.85043  0.03872  0.33352  1.0000
  H   H124      1.0  0.81224  0.07608  0.33426  1.0000
  H   H125      1.0  0.79365  0.03896  0.33336  1.0000
  H   H126      1.0  0.81228  0.11908  0.33440  1.0000
  H   H127      1.0  0.79379  0.13772  0.33581  1.0000
  H   H128      1.0  0.85069  0.19464  0.33533  1.0000
  H   H129      1.0  0.86935  0.17617  0.33392  1.0000
  C   C184      1.0  0.24966  0.53007  0.33578  1.0000
  N   N38       1.0  0.23947  0.50890  0.33527  1.0000
  C   C185      1.0  0.24969  0.49785  0.33474  1.0000
  N   N39       1.0  0.27095  0.50886  0.33451  1.0000
  C   C186      1.0  0.28198  0.53002  0.33478  1.0000
  N   N40       1.0  0.27074  0.53986  0.33545  1.0000
  C   C187      1.0  0.23855  0.47561  0.33417  1.0000
  C   C188      1.0  0.21646  0.46415  0.33391  1.0000
  C   C189      1.0  0.20545  0.44224  0.33268  1.0000
  C   C190      1.0  0.21626  0.43110  0.33159  1.0000
  C   C191      1.0  0.23822  0.44221  0.33232  1.0000
  C   C192      1.0  0.24915  0.46412  0.33355  1.0000
  C   C193      1.0  0.23952  0.54214  0.33634  1.0000
  C   C194      1.0  0.21756  0.53296  0.33106  1.0000
  C   C195      1.0  0.20797  0.54530  0.33022  1.0000
  C   C196      1.0  0.22016  0.56719  0.33535  1.0000
  C   C197      1.0  0.24199  0.57647  0.34130  1.0000
  C   C198      1.0  0.25145  0.56418  0.34159  1.0000
  C   C199      1.0  0.30420  0.54204  0.33467  1.0000
  C   C200      1.0  0.31438  0.56411  0.33371  1.0000
  C   C201      1.0  0.33614  0.57634  0.33467  1.0000
  C   C202      1.0  0.34863  0.56694  0.33661  1.0000
  C   C203      1.0  0.33886  0.54501  0.33700  1.0000
  C   C204      1.0  0.31692  0.53275  0.33602  1.0000
  H   H130      1.0  0.19210  0.53825  0.32561  1.0000
  H   H131      1.0  0.20829  0.51714  0.32688  1.0000
  H   H132      1.0  0.25127  0.59234  0.34462  1.0000
  H   H133      1.0  0.26735  0.57176  0.34564  1.0000
  H   H134      1.0  0.30611  0.57176  0.33270  1.0000
  H   H135      1.0  0.34279  0.59223  0.33462  1.0000
  H   H136      1.0  0.31031  0.51689  0.33692  1.0000
  H   H137      1.0  0.34762  0.53787  0.33878  1.0000
  H   H138      1.0  0.26507  0.47157  0.33369  1.0000
  H   H139      1.0  0.24640  0.43445  0.33147  1.0000
  H   H140      1.0  0.18951  0.43450  0.33210  1.0000
  H   H141      1.0  0.20801  0.47162  0.33431  1.0000
  C   C205      1.0  0.45831  0.70655  0.33573  1.0000
  N   N41       1.0  0.47948  0.71753  0.33523  1.0000
  C   C206      1.0  0.49053  0.73879  0.33473  1.0000
  N   N42       1.0  0.47953  0.74906  0.33455  1.0000
  C   C207      1.0  0.45836  0.73893  0.33483  1.0000
  N   N43       1.0  0.44853  0.71784  0.33545  1.0000
  C   C208      1.0  0.51278  0.74990  0.33417  1.0000
  C   C209      1.0  0.52423  0.73927  0.33389  1.0000
  C   C210      1.0  0.54615  0.75018  0.33266  1.0000
  C   C211      1.0  0.55728  0.77213  0.33159  1.0000
  C   C212      1.0  0.54617  0.78297  0.33236  1.0000
  C   C213      1.0  0.52426  0.77199  0.33358  1.0000
  C   C214      1.0  0.44623  0.68434  0.33627  1.0000
  C   C215      1.0  0.45540  0.67155  0.33101  1.0000
  C   C216      1.0  0.44304  0.64961  0.33026  1.0000
  C   C217      1.0  0.42115  0.63993  0.33540  1.0000
  C   C218      1.0  0.41188  0.65250  0.34134  1.0000
  C   C219      1.0  0.42419  0.67425  0.34155  1.0000
  C   C220      1.0  0.44634  0.74912  0.33474  1.0000
  C   C221      1.0  0.42427  0.73720  0.33382  1.0000
  C   C222      1.0  0.41203  0.74672  0.33473  1.0000
  C   C223      1.0  0.42141  0.76860  0.33663  1.0000
  C   C224      1.0  0.44333  0.78078  0.33691  1.0000
  C   C225      1.0  0.45561  0.77112  0.33601  1.0000
  H   H142      1.0  0.45008  0.64078  0.32575  1.0000
  H   H143      1.0  0.47121  0.67809  0.32689  1.0000
  H   H144      1.0  0.39602  0.64592  0.34473  1.0000
  H   H145      1.0  0.41663  0.68258  0.34561  1.0000
  H   H146      1.0  0.41662  0.72128  0.33284  1.0000
  H   H147      1.0  0.39614  0.73747  0.33463  1.0000
  H   H148      1.0  0.47147  0.78038  0.33684  1.0000
  H   H149      1.0  0.45046  0.79668  0.33858  1.0000
  H   H150      1.0  0.51681  0.78046  0.33374  1.0000
  H   H151      1.0  0.55393  0.79891  0.33152  1.0000
  H   H152      1.0  0.55389  0.74198  0.33204  1.0000
  H   H153      1.0  0.51676  0.72335  0.33425  1.0000
  C   C226      1.0  0.28179  0.73870  0.33574  1.0000
  N   N44       1.0  0.27080  0.74888  0.33523  1.0000
  C   C227      1.0  0.24954  0.73867  0.33469  1.0000
  N   N45       1.0  0.23928  0.71740  0.33449  1.0000
  C   C228      1.0  0.24942  0.70637  0.33477  1.0000
  N   N46       1.0  0.27050  0.71762  0.33543  1.0000
  C   C229      1.0  0.23844  0.74981  0.33414  1.0000
  C   C230      1.0  0.24907  0.77190  0.33387  1.0000
  C   C231      1.0  0.23817  0.78291  0.33266  1.0000
  C   C232      1.0  0.21622  0.77209  0.33158  1.0000
  C   C233      1.0  0.20537  0.75014  0.33231  1.0000
  C   C234      1.0  0.21635  0.73920  0.33353  1.0000
  C   C235      1.0  0.30400  0.74884  0.33632  1.0000
  C   C236      1.0  0.31678  0.77080  0.33099  1.0000
  C   C237      1.0  0.33871  0.78039  0.33020  1.0000
  C   C238      1.0  0.34841  0.76820  0.33545  1.0000
  C   C239      1.0  0.33586  0.74637  0.34146  1.0000
  C   C240      1.0  0.31410  0.73691  0.34169  1.0000
  C   C241      1.0  0.23922  0.68415  0.33469  1.0000
  C   C242      1.0  0.25113  0.67399  0.33381  1.0000
  C   C243      1.0  0.24160  0.65223  0.33478  1.0000
  C   C244      1.0  0.21972  0.63973  0.33668  1.0000
  C   C245      1.0  0.20755  0.64949  0.33698  1.0000
  C   C246      1.0  0.21722  0.67144  0.33599  1.0000
  H   H154      1.0  0.34753  0.79626  0.32557  1.0000
  H   H155      1.0  0.31023  0.78007  0.32674  1.0000
  H   H156      1.0  0.34245  0.73709  0.34489  1.0000
  H   H157      1.0  0.30578  0.72101  0.34580  1.0000
  H   H158      1.0  0.26705  0.68226  0.33284  1.0000
  H   H159      1.0  0.25085  0.64559  0.33477  1.0000
  H   H160      1.0  0.20796  0.67803  0.33683  1.0000
  H   H161      1.0  0.19165  0.64072  0.33870  1.0000
  H   H162      1.0  0.20787  0.72328  0.33367  1.0000
  H   H163      1.0  0.18943  0.74196  0.33147  1.0000
  H   H164      1.0  0.24637  0.79885  0.33208  1.0000
  H   H165      1.0  0.26499  0.78035  0.33426  1.0000
  C   C247      1.0  0.74353  0.45350  0.33569  1.0000
  N   N47       1.0  0.75372  0.47467  0.33519  1.0000
  C   C248      1.0  0.74350  0.48571  0.33468  1.0000
  N   N48       1.0  0.72224  0.47471  0.33447  1.0000
  C   C249      1.0  0.71121  0.45354  0.33474  1.0000
  N   N49       1.0  0.72245  0.44371  0.33538  1.0000
  C   C250      1.0  0.75464  0.50796  0.33413  1.0000
  C   C251      1.0  0.77673  0.51941  0.33387  1.0000
  C   C252      1.0  0.78774  0.54133  0.33266  1.0000
  C   C253      1.0  0.77692  0.55246  0.33158  1.0000
  C   C254      1.0  0.75497  0.54136  0.33233  1.0000
  C   C255      1.0  0.74404  0.51944  0.33354  1.0000
  C   C256      1.0  0.75367  0.44142  0.33625  1.0000
  C   C257      1.0  0.77563  0.45060  0.33099  1.0000
  C   C258      1.0  0.78522  0.43826  0.33025  1.0000
  C   C259      1.0  0.77302  0.41636  0.33543  1.0000
  C   C260      1.0  0.75119  0.40709  0.34136  1.0000
  C   C261      1.0  0.74173  0.41939  0.34155  1.0000
  C   C262      1.0  0.68899  0.44152  0.33466  1.0000
  C   C263      1.0  0.67882  0.41945  0.33373  1.0000
  C   C264      1.0  0.65706  0.40722  0.33471  1.0000
  C   C265      1.0  0.64457  0.41661  0.33666  1.0000
  C   C266      1.0  0.65433  0.43854  0.33700  1.0000
  C   C267      1.0  0.67627  0.45081  0.33602  1.0000
  H   H166      1.0  0.80109  0.44530  0.32572  1.0000
  H   H167      1.0  0.78490  0.46642  0.32684  1.0000
  H   H168      1.0  0.74191  0.39122  0.34475  1.0000
  H   H169      1.0  0.72584  0.41181  0.34561  1.0000
  H   H170      1.0  0.68709  0.41180  0.33271  1.0000
  H   H171      1.0  0.65042  0.39133  0.33466  1.0000
  H   H172      1.0  0.68287  0.46666  0.33691  1.0000
  H   H173      1.0  0.64556  0.44567  0.33880  1.0000
  H   H174      1.0  0.72812  0.51200  0.33369  1.0000
  H   H175      1.0  0.74679  0.54912  0.33149  1.0000
  H   H176      1.0  0.80368  0.54907  0.33206  1.0000
  H   H177      1.0  0.78518  0.51195  0.33423  1.0000
  C   C268      1.0  0.53487  0.27699  0.33579  1.0000
  N   N50       1.0  0.51370  0.26600  0.33529  1.0000
  C   C269      1.0  0.50266  0.24474  0.33474  1.0000
  N   N51       1.0  0.51366  0.23448  0.33451  1.0000
  C   C270      1.0  0.53483  0.24462  0.33479  1.0000
  N   N52       1.0  0.54466  0.26570  0.33546  1.0000
  C   C271      1.0  0.48041  0.23364  0.33418  1.0000
  C   C272      1.0  0.46896  0.24427  0.33391  1.0000
  C   C273      1.0  0.44704  0.23336  0.33268  1.0000
  C   C274      1.0  0.43591  0.21141  0.33158  1.0000
  C   C275      1.0  0.44701  0.20057  0.33232  1.0000
  C   C276      1.0  0.46893  0.21155  0.33355  1.0000
  C   C277      1.0  0.54694  0.29920  0.33636  1.0000
  C   C278      1.0  0.53775  0.31197  0.33107  1.0000
  C   C279      1.0  0.55009  0.33391  0.33023  1.0000
  C   C280      1.0  0.57198  0.34361  0.33538  1.0000
  C   C281      1.0  0.58127  0.33106  0.34134  1.0000
  C   C282      1.0  0.56897  0.30931  0.34163  1.0000
  C   C283      1.0  0.54684  0.23442  0.33467  1.0000
  C   C284      1.0  0.56891  0.24632  0.33371  1.0000
  C   C285      1.0  0.58114  0.23679  0.33467  1.0000
  C   C286      1.0  0.57175  0.21490  0.33662  1.0000
  C   C287      1.0  0.54982  0.20274  0.33700  1.0000
  C   C288      1.0  0.53756  0.21242  0.33602  1.0000
  H   H178      1.0  0.54303  0.34272  0.32561  1.0000
  H   H179      1.0  0.52193  0.30542  0.32688  1.0000
  H   H180      1.0  0.59713  0.33766  0.34467  1.0000
  H   H181      1.0  0.57655  0.30099  0.34569  1.0000
  H   H182      1.0  0.57657  0.26224  0.33271  1.0000
  H   H183      1.0  0.59704  0.24603  0.33463  1.0000
  H   H184      1.0  0.52170  0.20316  0.33692  1.0000
  H   H185      1.0  0.54269  0.18684  0.33879  1.0000
  H   H186      1.0  0.47637  0.20307  0.33369  1.0000
  H   H187      1.0  0.43925  0.18463  0.33147  1.0000
  H   H188      1.0  0.43930  0.24157  0.33210  1.0000
  H   H189      1.0  0.47642  0.26019  0.33431  1.0000
  C   C289      1.0  0.71137  0.24485  0.33562  1.0000
  N   N53       1.0  0.72235  0.23466  0.33514  1.0000
  C   C290      1.0  0.74361  0.24487  0.33463  1.0000
  N   N54       1.0  0.75388  0.26613  0.33442  1.0000
  C   C291      1.0  0.74375  0.27717  0.33467  1.0000
  N   N55       1.0  0.72267  0.26593  0.33531  1.0000
  C   C292      1.0  0.75472  0.23373  0.33411  1.0000
  C   C293      1.0  0.74408  0.21164  0.33385  1.0000
  C   C294      1.0  0.75499  0.20063  0.33265  1.0000
  C   C295      1.0  0.77694  0.21144  0.33159  1.0000
  C   C296      1.0  0.78778  0.23339  0.33232  1.0000
  C   C297      1.0  0.77681  0.24433  0.33352  1.0000
  C   C298      1.0  0.68916  0.23472  0.33620  1.0000
  C   C299      1.0  0.67637  0.21276  0.33095  1.0000
  C   C300      1.0  0.65443  0.20318  0.33023  1.0000
  C   C301      1.0  0.64475  0.21539  0.33539  1.0000
  C   C302      1.0  0.65732  0.23722  0.34132  1.0000
  C   C303      1.0  0.67907  0.24667  0.34150  1.0000
  C   C304      1.0  0.75395  0.29939  0.33459  1.0000
  C   C305      1.0  0.74205  0.30956  0.33363  1.0000
  C   C306      1.0  0.75158  0.33132  0.33465  1.0000
  C   C307      1.0  0.77346  0.34381  0.33662  1.0000
  C   C308      1.0  0.78562  0.33405  0.33698  1.0000
  C   C309      1.0  0.77595  0.31211  0.33599  1.0000
  H   H190      1.0  0.64561  0.18732  0.32573  1.0000
  H   H191      1.0  0.68291  0.20348  0.32681  1.0000
  H   H192      1.0  0.65074  0.24651  0.34473  1.0000
  H   H193      1.0  0.68740  0.26256  0.34555  1.0000
  H   H194      1.0  0.72612  0.30129  0.33260  1.0000
  H   H195      1.0  0.74233  0.33796  0.33459  1.0000
  H   H196      1.0  0.78521  0.30551  0.33688  1.0000
  H   H197      1.0  0.80152  0.34281  0.33882  1.0000
  H   H198      1.0  0.78528  0.26025  0.33366  1.0000
  H   H199      1.0  0.80373  0.24157  0.33149  1.0000
  H   H200      1.0  0.74679  0.18469  0.33205  1.0000
  H   H201      1.0  0.72816  0.20319  0.33421  1.0000
  C   C310      1.0  0.18366  0.36587  0.33740  1.0000
  C   C311      1.0  0.18962  0.37783  0.41685  1.0000
  C   C312      1.0  0.18500  0.36860  0.50725  1.0000
  H   H202      1.0  0.16820  0.35896  0.51619  1.0000
  H   H203      1.0  0.19101  0.38064  0.55875  1.0000
  H   H204      1.0  0.19219  0.35898  0.51621  1.0000
  N   N56       1.0  0.20016  0.39892  0.40854  1.0000
  C   C313      1.0  0.62251  0.80476  0.33739  1.0000
  C   C314      1.0  0.61055  0.79876  0.41685  1.0000
  C   C315      1.0  0.61979  0.80338  0.50725  1.0000
  H   H205      1.0  0.62943  0.79622  0.51619  1.0000
  H   H206      1.0  0.60775  0.79735  0.55875  1.0000
  H   H207      1.0  0.62941  0.82018  0.51621  1.0000
  N   N57       1.0  0.58947  0.78821  0.40854  1.0000
  C   C316      1.0  0.18360  0.80471  0.33740  1.0000
  C   C317      1.0  0.18960  0.79874  0.41685  1.0000
  C   C318      1.0  0.18498  0.80336  0.50725  1.0000
  H   H208      1.0  0.19215  0.82017  0.51619  1.0000
  H   H209      1.0  0.19101  0.79735  0.55875  1.0000
  H   H210      1.0  0.16818  0.79618  0.51621  1.0000
  N   N58       1.0  0.20014  0.78820  0.40853  1.0000
  C   C319      1.0  0.80953  0.61769  0.33740  1.0000
  C   C320      1.0  0.80356  0.60573  0.41685  1.0000
  C   C321      1.0  0.80818  0.61497  0.50725  1.0000
  H   H211      1.0  0.82498  0.62461  0.51619  1.0000
  H   H212      1.0  0.80217  0.60293  0.55875  1.0000
  H   H213      1.0  0.80100  0.62459  0.51621  1.0000
  N   N59       1.0  0.79303  0.58465  0.40854  1.0000
  C   C322      1.0  0.37068  0.17880  0.33740  1.0000
  C   C323      1.0  0.38264  0.18479  0.41685  1.0000
  C   C324      1.0  0.37340  0.18018  0.50725  1.0000
  H   H214      1.0  0.36377  0.18734  0.51619  1.0000
  H   H215      1.0  0.38544  0.18620  0.55875  1.0000
  H   H216      1.0  0.36378  0.16337  0.51621  1.0000
  N   N60       1.0  0.40372  0.19534  0.40854  1.0000
  C   C325      1.0  0.80957  0.17884  0.33740  1.0000
  C   C326      1.0  0.80357  0.18481  0.41685  1.0000
  C   C327      1.0  0.80819  0.18019  0.50725  1.0000
  H   H217      1.0  0.80102  0.16339  0.51619  1.0000
  H   H218      1.0  0.80216  0.18620  0.55875  1.0000
  H   H219      1.0  0.82499  0.18737  0.51621  1.0000
  N   N61       1.0  0.79302  0.19534  0.40854  1.0000
  C   C328      1.0  0.18574  0.19908  0.51137  1.0000
  C   C329      1.0  0.18996  0.19479  0.41961  1.0000
  H   H220      1.0  0.17649  0.18440  0.54682  1.0000
  H   H221      1.0  0.17728  0.20760  0.51276  1.0000
  H   H222      1.0  0.20045  0.20831  0.54668  1.0000
  N   N62       1.0  0.20048  0.18423  0.41114  1.0000
  C   C330      1.0  0.18396  0.20078  0.34009  1.0000
  C   C331      1.0  0.78929  0.97363  0.51137  1.0000
  C   C332      1.0  0.79358  0.98213  0.41961  1.0000
  H   H223      1.0  0.80397  0.97907  0.54683  1.0000
  H   H224      1.0  0.78077  0.95666  0.51277  1.0000
  H   H225      1.0  0.78007  0.97912  0.54668  1.0000
  N   N63       1.0  0.80414  0.00322  0.41114  1.0000
  C   C333      1.0  0.78759  0.97015  0.34009  1.0000
  N   N64       1.0  0.98515  0.78789  0.41114  1.0000
  C   C334      1.0  0.80744  0.78448  0.51137  1.0000
  C   C335      1.0  0.80322  0.78876  0.41961  1.0000
  H   H226      1.0  0.81669  0.79916  0.54683  1.0000
  H   H227      1.0  0.81590  0.77596  0.51277  1.0000
  H   H228      1.0  0.79273  0.77525  0.54668  1.0000
  N   N65       1.0  0.79270  0.79933  0.41114  1.0000
  C   C336      1.0  0.80922  0.78278  0.34009  1.0000
  C   C337      1.0  0.20389  0.00993  0.51137  1.0000
  C   C338      1.0  0.19961  0.00143  0.41961  1.0000
  H   H229      1.0  0.18921  0.00450  0.54682  1.0000
  H   H230      1.0  0.21241  0.02690  0.51276  1.0000
  H   H231      1.0  0.21312  0.00445  0.54668  1.0000
  N   N66       1.0  0.18904  0.98034  0.41114  1.0000
  C   C339      1.0  0.20559  0.01341  0.34009  1.0000
  C   C340      1.0  0.97844  0.18093  0.51137  1.0000
  C   C341      1.0  0.98695  0.18515  0.41961  1.0000
  H   H232      1.0  0.98388  0.17168  0.54683  1.0000
  H   H233      1.0  0.96147  0.17247  0.51277  1.0000
  H   H234      1.0  0.98393  0.19564  0.54668  1.0000
  C   C342      1.0  0.97496  0.17915  0.34009  1.0000
  C   C343      1.0  0.21277  0.61598  0.51091  1.0000
  C   C344      1.0  0.21113  0.60765  0.41970  1.0000
  H   H235      1.0  0.20023  0.60430  0.55212  1.0000
  H   H236      1.0  0.21157  0.63005  0.51178  1.0000
  H   H237      1.0  0.22767  0.61958  0.54029  1.0000
  N   N67       1.0  0.21216  0.58994  0.41175  1.0000
  C   C345      1.0  0.21113  0.61792  0.33983  1.0000
  C   C346      1.0  0.37236  0.58363  0.51095  1.0000
  C   C347      1.0  0.38070  0.59039  0.41979  1.0000
  H   H238      1.0  0.38405  0.58276  0.55208  1.0000
  H   H239      1.0  0.35830  0.56836  0.51167  1.0000
  H   H240      1.0  0.36874  0.59490  0.54053  1.0000
  N   N68       1.0  0.39840  0.60915  0.41208  1.0000
  C   C348      1.0  0.37044  0.58016  0.33985  1.0000
  C   C349      1.0  0.40470  0.77564  0.51068  1.0000
  C   C350      1.0  0.39793  0.77718  0.41951  1.0000
  H   H241      1.0  0.40560  0.78822  0.55171  1.0000
  H   H242      1.0  0.41997  0.77684  0.51143  1.0000
  H   H243      1.0  0.39343  0.76077  0.54039  1.0000
  N   N69       1.0  0.37919  0.77618  0.41184  1.0000
  C   C351      1.0  0.40815  0.77716  0.33949  1.0000
  C   C352      1.0  0.78049  0.36759  0.51091  1.0000
  C   C353      1.0  0.78205  0.37591  0.41974  1.0000
  H   H244      1.0  0.79308  0.37927  0.55196  1.0000
  H   H245      1.0  0.78168  0.35351  0.51167  1.0000
  H   H246      1.0  0.76562  0.36400  0.54058  1.0000
  N   N70       1.0  0.78104  0.39364  0.41207  1.0000
  C   C354      1.0  0.78203  0.36561  0.33989  1.0000
  C   C355      1.0  0.62077  0.39978  0.51085  1.0000
  C   C356      1.0  0.61244  0.39310  0.41962  1.0000
  H   H247      1.0  0.60909  0.40065  0.55202  1.0000
  H   H248      1.0  0.63485  0.41504  0.51175  1.0000
  H   H249      1.0  0.62434  0.38846  0.54027  1.0000
  N   N71       1.0  0.59472  0.37436  0.41173  1.0000
  C   C357      1.0  0.62277  0.40338  0.33984  1.0000
  C   C358      1.0  0.58845  0.20787  0.51096  1.0000
  C   C359      1.0  0.59521  0.20629  0.41980  1.0000
  H   H250      1.0  0.58758  0.19531  0.55209  1.0000
  H   H251      1.0  0.57317  0.20665  0.51168  1.0000
  H   H252      1.0  0.59972  0.22276  0.54054  1.0000
  N   N72       1.0  0.61398  0.20736  0.41208  1.0000
  C   C360      1.0  0.58498  0.20631  0.33985  1.0000
