data_image0
_chemical_formula_structural       N2C4HCH3C4HCH3C4HCH3N8C4HCH3C4HCH3N2C4HCH3C4HCH3C4HCH3N8C4HCH3C4HCH3N4C4HCH3C4HCH3N4C4HCH3C4HCH3N4C4HCH3C4HCH3N4C4HCH3C4HCH3C6H3C6H3C6H3C6H3C6H3C6H3C6H3C6H3C6H3C6H3C6H3C6H3C6H3C6H3C6H3C6H3C6H3C6H3C6H3C6H3C6H3C6H3C6H3C6H3C4HCH3N6C4HCH3C4HCH3C4HCH3C4HCH3N4C4HCH3N6C4HCH3C4HCH3C4HCH3C4HCH3N4C4HCH3C4HCH3N4C4HCH3C4HCH3N4C4HCH3C4HCH3N4C4HCH3C4HCH3N4
_chemical_formula_sum              "N72 C324 H216"
_cell_length_a       42.4154
_cell_length_b       53.9311
_cell_length_c       14.8363
_cell_angle_alpha    90
_cell_angle_beta     90
_cell_angle_gamma    90

_space_group_name_H-M_alt    "P 1"
_space_group_IT_number       1

loop_
  _space_group_symop_operation_xyz
  'x, y, z'

loop_
  _atom_site_type_symbol
  _atom_site_label
  _atom_site_symmetry_multiplicity
  _atom_site_fract_x
  _atom_site_fract_y
  _atom_site_fract_z
  _atom_site_occupancy
  N   N1        1.0  0.51040  0.02289  0.29552  1.0000
  N   N2        1.0  0.52841  0.00313  0.29457  1.0000
  C   C1        1.0  0.98714  0.48335  0.33859  1.0000
  C   C2        1.0  0.01210  0.48535  0.27598  1.0000
  C   C3        1.0  0.03153  0.50670  0.27316  1.0000
  C   C4        1.0  0.02572  0.52594  0.33683  1.0000
  H   H1        1.0  0.01572  0.47131  0.23071  1.0000
  C   C5        1.0  0.05570  0.50879  0.20086  1.0000
  H   H2        1.0  0.05286  0.49467  0.14878  1.0000
  H   H3        1.0  0.07925  0.50662  0.22900  1.0000
  H   H4        1.0  0.05399  0.52683  0.16792  1.0000
  C   C6        1.0  0.31546  0.07575  0.33156  1.0000
  C   C7        1.0  0.32898  0.05815  0.27249  1.0000
  C   C8        1.0  0.36217  0.05488  0.26771  1.0000
  C   C9        1.0  0.38163  0.06940  0.32567  1.0000
  H   H5        1.0  0.31461  0.04845  0.22980  1.0000
  C   C10       1.0  0.37532  0.03788  0.19834  1.0000
  H   H6        1.0  0.35766  0.03212  0.14908  1.0000
  H   H7        1.0  0.38439  0.02115  0.23021  1.0000
  H   H8        1.0  0.39430  0.04699  0.16137  1.0000
  C   C11       1.0  0.69631  0.93635  0.33354  1.0000
  C   C12       1.0  0.68270  0.95415  0.27532  1.0000
  C   C13       1.0  0.64949  0.95756  0.27137  1.0000
  C   C14       1.0  0.63008  0.94296  0.32923  1.0000
  H   H9        1.0  0.69701  0.96385  0.23246  1.0000
  C   C15       1.0  0.63615  0.97474  0.20301  1.0000
  H   H10       1.0  0.65391  0.98142  0.15560  1.0000
  H   H11       1.0  0.62605  0.99093  0.23606  1.0000
  H   H12       1.0  0.61788  0.96541  0.16391  1.0000
  N   N3        1.0  0.14452  0.58589  0.30873  1.0000
  N   N4        1.0  0.17505  0.58892  0.30598  1.0000
  N   N5        1.0  0.86574  0.42639  0.30557  1.0000
  N   N6        1.0  0.83523  0.42326  0.30342  1.0000
  N   N7        1.0  0.49804  0.12640  0.28620  1.0000
  N   N8        1.0  0.50967  0.14893  0.28471  1.0000
  N   N9        1.0  0.51437  0.88380  0.28933  1.0000
  N   N10       1.0  0.50240  0.86138  0.28860  1.0000
  C   C16       1.0  0.00696  0.66580  0.33790  1.0000
  C   C17       1.0  0.02559  0.65799  0.26433  1.0000
  C   C18       1.0  0.03821  0.63376  0.26142  1.0000
  C   C19       1.0  0.03172  0.61765  0.33503  1.0000
  H   H13       1.0  0.03036  0.67021  0.21328  1.0000
  C   C20       1.0  0.05709  0.62584  0.18197  1.0000
  H   H14       1.0  0.05721  0.63972  0.12839  1.0000
  H   H15       1.0  0.04730  0.60879  0.15399  1.0000
  H   H16       1.0  0.08150  0.62254  0.20144  1.0000
  C   C21       1.0  0.00218  0.34420  0.33549  1.0000
  C   C22       1.0  0.98235  0.35169  0.26403  1.0000
  C   C23       1.0  0.96932  0.37579  0.26196  1.0000
  C   C24       1.0  0.97662  0.39210  0.33437  1.0000
  H   H17       1.0  0.97710  0.33937  0.21375  1.0000
  C   C25       1.0  0.94941  0.38340  0.18416  1.0000
  H   H18       1.0  0.94893  0.36946  0.13084  1.0000
  H   H19       1.0  0.95857  0.40052  0.15498  1.0000
  H   H20       1.0  0.92517  0.38645  0.20582  1.0000
  N   N11       1.0  0.52564  0.49687  0.31795  1.0000
  N   N12       1.0  0.49628  0.48937  0.31502  1.0000
  C   C26       1.0  0.03793  0.99837  0.31943  1.0000
  C   C27       1.0  0.02858  0.01617  0.25504  1.0000
  C   C28       1.0  0.99681  0.02420  0.24959  1.0000
  C   C29       1.0  0.97462  0.01424  0.31207  1.0000
  H   H21       1.0  0.04488  0.02284  0.21035  1.0000
  C   C30       1.0  0.98742  0.04138  0.17586  1.0000
  H   H22       1.0  0.00601  0.04377  0.12573  1.0000
  H   H23       1.0  0.98193  0.05965  0.20282  1.0000
  H   H24       1.0  0.96673  0.03415  0.14090  1.0000
  C   C31       1.0  0.38808  0.37657  0.32830  1.0000
  C   C32       1.0  0.40945  0.38668  0.26527  1.0000
  C   C33       1.0  0.41553  0.41249  0.26282  1.0000
  C   C34       1.0  0.40015  0.42788  0.32734  1.0000
  H   H25       1.0  0.42023  0.37515  0.21996  1.0000
  C   C35       1.0  0.43605  0.42261  0.19030  1.0000
  H   H26       1.0  0.44107  0.40893  0.13798  1.0000
  H   H27       1.0  0.45857  0.42861  0.21800  1.0000
  H   H28       1.0  0.42455  0.43835  0.15779  1.0000
  C   C36       1.0  0.62392  0.63383  0.32972  1.0000
  C   C37       1.0  0.60325  0.62371  0.26488  1.0000
  C   C38       1.0  0.59715  0.59791  0.26228  1.0000
  C   C39       1.0  0.61182  0.58261  0.32837  1.0000
  H   H29       1.0  0.59289  0.63522  0.21871  1.0000
  C   C40       1.0  0.57730  0.58770  0.18844  1.0000
  H   H30       1.0  0.57279  0.60130  0.13552  1.0000
  H   H31       1.0  0.55454  0.58173  0.21447  1.0000
  H   H32       1.0  0.58910  0.57191  0.15713  1.0000
  N   N13       1.0  0.13164  0.91665  0.30448  1.0000
  N   N14       1.0  0.13735  0.89279  0.30390  1.0000
  N   N15       1.0  0.87911  0.09375  0.30104  1.0000
  N   N16       1.0  0.87333  0.11760  0.30039  1.0000
  N   N17       1.0  0.35794  0.53394  0.31514  1.0000
  N   N18       1.0  0.33548  0.55060  0.31373  1.0000
  N   N19       1.0  0.65185  0.47659  0.31525  1.0000
  N   N20       1.0  0.67462  0.46018  0.31301  1.0000
  C   C41       1.0  0.20261  0.04884  0.32621  1.0000
  C   C42       1.0  0.20521  0.02776  0.27015  1.0000
  C   C43       1.0  0.18095  0.00966  0.26676  1.0000
  C   C44       1.0  0.15400  0.01289  0.32309  1.0000
  H   H33       1.0  0.22448  0.02600  0.22921  1.0000
  C   C45       1.0  0.18356  0.98905  0.20053  1.0000
  H   H34       1.0  0.20278  0.99184  0.15267  1.0000
  H   H35       1.0  0.16181  0.98749  0.16163  1.0000
  H   H36       1.0  0.18798  0.97160  0.23517  1.0000
  C   C46       1.0  0.80979  0.96166  0.32492  1.0000
  C   C47       1.0  0.80809  0.98197  0.26502  1.0000
  C   C48       1.0  0.83271  0.99972  0.26046  1.0000
  C   C49       1.0  0.85902  0.99694  0.31948  1.0000
  H   H37       1.0  0.78919  0.98341  0.22248  1.0000
  C   C50       1.0  0.83121  0.01948  0.19061  1.0000
  H   H38       1.0  0.81211  0.01652  0.14249  1.0000
  H   H39       1.0  0.85320  0.01997  0.15246  1.0000
  H   H40       1.0  0.82736  0.03749  0.22187  1.0000
  N   N21       1.0  0.24534  0.15470  0.30725  1.0000
  N   N22       1.0  0.23984  0.17857  0.30904  1.0000
  N   N23       1.0  0.76547  0.85650  0.30939  1.0000
  N   N24       1.0  0.77090  0.83261  0.31138  1.0000
  C   C51       1.0  0.29256  0.68916  0.32353  1.0000
  C   C52       1.0  0.30845  0.67308  0.26359  1.0000
  C   C53       1.0  0.30242  0.64724  0.26372  1.0000
  C   C54       1.0  0.28042  0.63781  0.32767  1.0000
  H   H41       1.0  0.32375  0.68039  0.21734  1.0000
  C   C55       1.0  0.31747  0.63146  0.19364  1.0000
  H   H42       1.0  0.32913  0.64237  0.14138  1.0000
  H   H43       1.0  0.29975  0.61997  0.16049  1.0000
  H   H44       1.0  0.33528  0.61955  0.22396  1.0000
  C   C56       1.0  0.71897  0.32201  0.32077  1.0000
  C   C57       1.0  0.70321  0.33806  0.26045  1.0000
  C   C58       1.0  0.70913  0.36390  0.26085  1.0000
  C   C59       1.0  0.73093  0.37336  0.32530  1.0000
  H   H45       1.0  0.68801  0.33073  0.21396  1.0000
  C   C60       1.0  0.69422  0.37969  0.19052  1.0000
  H   H46       1.0  0.68269  0.36877  0.13802  1.0000
  H   H47       1.0  0.71200  0.39120  0.15773  1.0000
  H   H48       1.0  0.67633  0.39159  0.22051  1.0000
  N   N25       1.0  0.31028  0.28405  0.30541  1.0000
  N   N26       1.0  0.28498  0.27031  0.30749  1.0000
  N   N27       1.0  0.70072  0.72677  0.30827  1.0000
  N   N28       1.0  0.72588  0.74065  0.31043  1.0000
  C   C61       1.0  0.25071  0.77492  0.32567  1.0000
  C   C62       1.0  0.24797  0.79576  0.26835  1.0000
  C   C63       1.0  0.22043  0.81067  0.26904  1.0000
  C   C64       1.0  0.19603  0.80440  0.33081  1.0000
  H   H49       1.0  0.26546  0.79933  0.22268  1.0000
  C   C65       1.0  0.21702  0.83092  0.20179  1.0000
  H   H50       1.0  0.23638  0.83130  0.15331  1.0000
  H   H51       1.0  0.21665  0.84882  0.23573  1.0000
  H   H52       1.0  0.19517  0.82858  0.16390  1.0000
  C   C66       1.0  0.76048  0.23615  0.32250  1.0000
  C   C67       1.0  0.76302  0.21530  0.26514  1.0000
  C   C68       1.0  0.79038  0.20020  0.26597  1.0000
  C   C69       1.0  0.81480  0.20630  0.32788  1.0000
  H   H53       1.0  0.74550  0.21180  0.21950  1.0000
  C   C70       1.0  0.79360  0.17991  0.19880  1.0000
  H   H54       1.0  0.77426  0.17964  0.15027  1.0000
  H   H55       1.0  0.79377  0.16201  0.23281  1.0000
  H   H56       1.0  0.81549  0.18210  0.16098  1.0000
  N   N29       1.0  0.47058  0.27085  0.28752  1.0000
  N   N30       1.0  0.44911  0.28826  0.28890  1.0000
  N   N31       1.0  0.54066  0.73926  0.29026  1.0000
  N   N32       1.0  0.56220  0.72190  0.29147  1.0000
  C   C71       1.0  0.08245  0.79099  0.33044  1.0000
  C   C72       1.0  0.07967  0.77453  0.25696  1.0000
  C   C73       1.0  0.05643  0.75578  0.25700  1.0000
  C   C74       1.0  0.03668  0.75380  0.33421  1.0000
  H   H57       1.0  0.09473  0.77625  0.20339  1.0000
  C   C75       1.0  0.05266  0.73980  0.17597  1.0000
  H   H58       1.0  0.06683  0.74621  0.11913  1.0000
  H   H59       1.0  0.02807  0.73975  0.15438  1.0000
  H   H60       1.0  0.05991  0.72086  0.19088  1.0000
  C   C76       1.0  0.92852  0.21887  0.32723  1.0000
  C   C77       1.0  0.93159  0.23507  0.25310  1.0000
  C   C78       1.0  0.95488  0.25378  0.25303  1.0000
  C   C79       1.0  0.97437  0.25594  0.33069  1.0000
  H   H61       1.0  0.91666  0.23324  0.19928  1.0000
  C   C80       1.0  0.95890  0.26958  0.17164  1.0000
  H   H62       1.0  0.94482  0.26311  0.11473  1.0000
  H   H63       1.0  0.98354  0.26950  0.15049  1.0000
  H   H64       1.0  0.95175  0.28858  0.18591  1.0000
  N   N33       1.0  0.13552  0.27686  0.32427  1.0000
  N   N34       1.0  0.10687  0.28584  0.32155  1.0000
  N   N35       1.0  0.87504  0.73419  0.32748  1.0000
  N   N36       1.0  0.90360  0.72505  0.32487  1.0000
  C   C81       1.0  0.42660  0.77963  0.30621  1.0000
  C   C82       1.0  0.41794  0.76304  0.23696  1.0000
  C   C83       1.0  0.38702  0.75334  0.23257  1.0000
  C   C84       1.0  0.36538  0.76038  0.30129  1.0000
  H   H65       1.0  0.43436  0.75795  0.18988  1.0000
  C   C85       1.0  0.37802  0.73721  0.15540  1.0000
  H   H66       1.0  0.39612  0.73670  0.10312  1.0000
  H   H67       1.0  0.35639  0.74409  0.12440  1.0000
  H   H68       1.0  0.37426  0.71824  0.17807  1.0000
  C   C86       1.0  0.58482  0.23143  0.30344  1.0000
  C   C87       1.0  0.59329  0.24827  0.23479  1.0000
  C   C88       1.0  0.62414  0.25811  0.23049  1.0000
  C   C89       1.0  0.64591  0.25094  0.29870  1.0000
  H   H69       1.0  0.57679  0.25340  0.18797  1.0000
  C   C90       1.0  0.63295  0.27445  0.15374  1.0000
  H   H70       1.0  0.61482  0.27498  0.10157  1.0000
  H   H71       1.0  0.65462  0.26776  0.12242  1.0000
  H   H72       1.0  0.63656  0.29340  0.17695  1.0000
  C   C91       1.0  0.46479  0.09406  0.34296  1.0000
  C   C92       1.0  0.43170  0.09258  0.33284  1.0000
  C   C93       1.0  0.41553  0.06965  0.32863  1.0000
  C   C94       1.0  0.43398  0.04780  0.33459  1.0000
  C   C95       1.0  0.46729  0.04836  0.34404  1.0000
  C   C96       1.0  0.48236  0.07181  0.34607  1.0000
  H   H73       1.0  0.42289  0.03105  0.33360  1.0000
  H   H74       1.0  0.50628  0.07272  0.35504  1.0000
  H   H75       1.0  0.41902  0.10872  0.32875  1.0000
  C   C97       1.0  0.54812  0.91609  0.34410  1.0000
  C   C98       1.0  0.58107  0.91864  0.33415  1.0000
  C   C99       1.0  0.59614  0.94208  0.33071  1.0000
  C   C100      1.0  0.57660  0.96343  0.33526  1.0000
  C   C101      1.0  0.54331  0.96172  0.34329  1.0000
  C   C102      1.0  0.52955  0.93778  0.34694  1.0000
  H   H76       1.0  0.58682  0.98055  0.33857  1.0000
  H   H77       1.0  0.50562  0.93600  0.35336  1.0000
  H   H78       1.0  0.59447  0.90287  0.32983  1.0000
  C   C103      1.0  0.04625  0.59403  0.34581  1.0000
  C   C104      1.0  0.07934  0.59255  0.35598  1.0000
  C   C105      1.0  0.09551  0.56963  0.36025  1.0000
  C   C106      1.0  0.07706  0.54777  0.35425  1.0000
  C   C107      1.0  0.04376  0.54833  0.34471  1.0000
  C   C108      1.0  0.02868  0.57177  0.34266  1.0000
  H   H79       1.0  0.08817  0.53102  0.35521  1.0000
  H   H80       1.0  0.00476  0.57268  0.33363  1.0000
  H   H81       1.0  0.09200  0.60870  0.36007  1.0000
  C   C109      1.0  0.96292  0.41605  0.34457  1.0000
  C   C110      1.0  0.92997  0.41861  0.35462  1.0000
  C   C111      1.0  0.91491  0.44204  0.35808  1.0000
  C   C112      1.0  0.93446  0.46339  0.35339  1.0000
  C   C113      1.0  0.96776  0.46168  0.34537  1.0000
  C   C114      1.0  0.98150  0.43773  0.34171  1.0000
  H   H82       1.0  0.92424  0.48052  0.35019  1.0000
  H   H83       1.0  0.00544  0.43594  0.33530  1.0000
  H   H84       1.0  0.91658  0.40284  0.35897  1.0000
  C   C115      1.0  0.44145  0.48939  0.36177  1.0000
  C   C116      1.0  0.43588  0.46380  0.34833  1.0000
  C   C117      1.0  0.40514  0.45399  0.33802  1.0000
  C   C118      1.0  0.37938  0.47060  0.34424  1.0000
  C   C119      1.0  0.38352  0.49631  0.36028  1.0000
  C   C120      1.0  0.41486  0.50531  0.36738  1.0000
  H   H85       1.0  0.35714  0.46384  0.33388  1.0000
  H   H86       1.0  0.41839  0.52390  0.37698  1.0000
  H   H87       1.0  0.45465  0.45190  0.34984  1.0000
  C   C121      1.0  0.56851  0.52231  0.36769  1.0000
  C   C122      1.0  0.57507  0.54767  0.35218  1.0000
  C   C123      1.0  0.60608  0.55668  0.34018  1.0000
  C   C124      1.0  0.63118  0.53951  0.34661  1.0000
  C   C125      1.0  0.62598  0.51392  0.36276  1.0000
  C   C126      1.0  0.59431  0.50558  0.37004  1.0000
  H   H88       1.0  0.65367  0.54574  0.33625  1.0000
  H   H89       1.0  0.59001  0.48716  0.38139  1.0000
  H   H90       1.0  0.55674  0.55994  0.34957  1.0000
  C   C127      1.0  0.06962  0.98938  0.32716  1.0000
  C   C128      1.0  0.07519  0.96378  0.34056  1.0000
  C   C129      1.0  0.10593  0.95397  0.35090  1.0000
  C   C130      1.0  0.13169  0.97058  0.34475  1.0000
  C   C131      1.0  0.12754  0.99630  0.32867  1.0000
  C   C132      1.0  0.09620  0.00530  0.32155  1.0000
  H   H91       1.0  0.15393  0.96383  0.35507  1.0000
  H   H92       1.0  0.09268  0.02389  0.31194  1.0000
  H   H93       1.0  0.05642  0.95188  0.33907  1.0000
  C   C133      1.0  0.94255  0.02226  0.32107  1.0000
  C   C134      1.0  0.93595  0.04762  0.33645  1.0000
  C   C135      1.0  0.90493  0.05661  0.34824  1.0000
  C   C136      1.0  0.87985  0.03943  0.34176  1.0000
  C   C137      1.0  0.88509  0.01383  0.32577  1.0000
  C   C138      1.0  0.91677  0.00551  0.31862  1.0000
  H   H94       1.0  0.85734  0.04565  0.35193  1.0000
  H   H95       1.0  0.92109  0.98708  0.30743  1.0000
  H   H96       1.0  0.95427  0.05989  0.33913  1.0000
  C   C139      1.0  0.23976  0.11235  0.35213  1.0000
  C   C140      1.0  0.27207  0.10592  0.34807  1.0000
  C   C141      1.0  0.28237  0.08117  0.33555  1.0000
  C   C142      1.0  0.25897  0.06250  0.32757  1.0000
  C   C143      1.0  0.22624  0.06790  0.33186  1.0000
  C   C144      1.0  0.21735  0.09304  0.34316  1.0000
  H   H97       1.0  0.26599  0.04442  0.32203  1.0000
  H   H98       1.0  0.19394  0.09750  0.34078  1.0000
  H   H99       1.0  0.28854  0.11974  0.35351  1.0000
  C   C145      1.0  0.77134  0.89885  0.35388  1.0000
  C   C146      1.0  0.73917  0.90568  0.34981  1.0000
  C   C147      1.0  0.72933  0.93053  0.33660  1.0000
  C   C148      1.0  0.75312  0.94886  0.32729  1.0000
  C   C149      1.0  0.78574  0.94301  0.33172  1.0000
  C   C150      1.0  0.79415  0.91783  0.34412  1.0000
  H   H100      1.0  0.74653  0.96702  0.32099  1.0000
  H   H101      1.0  0.81747  0.91308  0.34186  1.0000
  H   H102      1.0  0.72246  0.89206  0.35595  1.0000
  C   C151      1.0  0.27128  0.61234  0.33670  1.0000
  C   C152      1.0  0.23897  0.60590  0.34072  1.0000
  C   C153      1.0  0.22868  0.58116  0.35327  1.0000
  C   C154      1.0  0.25208  0.56249  0.36136  1.0000
  C   C155      1.0  0.28481  0.56789  0.35700  1.0000
  C   C156      1.0  0.29369  0.59303  0.34567  1.0000
  H   H103      1.0  0.24506  0.54441  0.36682  1.0000
  H   H104      1.0  0.31710  0.59749  0.34804  1.0000
  H   H105      1.0  0.22250  0.61972  0.33528  1.0000
  C   C157      1.0  0.73968  0.39888  0.33508  1.0000
  C   C158      1.0  0.77187  0.40569  0.33905  1.0000
  C   C159      1.0  0.78172  0.43055  0.35214  1.0000
  C   C160      1.0  0.75794  0.44889  0.36133  1.0000
  C   C161      1.0  0.72532  0.44306  0.35705  1.0000
  C   C162      1.0  0.71689  0.41787  0.34487  1.0000
  H   H106      1.0  0.76456  0.46705  0.36753  1.0000
  H   H107      1.0  0.69357  0.41312  0.34714  1.0000
  H   H108      1.0  0.78856  0.39207  0.33295  1.0000
  C   C163      1.0  0.40323  0.30806  0.35201  1.0000
  C   C164      1.0  0.37206  0.29923  0.35939  1.0000
  C   C165      1.0  0.34573  0.31523  0.35472  1.0000
  C   C166      1.0  0.35147  0.34098  0.34459  1.0000
  C   C167      1.0  0.38249  0.35056  0.33634  1.0000
  C   C168      1.0  0.40812  0.33368  0.33855  1.0000
  H   H109      1.0  0.33277  0.35283  0.33858  1.0000
  H   H110      1.0  0.43077  0.34020  0.33493  1.0000
  H   H111      1.0  0.36846  0.28056  0.36775  1.0000
  C   C169      1.0  0.60801  0.70212  0.35471  1.0000
  C   C170      1.0  0.63908  0.71118  0.36229  1.0000
  C   C171      1.0  0.66557  0.69536  0.35739  1.0000
  C   C172      1.0  0.66015  0.66959  0.34676  1.0000
  C   C173      1.0  0.62924  0.65983  0.33828  1.0000
  C   C174      1.0  0.60340  0.67650  0.34075  1.0000
  H   H112      1.0  0.67897  0.65786  0.34065  1.0000
  H   H113      1.0  0.58084  0.66981  0.33690  1.0000
  H   H114      1.0  0.64246  0.72986  0.37101  1.0000
  C   C175      1.0  0.10777  0.80804  0.33672  1.0000
  C   C176      1.0  0.13895  0.79921  0.32936  1.0000
  C   C177      1.0  0.16527  0.81521  0.33408  1.0000
  C   C178      1.0  0.15954  0.84095  0.34426  1.0000
  C   C179      1.0  0.12852  0.85054  0.35245  1.0000
  C   C180      1.0  0.10289  0.83366  0.35019  1.0000
  H   H115      1.0  0.17823  0.85281  0.35023  1.0000
  H   H116      1.0  0.08024  0.84019  0.35380  1.0000
  H   H117      1.0  0.14254  0.78054  0.32097  1.0000
  C   C181      1.0  0.90300  0.20204  0.33380  1.0000
  C   C182      1.0  0.87193  0.21111  0.32629  1.0000
  C   C183      1.0  0.84543  0.19531  0.33122  1.0000
  C   C184      1.0  0.85083  0.16953  0.34174  1.0000
  C   C185      1.0  0.88174  0.15976  0.35013  1.0000
  C   C186      1.0  0.90758  0.17641  0.34763  1.0000
  H   H118      1.0  0.83201  0.15780  0.34785  1.0000
  H   H119      1.0  0.93015  0.16971  0.35155  1.0000
  H   H120      1.0  0.86857  0.22980  0.31763  1.0000
  C   C187      1.0  0.21335  0.21538  0.36469  1.0000
  C   C188      1.0  0.23877  0.23231  0.35856  1.0000
  C   C189      1.0  0.23412  0.25831  0.36459  1.0000
  C   C190      1.0  0.20291  0.26726  0.37416  1.0000
  C   C191      1.0  0.17688  0.25098  0.37906  1.0000
  C   C192      1.0  0.18255  0.22521  0.37296  1.0000
  H   H121      1.0  0.19897  0.28597  0.37751  1.0000
  H   H122      1.0  0.16374  0.21333  0.37214  1.0000
  H   H123      1.0  0.26126  0.22550  0.35424  1.0000
  C   C193      1.0  0.79726  0.79580  0.36754  1.0000
  C   C194      1.0  0.77189  0.77882  0.36148  1.0000
  C   C195      1.0  0.77666  0.75283  0.36754  1.0000
  C   C196      1.0  0.80790  0.74396  0.37701  1.0000
  C   C197      1.0  0.83387  0.76029  0.38183  1.0000
  C   C198      1.0  0.82810  0.78605  0.37574  1.0000
  H   H124      1.0  0.81190  0.72526  0.38034  1.0000
  H   H125      1.0  0.84686  0.79798  0.37480  1.0000
  H   H126      1.0  0.74937  0.78558  0.35721  1.0000
  C   C199      1.0  0.29768  0.71537  0.32408  1.0000
  C   C200      1.0  0.27225  0.73230  0.33032  1.0000
  C   C201      1.0  0.27690  0.75830  0.32418  1.0000
  C   C202      1.0  0.30810  0.76725  0.31462  1.0000
  C   C203      1.0  0.33413  0.75098  0.30973  1.0000
  C   C204      1.0  0.32847  0.72520  0.31580  1.0000
  H   H127      1.0  0.31204  0.78596  0.31126  1.0000
  H   H128      1.0  0.34728  0.71332  0.31659  1.0000
  H   H129      1.0  0.24976  0.72548  0.33448  1.0000
  C   C205      1.0  0.71378  0.29582  0.32135  1.0000
  C   C206      1.0  0.73915  0.27884  0.32743  1.0000
  C   C207      1.0  0.73439  0.25285  0.32118  1.0000
  C   C208      1.0  0.70315  0.24398  0.31172  1.0000
  C   C209      1.0  0.67718  0.26031  0.30701  1.0000
  C   C210      1.0  0.68294  0.28607  0.31321  1.0000
  H   H130      1.0  0.69914  0.22527  0.30830  1.0000
  H   H131      1.0  0.66418  0.29799  0.31416  1.0000
  H   H132      1.0  0.76167  0.28560  0.33152  1.0000
  C   C211      1.0  0.99748  0.27471  0.34283  1.0000
  C   C212      1.0  0.98923  0.30001  0.33799  1.0000
  C   C213      1.0  0.01202  0.31907  0.34496  1.0000
  C   C214      1.0  0.04381  0.31227  0.36057  1.0000
  C   C215      1.0  0.05261  0.28702  0.36937  1.0000
  C   C216      1.0  0.02915  0.26852  0.36059  1.0000
  H   H133      1.0  0.06067  0.32578  0.36545  1.0000
  H   H134      1.0  0.03538  0.25017  0.36345  1.0000
  H   H135      1.0  0.96596  0.30465  0.33027  1.0000
  C   C217      1.0  0.01327  0.73522  0.34614  1.0000
  C   C218      1.0  0.02097  0.70980  0.34097  1.0000
  C   C219      1.0  0.99777  0.69105  0.34800  1.0000
  C   C220      1.0  0.96613  0.69824  0.36357  1.0000
  C   C221      1.0  0.95786  0.72358  0.37252  1.0000
  C   C222      1.0  0.98171  0.74179  0.36394  1.0000
  H   H136      1.0  0.94899  0.68494  0.36826  1.0000
  H   H137      1.0  0.97582  0.76021  0.36684  1.0000
  H   H138      1.0  0.04411  0.70484  0.33303  1.0000
  C   C223      1.0  0.51352  0.77478  0.34583  1.0000
  C   C224      1.0  0.52176  0.80009  0.35069  1.0000
  C   C225      1.0  0.49895  0.81914  0.34378  1.0000
  C   C226      1.0  0.46716  0.81232  0.32820  1.0000
  C   C227      1.0  0.45838  0.78708  0.31938  1.0000
  C   C228      1.0  0.48185  0.76858  0.32810  1.0000
  H   H139      1.0  0.45029  0.82583  0.32335  1.0000
  H   H140      1.0  0.47563  0.75023  0.32523  1.0000
  H   H141      1.0  0.54502  0.80473  0.35840  1.0000
  C   C229      1.0  0.49775  0.23525  0.34252  1.0000
  C   C230      1.0  0.49005  0.20983  0.34764  1.0000
  C   C231      1.0  0.51326  0.19108  0.34066  1.0000
  C   C232      1.0  0.54490  0.19828  0.32513  1.0000
  C   C233      1.0  0.55317  0.22363  0.31620  1.0000
  C   C234      1.0  0.52932  0.24182  0.32483  1.0000
  H   H142      1.0  0.56205  0.18498  0.32046  1.0000
  H   H143      1.0  0.53519  0.26025  0.32189  1.0000
  H   H144      1.0  0.46691  0.20486  0.35553  1.0000
  C   C235      1.0  0.52393  0.98340  0.35011  1.0000
  C   C236      1.0  0.49899  0.98540  0.41280  1.0000
  C   C237      1.0  0.47955  0.00674  0.41561  1.0000
  C   C238      1.0  0.48533  0.02598  0.35189  1.0000
  H   H145      1.0  0.49537  0.97136  0.45804  1.0000
  C   C239      1.0  0.45539  0.00883  0.48792  1.0000
  H   H146      1.0  0.45824  0.99471  0.54003  1.0000
  H   H147      1.0  0.43184  0.00665  0.45982  1.0000
  H   H148      1.0  0.45709  0.02687  0.52086  1.0000
  N   N37       1.0  0.00064  0.52285  0.39318  1.0000
  N   N38       1.0  0.98264  0.50309  0.39411  1.0000
  N   N39       1.0  0.36652  0.08590  0.38014  1.0000
  N   N40       1.0  0.33599  0.08894  0.38287  1.0000
  N   N41       1.0  0.64531  0.92641  0.38322  1.0000
  N   N42       1.0  0.67582  0.92327  0.38533  1.0000
  C   C240      1.0  0.19559  0.57573  0.35728  1.0000
  C   C241      1.0  0.18207  0.55811  0.41626  1.0000
  C   C242      1.0  0.14888  0.55484  0.42106  1.0000
  C   C243      1.0  0.12941  0.56940  0.36324  1.0000
  H   H149      1.0  0.19644  0.54841  0.45896  1.0000
  C   C244      1.0  0.13574  0.53784  0.49044  1.0000
  H   H150      1.0  0.15340  0.53208  0.53968  1.0000
  H   H151      1.0  0.12665  0.52111  0.45860  1.0000
  H   H152      1.0  0.11676  0.54695  0.52746  1.0000
  C   C245      1.0  0.81475  0.43636  0.35518  1.0000
  C   C246      1.0  0.82835  0.45415  0.41340  1.0000
  C   C247      1.0  0.86157  0.45754  0.41737  1.0000
  C   C248      1.0  0.88098  0.44293  0.35960  1.0000
  H   H153      1.0  0.81405  0.46387  0.45622  1.0000
  C   C249      1.0  0.87491  0.47474  0.48571  1.0000
  H   H154      1.0  0.85716  0.48142  0.53311  1.0000
  H   H155      1.0  0.88502  0.49092  0.45263  1.0000
  H   H156      1.0  0.89318  0.46540  0.52482  1.0000
  C   C250      1.0  0.50408  0.16583  0.35073  1.0000
  C   C251      1.0  0.48547  0.15803  0.42435  1.0000
  C   C252      1.0  0.47283  0.13380  0.42728  1.0000
  C   C253      1.0  0.47932  0.11768  0.35369  1.0000
  H   H157      1.0  0.48069  0.17025  0.47537  1.0000
  C   C254      1.0  0.45395  0.12590  0.50675  1.0000
  H   H158      1.0  0.45384  0.13977  0.56031  1.0000
  H   H159      1.0  0.46374  0.10884  0.53473  1.0000
  H   H160      1.0  0.42954  0.12260  0.48729  1.0000
  C   C255      1.0  0.50877  0.84427  0.35329  1.0000
  C   C256      1.0  0.52860  0.85176  0.42475  1.0000
  C   C257      1.0  0.54167  0.87585  0.42678  1.0000
  C   C258      1.0  0.53440  0.89215  0.35433  1.0000
  H   H161      1.0  0.53383  0.83944  0.47508  1.0000
  C   C259      1.0  0.56156  0.88346  0.50462  1.0000
  H   H162      1.0  0.56201  0.86952  0.55797  1.0000
  H   H163      1.0  0.55241  0.90059  0.53375  1.0000
  H   H164      1.0  0.58580  0.88649  0.48301  1.0000
  N   N43       1.0  0.01299  0.62637  0.40250  1.0000
  N   N44       1.0  0.00136  0.64890  0.40395  1.0000
  N   N45       1.0  0.99668  0.38375  0.39931  1.0000
  N   N46       1.0  0.00863  0.36133  0.40007  1.0000
  C   C260      1.0  0.47313  0.49839  0.36947  1.0000
  C   C261      1.0  0.48249  0.51621  0.43381  1.0000
  C   C262      1.0  0.51426  0.52423  0.43924  1.0000
  C   C263      1.0  0.53645  0.51428  0.37673  1.0000
  H   H165      1.0  0.46620  0.52287  0.47854  1.0000
  C   C264      1.0  0.52365  0.54143  0.51293  1.0000
  H   H166      1.0  0.50507  0.54382  0.56308  1.0000
  H   H167      1.0  0.52913  0.55970  0.48594  1.0000
  H   H168      1.0  0.54434  0.53420  0.54788  1.0000
  N   N47       1.0  0.98543  0.99685  0.37092  1.0000
  N   N48       1.0  0.01480  0.98936  0.37390  1.0000
  N   N49       1.0  0.37941  0.41667  0.38441  1.0000
  N   N50       1.0  0.37368  0.39281  0.38493  1.0000
  N   N51       1.0  0.63192  0.59382  0.38726  1.0000
  N   N52       1.0  0.63768  0.61767  0.38791  1.0000
  C   C265      1.0  0.12294  0.87655  0.36050  1.0000
  C   C266      1.0  0.10158  0.88666  0.42356  1.0000
  C   C267      1.0  0.09553  0.91248  0.42608  1.0000
  C   C268      1.0  0.11092  0.92787  0.36159  1.0000
  H   H169      1.0  0.09079  0.87513  0.46886  1.0000
  C   C269      1.0  0.07501  0.92259  0.49861  1.0000
  H   H170      1.0  0.06999  0.90892  0.55092  1.0000
  H   H171      1.0  0.05250  0.92860  0.47090  1.0000
  H   H172      1.0  0.08651  0.93833  0.53113  1.0000
  C   C270      1.0  0.88704  0.13376  0.35869  1.0000
  C   C271      1.0  0.90765  0.12363  0.42366  1.0000
  C   C272      1.0  0.91376  0.09783  0.42626  1.0000
  C   C273      1.0  0.89915  0.08253  0.36005  1.0000
  H   H173      1.0  0.91797  0.13514  0.46993  1.0000
  C   C274      1.0  0.93353  0.08761  0.50027  1.0000
  H   H174      1.0  0.93802  0.10122  0.55320  1.0000
  H   H175      1.0  0.95632  0.08162  0.47442  1.0000
  H   H176      1.0  0.92169  0.07184  0.53151  1.0000
  C   C275      1.0  0.30844  0.54884  0.36268  1.0000
  C   C276      1.0  0.30586  0.52777  0.41880  1.0000
  C   C277      1.0  0.33012  0.50967  0.42219  1.0000
  C   C278      1.0  0.35706  0.51290  0.36584  1.0000
  H   H177      1.0  0.28658  0.52600  0.45970  1.0000
  C   C279      1.0  0.32752  0.48907  0.48846  1.0000
  H   H178      1.0  0.30829  0.49186  0.53630  1.0000
  H   H179      1.0  0.34927  0.48752  0.52736  1.0000
  H   H180      1.0  0.32310  0.47161  0.45384  1.0000
  C   C280      1.0  0.70128  0.46173  0.36376  1.0000
  C   C281      1.0  0.70311  0.48216  0.42307  1.0000
  C   C282      1.0  0.67850  0.49992  0.42759  1.0000
  C   C283      1.0  0.65207  0.49704  0.36906  1.0000
  H   H181      1.0  0.72207  0.48366  0.46536  1.0000
  C   C284      1.0  0.68017  0.51981  0.49693  1.0000
  H   H182      1.0  0.69928  0.51687  0.54503  1.0000
  H   H183      1.0  0.65820  0.52047  0.53518  1.0000
  H   H184      1.0  0.68412  0.53775  0.46518  1.0000
  N   N53       1.0  0.15312  0.03394  0.37376  1.0000
  N   N54       1.0  0.17557  0.05060  0.37515  1.0000
  N   N55       1.0  0.85913  0.97660  0.37385  1.0000
  N   N56       1.0  0.83635  0.96020  0.37615  1.0000
  C   C285      1.0  0.21846  0.18917  0.36522  1.0000
  C   C286      1.0  0.20256  0.17309  0.42515  1.0000
  C   C287      1.0  0.20859  0.14725  0.42502  1.0000
  C   C288      1.0  0.23061  0.13782  0.36114  1.0000
  H   H185      1.0  0.18725  0.18040  0.47137  1.0000
  C   C289      1.0  0.19354  0.13147  0.49512  1.0000
  H   H186      1.0  0.18188  0.14239  0.54736  1.0000
  H   H187      1.0  0.21126  0.11999  0.52829  1.0000
  H   H188      1.0  0.17574  0.11956  0.46481  1.0000
  C   C290      1.0  0.79206  0.82199  0.36817  1.0000
  C   C291      1.0  0.80776  0.83803  0.42865  1.0000
  C   C292      1.0  0.80183  0.86387  0.42829  1.0000
  C   C293      1.0  0.78008  0.87333  0.36371  1.0000
  H   H189      1.0  0.82295  0.83070  0.47516  1.0000
  C   C294      1.0  0.81670  0.87965  0.49868  1.0000
  H   H190      1.0  0.82822  0.86874  0.55119  1.0000
  H   H191      1.0  0.79890  0.89115  0.53142  1.0000
  H   H192      1.0  0.83459  0.89157  0.46876  1.0000
  N   N57       1.0  0.26570  0.65468  0.38157  1.0000
  N   N58       1.0  0.27119  0.67856  0.37976  1.0000
  N   N59       1.0  0.74559  0.35652  0.37947  1.0000
  N   N60       1.0  0.74017  0.33263  0.37746  1.0000
  C   C295      1.0  0.26031  0.27493  0.36311  1.0000
  C   C296      1.0  0.26305  0.29577  0.42047  1.0000
  C   C297      1.0  0.29057  0.31070  0.41976  1.0000
  C   C298      1.0  0.31496  0.30443  0.35799  1.0000
  H   H193      1.0  0.24554  0.29935  0.46609  1.0000
  C   C299      1.0  0.29398  0.33094  0.48701  1.0000
  H   H194      1.0  0.27462  0.33132  0.53550  1.0000
  H   H195      1.0  0.29435  0.34885  0.45308  1.0000
  H   H196      1.0  0.31583  0.32860  0.52490  1.0000
  C   C300      1.0  0.75058  0.73613  0.36612  1.0000
  C   C301      1.0  0.74802  0.71526  0.42338  1.0000
  C   C302      1.0  0.72062  0.70020  0.42261  1.0000
  C   C303      1.0  0.69620  0.70635  0.36078  1.0000
  H   H197      1.0  0.76551  0.71178  0.46914  1.0000
  C   C304      1.0  0.71737  0.67993  0.48980  1.0000
  H   H198      1.0  0.73672  0.67963  0.53831  1.0000
  H   H199      1.0  0.71715  0.66202  0.45582  1.0000
  H   H200      1.0  0.69549  0.68215  0.52766  1.0000
  N   N61       1.0  0.20074  0.78402  0.38336  1.0000
  N   N62       1.0  0.22603  0.77028  0.38128  1.0000
  N   N63       1.0  0.81032  0.22673  0.38034  1.0000
  N   N64       1.0  0.78517  0.24064  0.37819  1.0000
  C   C305      1.0  0.42856  0.29101  0.35826  1.0000
  C   C306      1.0  0.43133  0.27454  0.43170  1.0000
  C   C307      1.0  0.45457  0.25578  0.43164  1.0000
  C   C308      1.0  0.47433  0.25382  0.35443  1.0000
  H   H201      1.0  0.41627  0.27625  0.48527  1.0000
  C   C309      1.0  0.45834  0.23980  0.51266  1.0000
  H   H202      1.0  0.44417  0.24620  0.56950  1.0000
  H   H203      1.0  0.48293  0.23975  0.53426  1.0000
  H   H204      1.0  0.45111  0.22087  0.49772  1.0000
  C   C310      1.0  0.58251  0.71897  0.36130  1.0000
  C   C311      1.0  0.57944  0.73516  0.43546  1.0000
  C   C312      1.0  0.55614  0.75386  0.43557  1.0000
  C   C313      1.0  0.53664  0.75602  0.35793  1.0000
  H   H205      1.0  0.59438  0.73333  0.48926  1.0000
  C   C314      1.0  0.55213  0.76966  0.51696  1.0000
  H   H206      1.0  0.56622  0.76319  0.57385  1.0000
  H   H207      1.0  0.52749  0.76958  0.53814  1.0000
  H   H208      1.0  0.55929  0.78866  0.50268  1.0000
  N   N65       1.0  0.04043  0.77082  0.40115  1.0000
  N   N66       1.0  0.06190  0.78823  0.39980  1.0000
  N   N67       1.0  0.97033  0.23919  0.39835  1.0000
  N   N68       1.0  0.94881  0.22182  0.39711  1.0000
  C   C315      1.0  0.08439  0.27960  0.38255  1.0000
  C   C316      1.0  0.09306  0.26301  0.45179  1.0000
  C   C317      1.0  0.12399  0.25332  0.45620  1.0000
  C   C318      1.0  0.14563  0.26038  0.38750  1.0000
  H   H209      1.0  0.07665  0.25791  0.49887  1.0000
  C   C319      1.0  0.13300  0.23721  0.53339  1.0000
  H   H210      1.0  0.11490  0.23669  0.58565  1.0000
  H   H211      1.0  0.15462  0.24411  0.56441  1.0000
  H   H212      1.0  0.13679  0.21823  0.51074  1.0000
  C   C320      1.0  0.92621  0.73138  0.38537  1.0000
  C   C321      1.0  0.91775  0.74822  0.45402  1.0000
  C   C322      1.0  0.88690  0.75807  0.45834  1.0000
  C   C323      1.0  0.86514  0.75093  0.39010  1.0000
  H   H213      1.0  0.93424  0.75334  0.50085  1.0000
  C   C324      1.0  0.87810  0.77441  0.53511  1.0000
  H   H214      1.0  0.89623  0.77492  0.58729  1.0000
  H   H215      1.0  0.85643  0.76772  0.56641  1.0000
  H   H216      1.0  0.87451  0.79336  0.51194  1.0000
  N   N69       1.0  0.37547  0.77688  0.36449  1.0000
  N   N70       1.0  0.40412  0.78587  0.36720  1.0000
  N   N71       1.0  0.63600  0.23419  0.36127  1.0000
  N   N72       1.0  0.60743  0.22506  0.36388  1.0000
