data_image0
_chemical_formula_structural       C4HC6H3C4HC6H3C4HC6H3C4HC6H3CNCHNHCNCHNHCNCHNHCNCHNHCNCHNHCNCHNHCNCHNHCNCHNHC4HC6H3C4HC6H3C4HC6H3C4HC6H3C4HC6H3C4HC6H3C4HC6H3C4HC6H3CNCHNHCNCHNHCNCHNHCNCHNHCNCHNHCNCHNHCNCHNHCNCHNHCNCHNHCNCHNHC6H3C6H3C6H3C6H3C6H3C6H3C6H3C6H3C6H3C6H3C6H3C6H3C6H3C6H3C6H3C6H3C6H3C6H3C6H3C6H3CNCHNHCNCHNHCNCHNHCNCHNHC4HC6H3C4HC6H3C4HC6H3C4HC6H3C4HC6H3C4HC6H3C4HC6H3C4HC6H3CNCHNHCNCHNHCNCHNHCNCHNHCNCHNHCNCHNHCNCHNHCNCHNHC4HC6H3C4HC6H3C4HC6H3C4HC6H3C4HC6H3C4HC6H3C4HC6H3C4HC6H3C4HC6H3C4HC6H3
_chemical_formula_sum              "C480 H240 N60"
_cell_length_a       65.8901
_cell_length_b       65.8901
_cell_length_c       14.94
_cell_angle_alpha    90
_cell_angle_beta     90
_cell_angle_gamma    90

_space_group_name_H-M_alt    "P 1"
_space_group_IT_number       1

loop_
  _space_group_symop_operation_xyz
  'x, y, z'

loop_
  _atom_site_type_symbol
  _atom_site_label
  _atom_site_symmetry_multiplicity
  _atom_site_fract_x
  _atom_site_fract_y
  _atom_site_fract_z
  _atom_site_occupancy
  C   C1        1.0  0.28895  0.03311  0.32799  1.0000
  C   C2        1.0  0.33048  0.04271  0.32609  1.0000
  C   C3        1.0  0.32131  0.03494  0.24709  1.0000
  C   C4        1.0  0.30044  0.03004  0.24931  1.0000
  H   H1        1.0  0.29345  0.02476  0.19265  1.0000
  C   C5        1.0  0.35124  0.04788  0.32639  1.0000
  C   C6        1.0  0.39247  0.05849  0.32989  1.0000
  C   C7        1.0  0.38386  0.05057  0.25070  1.0000
  C   C8        1.0  0.36309  0.04531  0.24769  1.0000
  C   C9        1.0  0.35385  0.03772  0.16927  1.0000
  C   C10       1.0  0.33313  0.03259  0.16895  1.0000
  H   H2        1.0  0.36213  0.03587  0.11186  1.0000
  H   H3        1.0  0.32675  0.02714  0.11130  1.0000
  H   H4        1.0  0.39269  0.04889  0.19474  1.0000
  C   C11       1.0  0.71506  0.97090  0.32803  1.0000
  C   C12       1.0  0.67353  0.96130  0.32613  1.0000
  C   C13       1.0  0.68269  0.96908  0.24716  1.0000
  C   C14       1.0  0.70356  0.97398  0.24937  1.0000
  H   H5        1.0  0.71055  0.97929  0.19275  1.0000
  C   C15       1.0  0.65276  0.95613  0.32643  1.0000
  C   C16       1.0  0.61154  0.94552  0.32992  1.0000
  C   C17       1.0  0.62014  0.95347  0.25077  1.0000
  C   C18       1.0  0.64091  0.95873  0.24777  1.0000
  C   C19       1.0  0.65014  0.96634  0.16937  1.0000
  C   C20       1.0  0.67087  0.97146  0.16905  1.0000
  H   H6        1.0  0.64187  0.96820  0.11198  1.0000
  H   H7        1.0  0.67724  0.97693  0.11141  1.0000
  H   H8        1.0  0.61131  0.95516  0.19482  1.0000
  C   C21       1.0  0.97088  0.28893  0.32799  1.0000
  C   C22       1.0  0.96129  0.33047  0.32605  1.0000
  C   C23       1.0  0.96917  0.32132  0.24722  1.0000
  C   C24       1.0  0.97407  0.30046  0.24947  1.0000
  H   H9        1.0  0.97944  0.29348  0.19293  1.0000
  C   C25       1.0  0.95611  0.35123  0.32631  1.0000
  C   C26       1.0  0.94550  0.39246  0.32975  1.0000
  C   C27       1.0  0.95355  0.38387  0.25075  1.0000
  C   C28       1.0  0.95881  0.36310  0.24777  1.0000
  C   C29       1.0  0.96652  0.35389  0.16951  1.0000
  C   C30       1.0  0.97165  0.33317  0.16922  1.0000
  H   H10       1.0  0.96845  0.36218  0.11222  1.0000
  H   H11       1.0  0.97718  0.32681  0.11170  1.0000
  H   H12       1.0  0.95532  0.39272  0.19491  1.0000
  C   C31       1.0  0.03308  0.71505  0.32815  1.0000
  C   C32       1.0  0.04267  0.67352  0.32627  1.0000
  C   C33       1.0  0.03508  0.68272  0.24703  1.0000
  C   C34       1.0  0.03018  0.70359  0.24923  1.0000
  H   H13       1.0  0.02501  0.71061  0.19244  1.0000
  C   C35       1.0  0.04785  0.65275  0.32657  1.0000
  C   C36       1.0  0.05847  0.61153  0.33007  1.0000
  C   C37       1.0  0.05071  0.62018  0.25064  1.0000
  C   C38       1.0  0.04545  0.64095  0.24764  1.0000
  C   C39       1.0  0.03803  0.65022  0.16899  1.0000
  C   C40       1.0  0.03289  0.67094  0.16868  1.0000
  H   H14       1.0  0.03631  0.64198  0.11143  1.0000
  H   H15       1.0  0.02757  0.67735  0.11086  1.0000
  H   H16       1.0  0.04917  0.61138  0.19451  1.0000
  C   C41       1.0  0.20587  0.54651  0.27693  1.0000
  N   N1        1.0  0.18576  0.55060  0.28089  1.0000
  C   C42       1.0  0.12488  0.56627  0.28180  1.0000
  H   H17       1.0  0.21406  0.55247  0.22508  1.0000
  N   N2        1.0  0.14467  0.56073  0.28364  1.0000
  H   H18       1.0  0.12000  0.57535  0.23064  1.0000
  C   C43       1.0  0.79813  0.45750  0.27726  1.0000
  N   N3        1.0  0.81824  0.45341  0.28123  1.0000
  C   C44       1.0  0.87912  0.43775  0.28215  1.0000
  H   H19       1.0  0.78995  0.45153  0.22542  1.0000
  N   N4        1.0  0.85933  0.44329  0.28399  1.0000
  H   H20       1.0  0.88400  0.42867  0.23101  1.0000
  C   C45       1.0  0.54651  0.79813  0.27712  1.0000
  N   N5        1.0  0.55060  0.81824  0.28107  1.0000
  C   C46       1.0  0.56626  0.87911  0.28194  1.0000
  H   H21       1.0  0.55246  0.78994  0.22525  1.0000
  N   N6        1.0  0.56073  0.85933  0.28380  1.0000
  H   H22       1.0  0.57533  0.88400  0.23076  1.0000
  C   C47       1.0  0.45748  0.20588  0.27720  1.0000
  N   N7        1.0  0.45339  0.18577  0.28117  1.0000
  C   C48       1.0  0.43774  0.12489  0.28208  1.0000
  H   H23       1.0  0.45151  0.21406  0.22538  1.0000
  N   N8        1.0  0.44327  0.14467  0.28392  1.0000
  H   H24       1.0  0.42865  0.12001  0.23097  1.0000
  C   C49       1.0  0.20592  0.06643  0.29712  1.0000
  N   N9        1.0  0.19754  0.08529  0.30113  1.0000
  C   C50       1.0  0.17345  0.14430  0.29225  1.0000
  H   H25       1.0  0.20270  0.05749  0.24305  1.0000
  N   N10       1.0  0.18099  0.12515  0.29848  1.0000
  H   H26       1.0  0.16415  0.14772  0.23961  1.0000
  C   C51       1.0  0.79807  0.93756  0.29696  1.0000
  N   N11       1.0  0.80648  0.91873  0.30107  1.0000
  C   C52       1.0  0.83058  0.85973  0.29227  1.0000
  H   H27       1.0  0.80135  0.94654  0.24305  1.0000
  N   N12       1.0  0.82305  0.87888  0.29850  1.0000
  H   H28       1.0  0.83990  0.85631  0.23968  1.0000
  C   C53       1.0  0.93759  0.20590  0.29715  1.0000
  N   N13       1.0  0.91874  0.19752  0.30117  1.0000
  C   C54       1.0  0.85973  0.17344  0.29229  1.0000
  H   H29       1.0  0.94653  0.20268  0.24306  1.0000
  N   N14       1.0  0.87888  0.18098  0.29852  1.0000
  H   H30       1.0  0.85630  0.16415  0.23964  1.0000
  C   C55       1.0  0.06646  0.79804  0.29704  1.0000
  N   N15       1.0  0.08529  0.80646  0.30115  1.0000
  C   C56       1.0  0.14429  0.83057  0.29233  1.0000
  H   H31       1.0  0.05748  0.80132  0.24315  1.0000
  N   N16       1.0  0.12514  0.82303  0.29856  1.0000
  H   H32       1.0  0.14770  0.83989  0.23974  1.0000
  C   C57       1.0  0.28410  0.56111  0.31303  1.0000
  C   C58       1.0  0.30268  0.59986  0.30953  1.0000
  C   C59       1.0  0.28882  0.59440  0.24072  1.0000
  C   C60       1.0  0.27987  0.57495  0.24297  1.0000
  H   H33       1.0  0.26919  0.57125  0.19580  1.0000
  C   C61       1.0  0.31070  0.61981  0.31220  1.0000
  C   C62       1.0  0.32528  0.66015  0.32354  1.0000
  C   C63       1.0  0.31204  0.65438  0.25358  1.0000
  C   C64       1.0  0.30471  0.63429  0.24670  1.0000
  C   C65       1.0  0.29129  0.62852  0.17767  1.0000
  C   C66       1.0  0.28345  0.60871  0.17456  1.0000
  H   H34       1.0  0.28679  0.63878  0.13022  1.0000
  H   H35       1.0  0.27334  0.60503  0.12515  1.0000
  H   H36       1.0  0.30766  0.66494  0.20710  1.0000
  C   C67       1.0  0.71989  0.44294  0.31315  1.0000
  C   C68       1.0  0.70132  0.40416  0.30965  1.0000
  C   C69       1.0  0.71518  0.40963  0.24085  1.0000
  C   C70       1.0  0.72413  0.42908  0.24317  1.0000
  H   H37       1.0  0.73478  0.43279  0.19590  1.0000
  C   C71       1.0  0.69330  0.38422  0.31230  1.0000
  C   C72       1.0  0.67873  0.34387  0.32356  1.0000
  C   C73       1.0  0.69198  0.34965  0.25362  1.0000
  C   C74       1.0  0.69929  0.36974  0.24676  1.0000
  C   C75       1.0  0.71271  0.37552  0.17773  1.0000
  C   C76       1.0  0.72054  0.39533  0.17462  1.0000
  H   H38       1.0  0.71722  0.36526  0.13029  1.0000
  H   H39       1.0  0.73067  0.39901  0.12530  1.0000
  H   H40       1.0  0.69635  0.33909  0.20711  1.0000
  C   C77       1.0  0.56109  0.71989  0.31303  1.0000
  C   C78       1.0  0.59986  0.70134  0.30959  1.0000
  C   C79       1.0  0.59439  0.71518  0.24076  1.0000
  C   C80       1.0  0.57494  0.72412  0.24301  1.0000
  H   H41       1.0  0.57124  0.73479  0.19582  1.0000
  C   C81       1.0  0.61981  0.69332  0.31226  1.0000
  C   C82       1.0  0.66015  0.67874  0.32355  1.0000
  C   C83       1.0  0.65437  0.69198  0.25359  1.0000
  C   C84       1.0  0.63428  0.69930  0.24672  1.0000
  C   C85       1.0  0.62850  0.71271  0.17768  1.0000
  C   C86       1.0  0.60870  0.72055  0.17458  1.0000
  H   H42       1.0  0.63876  0.71721  0.13020  1.0000
  H   H43       1.0  0.60501  0.73065  0.12514  1.0000
  H   H44       1.0  0.66493  0.69635  0.20708  1.0000
  C   C87       1.0  0.44293  0.28412  0.31315  1.0000
  C   C88       1.0  0.40416  0.30269  0.30966  1.0000
  C   C89       1.0  0.40963  0.28883  0.24086  1.0000
  C   C90       1.0  0.42907  0.27988  0.24317  1.0000
  H   H45       1.0  0.43278  0.26923  0.19591  1.0000
  C   C91       1.0  0.38421  0.31071  0.31230  1.0000
  C   C92       1.0  0.34387  0.32529  0.32358  1.0000
  C   C93       1.0  0.34965  0.31204  0.25364  1.0000
  C   C94       1.0  0.36974  0.30473  0.24678  1.0000
  C   C95       1.0  0.37552  0.29131  0.17775  1.0000
  C   C96       1.0  0.39533  0.28348  0.17463  1.0000
  H   H46       1.0  0.36526  0.28680  0.13032  1.0000
  H   H47       1.0  0.39900  0.27334  0.12531  1.0000
  H   H48       1.0  0.33909  0.30767  0.20714  1.0000
  C   C97       1.0  0.20912  0.88067  0.32584  1.0000
  C   C98       1.0  0.21714  0.92288  0.31467  1.0000
  C   C99       1.0  0.22664  0.90937  0.25339  1.0000
  C   C100      1.0  0.22257  0.88835  0.26018  1.0000
  H   H49       1.0  0.22925  0.87855  0.21589  1.0000
  C   C101      1.0  0.22137  0.94394  0.31100  1.0000
  C   C102      1.0  0.23133  0.98585  0.31038  1.0000
  C   C103      1.0  0.23970  0.97247  0.24587  1.0000
  C   C104      1.0  0.23504  0.95155  0.24559  1.0000
  C   C105      1.0  0.24412  0.93807  0.18402  1.0000
  C   C106      1.0  0.23999  0.91716  0.18799  1.0000
  H   H50       1.0  0.25409  0.94330  0.13685  1.0000
  H   H51       1.0  0.24698  0.90767  0.14339  1.0000
  H   H52       1.0  0.24982  0.97795  0.19975  1.0000
  C   C107      1.0  0.79489  0.12334  0.32586  1.0000
  C   C108      1.0  0.78687  0.08114  0.31470  1.0000
  C   C109      1.0  0.77737  0.09465  0.25344  1.0000
  C   C110      1.0  0.78144  0.11567  0.26021  1.0000
  H   H53       1.0  0.77475  0.12547  0.21593  1.0000
  C   C111      1.0  0.78264  0.06007  0.31105  1.0000
  C   C112      1.0  0.77267  0.01818  0.31050  1.0000
  C   C113      1.0  0.76430  0.03154  0.24597  1.0000
  C   C114      1.0  0.76896  0.05247  0.24568  1.0000
  C   C115      1.0  0.75988  0.06595  0.18411  1.0000
  C   C116      1.0  0.76402  0.08685  0.18805  1.0000
  H   H54       1.0  0.74990  0.06071  0.13698  1.0000
  H   H55       1.0  0.75701  0.09635  0.14350  1.0000
  H   H56       1.0  0.75417  0.02607  0.19987  1.0000
  C   C117      1.0  0.12335  0.20913  0.32580  1.0000
  C   C118      1.0  0.08114  0.21714  0.31467  1.0000
  C   C119      1.0  0.09465  0.22665  0.25340  1.0000
  C   C120      1.0  0.11567  0.22258  0.26018  1.0000
  H   H57       1.0  0.12548  0.22927  0.21588  1.0000
  C   C121      1.0  0.06008  0.22137  0.31103  1.0000
  C   C122      1.0  0.01818  0.23134  0.31048  1.0000
  C   C123      1.0  0.03154  0.23971  0.24595  1.0000
  C   C124      1.0  0.05247  0.23505  0.24564  1.0000
  C   C125      1.0  0.06595  0.24413  0.18408  1.0000
  C   C126      1.0  0.08685  0.24000  0.18803  1.0000
  H   H58       1.0  0.06071  0.25411  0.13692  1.0000
  H   H59       1.0  0.09635  0.24700  0.14344  1.0000
  H   H60       1.0  0.02607  0.24983  0.19984  1.0000
  C   C127      1.0  0.88068  0.79489  0.32585  1.0000
  C   C128      1.0  0.92288  0.78688  0.31470  1.0000
  C   C129      1.0  0.90938  0.77738  0.25341  1.0000
  C   C130      1.0  0.88836  0.78145  0.26019  1.0000
  H   H61       1.0  0.87856  0.77477  0.21588  1.0000
  C   C131      1.0  0.94395  0.78266  0.31106  1.0000
  C   C132      1.0  0.98586  0.77269  0.31047  1.0000
  C   C133      1.0  0.97249  0.76432  0.24595  1.0000
  C   C134      1.0  0.95156  0.76898  0.24566  1.0000
  C   C135      1.0  0.93808  0.75990  0.18407  1.0000
  C   C136      1.0  0.91718  0.76404  0.18801  1.0000
  H   H62       1.0  0.94332  0.74992  0.13692  1.0000
  H   H63       1.0  0.90768  0.75704  0.14344  1.0000
  H   H64       1.0  0.97796  0.75419  0.19986  1.0000
  C   C137      1.0  0.30321  0.39530  0.28818  1.0000
  N   N17       1.0  0.29902  0.41545  0.29424  1.0000
  C   C138      1.0  0.28656  0.47794  0.29770  1.0000
  H   H65       1.0  0.31279  0.39055  0.23864  1.0000
  N   N18       1.0  0.29061  0.45770  0.29941  1.0000
  H   H66       1.0  0.29283  0.48649  0.24777  1.0000
  C   C139      1.0  0.70082  0.60873  0.28815  1.0000
  N   N19       1.0  0.70500  0.58859  0.29425  1.0000
  C   C140      1.0  0.71747  0.52610  0.29773  1.0000
  H   H67       1.0  0.69123  0.61347  0.23864  1.0000
  N   N20       1.0  0.71340  0.54633  0.29945  1.0000
  H   H68       1.0  0.71118  0.51755  0.24785  1.0000
  C   C141      1.0  0.39530  0.70081  0.28817  1.0000
  N   N21       1.0  0.41544  0.70500  0.29423  1.0000
  C   C142      1.0  0.47793  0.71746  0.29773  1.0000
  H   H69       1.0  0.39055  0.69123  0.23862  1.0000
  N   N22       1.0  0.45769  0.71341  0.29943  1.0000
  H   H70       1.0  0.48648  0.71119  0.24781  1.0000
  C   C143      1.0  0.60872  0.30320  0.28815  1.0000
  N   N23       1.0  0.58858  0.29902  0.29425  1.0000
  C   C144      1.0  0.52609  0.28655  0.29769  1.0000
  H   H71       1.0  0.61347  0.31280  0.23866  1.0000
  N   N24       1.0  0.54633  0.29061  0.29943  1.0000
  H   H72       1.0  0.51754  0.29284  0.24782  1.0000
  C   C145      1.0  0.19417  0.24997  0.29148  1.0000
  N   N25       1.0  0.20882  0.26450  0.29458  1.0000
  C   C146      1.0  0.25351  0.31020  0.29129  1.0000
  H   H73       1.0  0.18298  0.25138  0.24453  1.0000
  N   N26       1.0  0.23915  0.29538  0.29473  1.0000
  H   H74       1.0  0.25186  0.32153  0.24514  1.0000
  C   C147      1.0  0.80985  0.75406  0.29143  1.0000
  N   N27       1.0  0.79521  0.73952  0.29457  1.0000
  C   C148      1.0  0.75051  0.69384  0.29124  1.0000
  H   H75       1.0  0.82105  0.75264  0.24455  1.0000
  N   N28       1.0  0.76487  0.70865  0.29471  1.0000
  H   H76       1.0  0.75216  0.68250  0.24512  1.0000
  C   C149      1.0  0.75406  0.19417  0.29152  1.0000
  N   N29       1.0  0.73952  0.20882  0.29461  1.0000
  C   C150      1.0  0.69383  0.25351  0.29128  1.0000
  H   H77       1.0  0.75264  0.18297  0.24458  1.0000
  N   N30       1.0  0.70865  0.23915  0.29473  1.0000
  H   H78       1.0  0.68250  0.25186  0.24514  1.0000
  C   C151      1.0  0.24996  0.80984  0.29145  1.0000
  N   N31       1.0  0.26450  0.79520  0.29458  1.0000
  C   C152      1.0  0.31019  0.75051  0.29123  1.0000
  H   H79       1.0  0.25138  0.82105  0.24456  1.0000
  N   N32       1.0  0.29537  0.76487  0.29471  1.0000
  H   H80       1.0  0.32152  0.75216  0.24510  1.0000
  C   C153      1.0  0.53176  0.97272  0.26629  1.0000
  N   N33       1.0  0.51711  0.98712  0.27044  1.0000
  C   C154      1.0  0.47206  0.03110  0.26633  1.0000
  H   H81       1.0  0.53666  0.96788  0.20494  1.0000
  N   N34       1.0  0.48672  0.01671  0.27047  1.0000
  H   H82       1.0  0.46705  0.03583  0.20500  1.0000
  C   C155      1.0  0.03139  0.53165  0.26635  1.0000
  N   N35       1.0  0.01699  0.51700  0.27050  1.0000
  C   C156      1.0  0.97301  0.47195  0.26632  1.0000
  H   H83       1.0  0.03630  0.53649  0.20502  1.0000
  N   N36       1.0  0.98740  0.48661  0.27048  1.0000
  H   H84       1.0  0.96836  0.46687  0.20499  1.0000
  C   C157      1.0  0.26775  0.02959  0.32938  1.0000
  C   C158      1.0  0.25431  0.04585  0.34433  1.0000
  C   C159      1.0  0.23306  0.04295  0.34722  1.0000
  C   C160      1.0  0.22537  0.02306  0.33405  1.0000
  C   C161      1.0  0.23852  0.00630  0.31901  1.0000
  C   C162      1.0  0.25971  0.01000  0.31665  1.0000
  H   H85       1.0  0.21001  0.02077  0.33598  1.0000
  H   H86       1.0  0.26962  0.99814  0.30904  1.0000
  H   H87       1.0  0.26020  0.06018  0.35133  1.0000
  C   C163      1.0  0.73626  0.97442  0.32941  1.0000
  C   C164      1.0  0.74970  0.95817  0.34432  1.0000
  C   C165      1.0  0.77095  0.96107  0.34723  1.0000
  C   C166      1.0  0.77863  0.98096  0.33407  1.0000
  C   C167      1.0  0.76548  0.99773  0.31908  1.0000
  C   C168      1.0  0.74429  0.99402  0.31674  1.0000
  H   H88       1.0  0.79399  0.98326  0.33601  1.0000
  H   H89       1.0  0.73438  0.00588  0.30916  1.0000
  H   H90       1.0  0.74382  0.94384  0.35128  1.0000
  C   C169      1.0  0.97441  0.26774  0.32940  1.0000
  C   C170      1.0  0.95817  0.25429  0.34440  1.0000
  C   C171      1.0  0.96107  0.23304  0.34726  1.0000
  C   C172      1.0  0.98097  0.22536  0.33409  1.0000
  C   C173      1.0  0.99773  0.23852  0.31910  1.0000
  C   C174      1.0  0.99401  0.25971  0.31670  1.0000
  H   H91       1.0  0.98327  0.21000  0.33605  1.0000
  H   H92       1.0  0.00587  0.26962  0.30908  1.0000
  H   H93       1.0  0.94383  0.26016  0.35131  1.0000
  C   C175      1.0  0.02957  0.73624  0.32957  1.0000
  C   C176      1.0  0.04584  0.74966  0.34453  1.0000
  C   C177      1.0  0.04296  0.77092  0.34733  1.0000
  C   C178      1.0  0.02307  0.77862  0.33412  1.0000
  C   C179      1.0  0.00629  0.76548  0.31917  1.0000
  C   C180      1.0  0.00998  0.74429  0.31686  1.0000
  H   H94       1.0  0.02079  0.79398  0.33598  1.0000
  H   H95       1.0  0.99812  0.73438  0.30920  1.0000
  H   H96       1.0  0.06016  0.74377  0.35145  1.0000
  C   C181      1.0  0.23649  0.53060  0.34135  1.0000
  C   C182      1.0  0.25019  0.54680  0.32934  1.0000
  C   C183      1.0  0.27143  0.54377  0.32602  1.0000
  C   C184      1.0  0.27897  0.52378  0.33732  1.0000
  C   C185      1.0  0.26567  0.50707  0.35036  1.0000
  C   C186      1.0  0.24450  0.51089  0.35162  1.0000
  H   H97       1.0  0.29432  0.52138  0.33568  1.0000
  H   H98       1.0  0.23458  0.49898  0.35718  1.0000
  H   H99       1.0  0.24453  0.56127  0.32474  1.0000
  C   C187      1.0  0.76751  0.47341  0.34161  1.0000
  C   C188      1.0  0.75380  0.45722  0.32959  1.0000
  C   C189      1.0  0.73257  0.46027  0.32616  1.0000
  C   C190      1.0  0.72503  0.48026  0.33740  1.0000
  C   C191      1.0  0.73834  0.49696  0.35049  1.0000
  C   C192      1.0  0.75951  0.49313  0.35182  1.0000
  H   H100      1.0  0.70969  0.48267  0.33570  1.0000
  H   H101      1.0  0.76944  0.50504  0.35738  1.0000
  H   H102      1.0  0.75945  0.44275  0.32501  1.0000
  C   C193      1.0  0.53061  0.76751  0.34153  1.0000
  C   C194      1.0  0.54681  0.75380  0.32949  1.0000
  C   C195      1.0  0.54376  0.73257  0.32611  1.0000
  C   C196      1.0  0.52376  0.72503  0.33737  1.0000
  C   C197      1.0  0.50706  0.73834  0.35045  1.0000
  C   C198      1.0  0.51089  0.75951  0.35178  1.0000
  H   H103      1.0  0.52136  0.70969  0.33567  1.0000
  H   H104      1.0  0.49898  0.76943  0.35735  1.0000
  H   H105      1.0  0.56127  0.75945  0.32487  1.0000
  C   C199      1.0  0.47341  0.23650  0.34153  1.0000
  C   C200      1.0  0.45721  0.25020  0.32956  1.0000
  C   C201      1.0  0.46026  0.27143  0.32615  1.0000
  C   C202      1.0  0.48026  0.27897  0.33736  1.0000
  C   C203      1.0  0.49696  0.26566  0.35042  1.0000
  C   C204      1.0  0.49313  0.24449  0.35168  1.0000
  H   H106      1.0  0.48267  0.29431  0.33568  1.0000
  H   H107      1.0  0.50504  0.23456  0.35727  1.0000
  H   H108      1.0  0.44275  0.24456  0.32499  1.0000
  C   C205      1.0  0.18023  0.21675  0.34396  1.0000
  C   C206      1.0  0.18641  0.19619  0.34976  1.0000
  C   C207      1.0  0.17240  0.17992  0.34700  1.0000
  C   C208      1.0  0.15156  0.18457  0.33833  1.0000
  C   C209      1.0  0.14459  0.20485  0.33253  1.0000
  C   C210      1.0  0.15918  0.22068  0.33445  1.0000
  H   H109      1.0  0.14125  0.17293  0.33680  1.0000
  H   H110      1.0  0.15427  0.23542  0.33295  1.0000
  H   H111      1.0  0.20158  0.19290  0.35380  1.0000
  C   C211      1.0  0.82380  0.78727  0.34398  1.0000
  C   C212      1.0  0.81762  0.80784  0.34978  1.0000
  C   C213      1.0  0.83163  0.82411  0.34702  1.0000
  C   C214      1.0  0.85247  0.81946  0.33836  1.0000
  C   C215      1.0  0.85944  0.79917  0.33257  1.0000
  C   C216      1.0  0.84485  0.78334  0.33449  1.0000
  H   H112      1.0  0.86279  0.83109  0.33685  1.0000
  H   H113      1.0  0.84976  0.76860  0.33299  1.0000
  H   H114      1.0  0.80245  0.81113  0.35381  1.0000
  C   C217      1.0  0.78728  0.18022  0.34402  1.0000
  C   C218      1.0  0.80784  0.18640  0.34987  1.0000
  C   C219      1.0  0.82411  0.17239  0.34706  1.0000
  C   C220      1.0  0.81946  0.15155  0.33837  1.0000
  C   C221      1.0  0.79917  0.14459  0.33258  1.0000
  C   C222      1.0  0.78334  0.15917  0.33451  1.0000
  H   H115      1.0  0.83109  0.14123  0.33684  1.0000
  H   H116      1.0  0.76860  0.15427  0.33299  1.0000
  H   H117      1.0  0.81113  0.20157  0.35384  1.0000
  C   C223      1.0  0.21675  0.82380  0.34403  1.0000
  C   C224      1.0  0.19619  0.81762  0.34987  1.0000
  C   C225      1.0  0.17991  0.83162  0.34707  1.0000
  C   C226      1.0  0.18456  0.85247  0.33839  1.0000
  C   C227      1.0  0.20485  0.85943  0.33259  1.0000
  C   C228      1.0  0.22068  0.84485  0.33455  1.0000
  H   H118      1.0  0.17293  0.86278  0.33684  1.0000
  H   H119      1.0  0.23542  0.84975  0.33297  1.0000
  H   H120      1.0  0.19290  0.80245  0.35383  1.0000
  C   C229      1.0  0.32417  0.71729  0.34194  1.0000
  C   C230      1.0  0.31793  0.69679  0.33473  1.0000
  C   C231      1.0  0.33206  0.68064  0.33181  1.0000
  C   C232      1.0  0.35296  0.68533  0.33627  1.0000
  C   C233      1.0  0.35992  0.70562  0.34236  1.0000
  C   C234      1.0  0.34526  0.72138  0.34497  1.0000
  H   H121      1.0  0.36330  0.67372  0.33483  1.0000
  H   H122      1.0  0.35002  0.73614  0.34993  1.0000
  H   H123      1.0  0.30274  0.69353  0.33176  1.0000
  C   C235      1.0  0.67985  0.28673  0.34195  1.0000
  C   C236      1.0  0.68609  0.30723  0.33474  1.0000
  C   C237      1.0  0.67196  0.32338  0.33182  1.0000
  C   C238      1.0  0.65105  0.31868  0.33627  1.0000
  C   C239      1.0  0.64409  0.29839  0.34236  1.0000
  C   C240      1.0  0.65876  0.28263  0.34497  1.0000
  H   H124      1.0  0.64071  0.33030  0.33484  1.0000
  H   H125      1.0  0.65400  0.26788  0.34994  1.0000
  H   H126      1.0  0.70128  0.31049  0.33176  1.0000
  C   C241      1.0  0.71730  0.67985  0.34194  1.0000
  C   C242      1.0  0.69680  0.68609  0.33473  1.0000
  C   C243      1.0  0.68064  0.67196  0.33181  1.0000
  C   C244      1.0  0.68534  0.65106  0.33627  1.0000
  C   C245      1.0  0.70563  0.64410  0.34234  1.0000
  C   C246      1.0  0.72139  0.65876  0.34497  1.0000
  H   H127      1.0  0.67372  0.64072  0.33483  1.0000
  H   H128      1.0  0.73614  0.65400  0.34993  1.0000
  H   H129      1.0  0.69353  0.70128  0.33176  1.0000
  C   C247      1.0  0.28673  0.32418  0.34198  1.0000
  C   C248      1.0  0.30723  0.31794  0.33477  1.0000
  C   C249      1.0  0.32338  0.33207  0.33184  1.0000
  C   C250      1.0  0.31869  0.35297  0.33629  1.0000
  C   C251      1.0  0.29840  0.35994  0.34238  1.0000
  C   C252      1.0  0.28264  0.34527  0.34501  1.0000
  H   H130      1.0  0.33030  0.36331  0.33485  1.0000
  H   H131      1.0  0.26788  0.35003  0.34997  1.0000
  H   H132      1.0  0.31049  0.30275  0.33179  1.0000
  C   C253      1.0  0.43933  0.09049  0.34603  1.0000
  C   C254      1.0  0.41873  0.08468  0.33925  1.0000
  C   C255      1.0  0.41314  0.06404  0.33377  1.0000
  C   C256      1.0  0.42838  0.04900  0.33461  1.0000
  C   C257      1.0  0.44898  0.05449  0.34286  1.0000
  C   C258      1.0  0.45435  0.07518  0.34898  1.0000
  H   H133      1.0  0.42442  0.03396  0.33140  1.0000
  H   H134      1.0  0.46937  0.07912  0.35323  1.0000
  H   H135      1.0  0.40764  0.09560  0.33864  1.0000
  C   C259      1.0  0.56468  0.91351  0.34590  1.0000
  C   C260      1.0  0.58528  0.91932  0.33919  1.0000
  C   C261      1.0  0.59086  0.93997  0.33378  1.0000
  C   C262      1.0  0.57562  0.95500  0.33459  1.0000
  C   C263      1.0  0.55502  0.94950  0.34280  1.0000
  C   C264      1.0  0.54966  0.92882  0.34882  1.0000
  H   H136      1.0  0.57957  0.97004  0.33153  1.0000
  H   H137      1.0  0.53464  0.92487  0.35304  1.0000
  H   H138      1.0  0.59637  0.90841  0.33859  1.0000
  C   C265      1.0  0.91351  0.43933  0.34609  1.0000
  C   C266      1.0  0.91931  0.41873  0.33923  1.0000
  C   C267      1.0  0.93996  0.41314  0.33362  1.0000
  C   C268      1.0  0.95500  0.42837  0.33433  1.0000
  C   C269      1.0  0.94951  0.44897  0.34279  1.0000
  C   C270      1.0  0.92883  0.45434  0.34907  1.0000
  H   H139      1.0  0.97003  0.42441  0.33116  1.0000
  H   H140      1.0  0.92489  0.46936  0.35340  1.0000
  H   H141      1.0  0.90840  0.40764  0.33866  1.0000
  C   C271      1.0  0.09049  0.56468  0.34576  1.0000
  C   C272      1.0  0.08467  0.58528  0.33913  1.0000
  C   C273      1.0  0.06402  0.59086  0.33391  1.0000
  C   C274      1.0  0.04898  0.57562  0.33489  1.0000
  C   C275      1.0  0.05450  0.55502  0.34289  1.0000
  C   C276      1.0  0.07518  0.54966  0.34867  1.0000
  H   H142      1.0  0.03395  0.57957  0.33189  1.0000
  H   H143      1.0  0.07913  0.53463  0.35285  1.0000
  H   H144      1.0  0.09558  0.59637  0.33850  1.0000
  C   C277      1.0  0.29893  0.04095  0.40412  1.0000
  N   N37       1.0  0.31899  0.04533  0.40074  1.0000
  C   C278      1.0  0.37989  0.06088  0.40558  1.0000
  H   H145      1.0  0.29126  0.04347  0.46257  1.0000
  N   N38       1.0  0.36008  0.05550  0.40141  1.0000
  H   H146      1.0  0.38550  0.06646  0.46448  1.0000
  C   C279      1.0  0.70508  0.96304  0.40414  1.0000
  N   N39       1.0  0.68502  0.95866  0.40075  1.0000
  C   C280      1.0  0.62411  0.94311  0.40558  1.0000
  H   H147      1.0  0.71276  0.96050  0.46257  1.0000
  N   N40       1.0  0.64393  0.94849  0.40143  1.0000
  H   H148      1.0  0.61851  0.93751  0.46445  1.0000
  C   C281      1.0  0.96294  0.29890  0.40396  1.0000
  N   N41       1.0  0.95856  0.31896  0.40055  1.0000
  C   C282      1.0  0.94299  0.37986  0.40528  1.0000
  H   H149      1.0  0.96033  0.29121  0.46230  1.0000
  N   N42       1.0  0.94838  0.36005  0.40116  1.0000
  H   H150      1.0  0.93732  0.38545  0.46405  1.0000
  C   C283      1.0  0.04075  0.70503  0.40452  1.0000
  N   N43       1.0  0.04514  0.68497  0.40113  1.0000
  C   C284      1.0  0.06068  0.62405  0.40601  1.0000
  H   H151      1.0  0.04316  0.71267  0.46313  1.0000
  N   N44       1.0  0.05530  0.64387  0.40183  1.0000
  H   H152      1.0  0.06614  0.61841  0.46506  1.0000
  C   C285      1.0  0.21519  0.53425  0.34286  1.0000
  C   C286      1.0  0.17345  0.54342  0.34652  1.0000
  C   C287      1.0  0.18174  0.53086  0.41457  1.0000
  C   C288      1.0  0.20269  0.52634  0.41157  1.0000
  H   H153      1.0  0.20899  0.51768  0.46129  1.0000
  C   C289      1.0  0.15266  0.54850  0.34777  1.0000
  C   C290      1.0  0.11132  0.55917  0.34803  1.0000
  C   C291      1.0  0.11915  0.54632  0.41556  1.0000
  C   C292      1.0  0.13990  0.54094  0.41678  1.0000
  C   C293      1.0  0.14822  0.52844  0.48417  1.0000
  C   C294      1.0  0.16899  0.52347  0.48318  1.0000
  H   H154      1.0  0.13927  0.52292  0.53455  1.0000
  H   H155      1.0  0.17471  0.51445  0.53289  1.0000
  H   H156      1.0  0.10975  0.54112  0.46512  1.0000
  C   C295      1.0  0.78881  0.46976  0.34318  1.0000
  C   C296      1.0  0.83055  0.46060  0.34686  1.0000
  C   C297      1.0  0.82225  0.47316  0.41489  1.0000
  C   C298      1.0  0.80131  0.47767  0.41189  1.0000
  H   H157      1.0  0.79501  0.48634  0.46157  1.0000
  C   C299      1.0  0.85134  0.45552  0.34811  1.0000
  C   C300      1.0  0.89268  0.44484  0.34839  1.0000
  C   C301      1.0  0.88485  0.45770  0.41590  1.0000
  C   C302      1.0  0.86410  0.46308  0.41710  1.0000
  C   C303      1.0  0.85578  0.47559  0.48448  1.0000
  C   C304      1.0  0.83501  0.48055  0.48349  1.0000
  H   H158      1.0  0.86473  0.48112  0.53486  1.0000
  H   H159      1.0  0.82929  0.48958  0.53319  1.0000
  H   H160      1.0  0.89425  0.46290  0.46546  1.0000
  C   C305      1.0  0.53426  0.78881  0.34307  1.0000
  C   C306      1.0  0.54343  0.83055  0.34673  1.0000
  C   C307      1.0  0.53088  0.82225  0.41481  1.0000
  C   C308      1.0  0.52636  0.80131  0.41180  1.0000
  H   H161      1.0  0.51771  0.79500  0.46153  1.0000
  C   C309      1.0  0.54850  0.85134  0.34797  1.0000
  C   C310      1.0  0.55917  0.89268  0.34819  1.0000
  C   C311      1.0  0.54633  0.88484  0.41577  1.0000
  C   C312      1.0  0.54095  0.86410  0.41699  1.0000
  C   C313      1.0  0.52846  0.85577  0.48441  1.0000
  C   C314      1.0  0.52350  0.83500  0.48344  1.0000
  H   H162      1.0  0.52294  0.86472  0.53481  1.0000
  H   H163      1.0  0.51448  0.82928  0.53316  1.0000
  H   H164      1.0  0.54113  0.89425  0.46533  1.0000
  C   C315      1.0  0.46975  0.21519  0.34309  1.0000
  C   C316      1.0  0.46059  0.17345  0.34678  1.0000
  C   C317      1.0  0.47316  0.18175  0.41479  1.0000
  C   C318      1.0  0.47767  0.20270  0.41178  1.0000
  H   H165      1.0  0.48634  0.20899  0.46145  1.0000
  C   C319      1.0  0.45552  0.15266  0.34803  1.0000
  C   C320      1.0  0.44484  0.11132  0.34830  1.0000
  C   C321      1.0  0.45771  0.11915  0.41579  1.0000
  C   C322      1.0  0.46308  0.13990  0.41700  1.0000
  C   C323      1.0  0.47560  0.14823  0.48435  1.0000
  C   C324      1.0  0.48056  0.16900  0.48336  1.0000
  H   H166      1.0  0.48113  0.13927  0.53471  1.0000
  H   H167      1.0  0.48959  0.17471  0.53305  1.0000
  H   H168      1.0  0.46291  0.10975  0.46534  1.0000
  C   C325      1.0  0.22048  0.06033  0.36115  1.0000
  C   C326      1.0  0.20193  0.09909  0.36619  1.0000
  C   C327      1.0  0.21582  0.09350  0.43465  1.0000
  C   C328      1.0  0.22478  0.07406  0.43156  1.0000
  H   H169      1.0  0.23547  0.07027  0.47852  1.0000
  C   C329      1.0  0.19387  0.11903  0.36434  1.0000
  C   C330      1.0  0.17922  0.15939  0.35457  1.0000
  C   C331      1.0  0.19243  0.15345  0.42443  1.0000
  C   C332      1.0  0.19983  0.13337  0.43046  1.0000
  C   C333      1.0  0.21328  0.12748  0.49917  1.0000
  C   C334      1.0  0.22119  0.10769  0.50134  1.0000
  H   H170      1.0  0.21777  0.13764  0.54704  1.0000
  H   H171      1.0  0.23132  0.10392  0.55054  1.0000
  H   H172      1.0  0.19676  0.16390  0.47153  1.0000
  C   C335      1.0  0.78354  0.94369  0.36105  1.0000
  C   C336      1.0  0.80210  0.90493  0.36617  1.0000
  C   C337      1.0  0.78820  0.91052  0.43458  1.0000
  C   C338      1.0  0.77922  0.92996  0.43142  1.0000
  H   H173      1.0  0.76855  0.93376  0.47846  1.0000
  C   C339      1.0  0.81016  0.88500  0.36434  1.0000
  C   C340      1.0  0.82481  0.84463  0.35459  1.0000
  C   C341      1.0  0.81159  0.85057  0.42443  1.0000
  C   C342      1.0  0.80420  0.87065  0.43044  1.0000
  C   C343      1.0  0.79074  0.87654  0.49912  1.0000
  C   C344      1.0  0.78283  0.89633  0.50130  1.0000
  H   H174      1.0  0.78624  0.86637  0.54694  1.0000
  H   H175      1.0  0.77267  0.90009  0.55038  1.0000
  H   H176      1.0  0.80726  0.84013  0.47151  1.0000
  C   C345      1.0  0.94370  0.22046  0.36120  1.0000
  C   C346      1.0  0.90494  0.20190  0.36625  1.0000
  C   C347      1.0  0.91053  0.21579  0.43473  1.0000
  C   C348      1.0  0.92997  0.22475  0.43164  1.0000
  H   H177      1.0  0.93377  0.23543  0.47860  1.0000
  C   C349      1.0  0.88500  0.19385  0.36439  1.0000
  C   C350      1.0  0.84463  0.17920  0.35463  1.0000
  C   C351      1.0  0.85057  0.19241  0.42451  1.0000
  C   C352      1.0  0.87066  0.19980  0.43053  1.0000
  C   C353      1.0  0.87656  0.21325  0.49927  1.0000
  C   C354      1.0  0.89635  0.22115  0.50144  1.0000
  H   H178      1.0  0.86639  0.21773  0.54716  1.0000
  H   H179      1.0  0.90011  0.23128  0.55066  1.0000
  H   H180      1.0  0.84013  0.19674  0.47161  1.0000
  C   C355      1.0  0.06035  0.78349  0.36109  1.0000
  C   C356      1.0  0.09909  0.80208  0.36623  1.0000
  C   C357      1.0  0.09352  0.78816  0.43463  1.0000
  C   C358      1.0  0.07408  0.77918  0.43148  1.0000
  H   H181      1.0  0.07029  0.76851  0.47851  1.0000
  C   C359      1.0  0.11903  0.81014  0.36439  1.0000
  C   C360      1.0  0.15939  0.82480  0.35463  1.0000
  C   C361      1.0  0.15346  0.81158  0.42447  1.0000
  C   C362      1.0  0.13338  0.80418  0.43048  1.0000
  C   C363      1.0  0.12749  0.79071  0.49916  1.0000
  C   C364      1.0  0.10770  0.78281  0.50134  1.0000
  H   H182      1.0  0.13766  0.78621  0.54698  1.0000
  H   H183      1.0  0.10395  0.77264  0.55042  1.0000
  H   H184      1.0  0.16390  0.80724  0.47155  1.0000
  C   C365      1.0  0.29863  0.56707  0.37742  1.0000
  N   N45       1.0  0.30702  0.58593  0.37414  1.0000
  C   C366      1.0  0.33111  0.64495  0.38520  1.0000
  H   H185      1.0  0.30180  0.55803  0.43123  1.0000
  N   N46       1.0  0.32360  0.62580  0.37825  1.0000
  H   H186      1.0  0.34046  0.64828  0.43781  1.0000
  C   C367      1.0  0.70541  0.43692  0.37771  1.0000
  N   N47       1.0  0.69700  0.41807  0.37435  1.0000
  C   C368      1.0  0.67291  0.35906  0.38529  1.0000
  H   H187      1.0  0.70219  0.44599  0.43138  1.0000
  N   N48       1.0  0.68041  0.37821  0.37836  1.0000
  H   H188      1.0  0.66356  0.35572  0.43787  1.0000
  C   C369      1.0  0.56708  0.70538  0.37751  1.0000
  N   N49       1.0  0.58594  0.69700  0.37424  1.0000
  C   C370      1.0  0.64496  0.67291  0.38526  1.0000
  H   H189      1.0  0.55804  0.70222  0.43133  1.0000
  N   N50       1.0  0.62581  0.68043  0.37833  1.0000
  H   H190      1.0  0.64830  0.66358  0.43788  1.0000
  C   C371      1.0  0.43692  0.29860  0.37770  1.0000
  N   N51       1.0  0.41807  0.30702  0.37435  1.0000
  C   C372      1.0  0.35907  0.33111  0.38530  1.0000
  H   H191      1.0  0.44599  0.30182  0.43137  1.0000
  N   N52       1.0  0.37822  0.32360  0.37836  1.0000
  H   H192      1.0  0.35573  0.34046  0.43788  1.0000
  C   C373      1.0  0.20000  0.89497  0.38403  1.0000
  N   N53       1.0  0.20432  0.91506  0.37710  1.0000
  C   C374      1.0  0.21735  0.97740  0.37184  1.0000
  H   H193      1.0  0.19035  0.89040  0.43367  1.0000
  N   N54       1.0  0.21311  0.95720  0.37064  1.0000
  H   H194      1.0  0.21114  0.98605  0.42158  1.0000
  C   C375      1.0  0.80400  0.10905  0.38407  1.0000
  N   N55       1.0  0.79970  0.08895  0.37713  1.0000
  C   C376      1.0  0.78665  0.02662  0.37193  1.0000
  H   H195      1.0  0.81367  0.11362  0.43365  1.0000
  N   N56       1.0  0.79090  0.04682  0.37069  1.0000
  H   H196      1.0  0.79288  0.01797  0.42162  1.0000
  C   C377      1.0  0.10905  0.20000  0.38399  1.0000
  N   N57       1.0  0.08896  0.20432  0.37708  1.0000
  C   C378      1.0  0.02663  0.21734  0.37188  1.0000
  H   H197      1.0  0.11363  0.19035  0.43361  1.0000
  N   N58       1.0  0.04682  0.21310  0.37066  1.0000
  H   H198      1.0  0.01798  0.21113  0.42161  1.0000
  C   C379      1.0  0.89497  0.80400  0.38409  1.0000
  N   N59       1.0  0.91507  0.79970  0.37715  1.0000
  C   C380      1.0  0.97740  0.78666  0.37197  1.0000
  H   H199      1.0  0.89040  0.81366  0.43368  1.0000
  N   N60       1.0  0.95720  0.79091  0.37072  1.0000
  H   H200      1.0  0.98605  0.79287  0.42170  1.0000
  C   C381      1.0  0.29410  0.38121  0.34736  1.0000
  C   C382      1.0  0.28633  0.42350  0.35657  1.0000
  C   C383      1.0  0.27681  0.41019  0.41868  1.0000
  C   C384      1.0  0.28079  0.38915  0.41295  1.0000
  H   H201      1.0  0.27416  0.37952  0.45817  1.0000
  C   C385      1.0  0.28227  0.44460  0.35951  1.0000
  C   C386      1.0  0.27269  0.48658  0.35907  1.0000
  C   C387      1.0  0.26421  0.47338  0.42398  1.0000
  C   C388      1.0  0.26870  0.45243  0.42485  1.0000
  C   C389      1.0  0.25956  0.43914  0.48707  1.0000
  C   C390      1.0  0.26357  0.41821  0.48396  1.0000
  H   H202      1.0  0.24967  0.44455  0.53421  1.0000
  H   H203      1.0  0.25657  0.40886  0.52912  1.0000
  H   H204      1.0  0.25416  0.47902  0.47002  1.0000
  C   C391      1.0  0.70993  0.62282  0.34733  1.0000
  C   C392      1.0  0.71769  0.58054  0.35659  1.0000
  C   C393      1.0  0.72721  0.59384  0.41868  1.0000
  C   C394      1.0  0.72323  0.61489  0.41295  1.0000
  H   H205      1.0  0.72986  0.62451  0.45815  1.0000
  C   C395      1.0  0.72175  0.55943  0.35955  1.0000
  C   C396      1.0  0.73134  0.51746  0.35911  1.0000
  C   C397      1.0  0.73981  0.53065  0.42404  1.0000
  C   C398      1.0  0.73532  0.55161  0.42488  1.0000
  C   C399      1.0  0.74446  0.56490  0.48710  1.0000
  C   C400      1.0  0.74045  0.58583  0.48398  1.0000
  H   H206      1.0  0.75436  0.55949  0.53423  1.0000
  H   H207      1.0  0.74746  0.59518  0.52910  1.0000
  H   H208      1.0  0.74987  0.52502  0.47008  1.0000
  C   C401      1.0  0.38120  0.70992  0.34734  1.0000
  C   C402      1.0  0.42348  0.71769  0.35657  1.0000
  C   C403      1.0  0.41018  0.72721  0.41868  1.0000
  C   C404      1.0  0.38914  0.72323  0.41294  1.0000
  H   H209      1.0  0.37951  0.72986  0.45817  1.0000
  C   C405      1.0  0.44459  0.72175  0.35953  1.0000
  C   C406      1.0  0.48657  0.73133  0.35912  1.0000
  C   C407      1.0  0.47337  0.73981  0.42402  1.0000
  C   C408      1.0  0.45241  0.73532  0.42487  1.0000
  C   C409      1.0  0.43913  0.74446  0.48709  1.0000
  C   C410      1.0  0.41819  0.74045  0.48397  1.0000
  H   H210      1.0  0.44453  0.75435  0.53425  1.0000
  H   H211      1.0  0.40884  0.74745  0.52913  1.0000
  H   H212      1.0  0.47901  0.74986  0.47008  1.0000
  C   C411      1.0  0.62282  0.29409  0.34733  1.0000
  C   C412      1.0  0.58053  0.28632  0.35658  1.0000
  C   C413      1.0  0.59384  0.27680  0.41866  1.0000
  C   C414      1.0  0.61488  0.28078  0.41293  1.0000
  H   H213      1.0  0.62451  0.27415  0.45814  1.0000
  C   C415      1.0  0.55943  0.28226  0.35951  1.0000
  C   C416      1.0  0.51746  0.27266  0.35902  1.0000
  C   C417      1.0  0.53065  0.26419  0.42398  1.0000
  C   C418      1.0  0.55161  0.26868  0.42483  1.0000
  C   C419      1.0  0.56489  0.25955  0.48705  1.0000
  C   C420      1.0  0.58582  0.26356  0.48395  1.0000
  H   H214      1.0  0.55949  0.24965  0.53416  1.0000
  H   H215      1.0  0.59518  0.25655  0.52906  1.0000
  H   H216      1.0  0.52502  0.25413  0.46999  1.0000
  C   C421      1.0  0.19492  0.23286  0.34875  1.0000
  C   C422      1.0  0.22483  0.26400  0.35206  1.0000
  C   C423      1.0  0.22634  0.24741  0.41249  1.0000
  C   C424      1.0  0.21130  0.23213  0.41018  1.0000
  H   H217      1.0  0.21232  0.22026  0.45425  1.0000
  C   C425      1.0  0.23999  0.27929  0.35179  1.0000
  C   C426      1.0  0.27081  0.30941  0.34731  1.0000
  C   C427      1.0  0.27200  0.29295  0.40800  1.0000
  C   C428      1.0  0.25676  0.27788  0.41139  1.0000
  C   C429      1.0  0.25798  0.26143  0.47166  1.0000
  C   C430      1.0  0.24288  0.24637  0.47240  1.0000
  H   H218      1.0  0.26994  0.26019  0.51500  1.0000
  H   H219      1.0  0.24422  0.23450  0.51617  1.0000
  H   H220      1.0  0.28413  0.29196  0.45068  1.0000
  C   C431      1.0  0.80911  0.77117  0.34876  1.0000
  C   C432      1.0  0.77920  0.74002  0.35208  1.0000
  C   C433      1.0  0.77769  0.75661  0.41251  1.0000
  C   C434      1.0  0.79273  0.77190  0.41020  1.0000
  H   H221      1.0  0.79172  0.78375  0.45429  1.0000
  C   C435      1.0  0.76404  0.72473  0.35180  1.0000
  C   C436      1.0  0.73321  0.69462  0.34726  1.0000
  C   C437      1.0  0.73202  0.71108  0.40797  1.0000
  C   C438      1.0  0.74727  0.72615  0.41139  1.0000
  C   C439      1.0  0.74606  0.74259  0.47168  1.0000
  C   C440      1.0  0.76116  0.75765  0.47244  1.0000
  H   H222      1.0  0.73409  0.74384  0.51500  1.0000
  H   H223      1.0  0.75981  0.76953  0.51618  1.0000
  H   H224      1.0  0.71989  0.71206  0.45067  1.0000
  C   C441      1.0  0.77117  0.19492  0.34878  1.0000
  C   C442      1.0  0.74003  0.22483  0.35208  1.0000
  C   C443      1.0  0.75662  0.22635  0.41250  1.0000
  C   C444      1.0  0.77190  0.21130  0.41020  1.0000
  H   H225      1.0  0.78376  0.21232  0.45427  1.0000
  C   C445      1.0  0.72474  0.23999  0.35179  1.0000
  C   C446      1.0  0.69462  0.27081  0.34728  1.0000
  C   C447      1.0  0.71108  0.27201  0.40797  1.0000
  C   C448      1.0  0.72615  0.25676  0.41137  1.0000
  C   C449      1.0  0.74260  0.25798  0.47164  1.0000
  C   C450      1.0  0.75766  0.24288  0.47238  1.0000
  H   H226      1.0  0.74384  0.26995  0.51496  1.0000
  H   H227      1.0  0.76953  0.24423  0.51616  1.0000
  H   H228      1.0  0.71207  0.28414  0.45064  1.0000
  C   C451      1.0  0.23286  0.80910  0.34878  1.0000
  C   C452      1.0  0.26400  0.77919  0.35210  1.0000
  C   C453      1.0  0.24741  0.77768  0.41255  1.0000
  C   C454      1.0  0.23213  0.79273  0.41024  1.0000
  H   H229      1.0  0.22028  0.79172  0.45435  1.0000
  C   C455      1.0  0.27929  0.76404  0.35180  1.0000
  C   C456      1.0  0.30940  0.73321  0.34726  1.0000
  C   C457      1.0  0.29295  0.73202  0.40799  1.0000
  C   C458      1.0  0.27788  0.74727  0.41141  1.0000
  C   C459      1.0  0.26144  0.74606  0.47172  1.0000
  C   C460      1.0  0.24638  0.76116  0.47249  1.0000
  H   H230      1.0  0.26019  0.73409  0.51504  1.0000
  H   H231      1.0  0.23451  0.75981  0.51623  1.0000
  H   H232      1.0  0.29196  0.71989  0.45069  1.0000
  C   C461      1.0  0.53988  0.96459  0.34587  1.0000
  C   C462      1.0  0.50962  0.99448  0.34879  1.0000
  C   C463      1.0  0.51732  0.98691  0.43118  1.0000
  C   C464      1.0  0.53249  0.97180  0.42864  1.0000
  H   H233      1.0  0.53826  0.96609  0.48716  1.0000
  C   C465      1.0  0.49437  0.00950  0.34880  1.0000
  C   C466      1.0  0.46411  0.03941  0.34592  1.0000
  C   C467      1.0  0.47167  0.03235  0.42866  1.0000
  C   C468      1.0  0.48684  0.01723  0.43119  1.0000
  C   C469      1.0  0.49461  0.00969  0.51271  1.0000
  C   C470      1.0  0.50970  0.99460  0.51271  1.0000
  H   H234      1.0  0.48933  0.01508  0.57259  1.0000
  H   H235      1.0  0.51510  0.98933  0.57259  1.0000
  H   H236      1.0  0.46603  0.03818  0.48718  1.0000
  C   C471      1.0  0.03942  0.53987  0.34595  1.0000
  C   C472      1.0  0.00954  0.50959  0.34883  1.0000
  C   C473      1.0  0.01701  0.51739  0.43123  1.0000
  C   C474      1.0  0.03211  0.53257  0.42871  1.0000
  H   H237      1.0  0.03775  0.53840  0.48724  1.0000
  C   C475      1.0  0.99451  0.49435  0.34882  1.0000
  C   C476      1.0  0.96460  0.46410  0.34588  1.0000
  C   C477      1.0  0.97156  0.47175  0.42862  1.0000
  C   C478      1.0  0.98669  0.48691  0.43119  1.0000
  C   C479      1.0  0.99413  0.49476  0.51271  1.0000
  C   C480      1.0  0.00922  0.50985  0.51274  1.0000
  H   H238      1.0  0.98867  0.48955  0.57259  1.0000
  H   H239      1.0  0.01442  0.51532  0.57263  1.0000
  H   H240      1.0  0.96566  0.46617  0.48713  1.0000
