data_image0
_chemical_formula_structural       C3H2C3HNO2C2HNO2C3NH2C2HOC3NO2C3H2C3HNO2C2HNO2C3NH2C2HOC3NO2C4H2C3HC3HC3OC4HNO2C5NH2C3NH2CNOC3HNO2HC3HNOC4H2C3HC3HC3OC4HNO2C5NH2C3NH2CNOC3HNO2HC3HNOC2H5NOHCOCNH2C3NH2CNO2HC2H5NOHCOCNH2C3NH2CNO2HC3H2C3NO2C2HNOC3NH2C2HOC3NO2C3H2C3NO2C2HNOC3NH2C2HOC3NO2C3HC3H3C3HC3H3C3HC3H3C3HNO2C3HNO2C3HNO2C3HNO2C3HNO2C3HNO2C3NC3NH4C3NC3NH4C3NC3NH4C3HNO2C3HNO2C3HNO2C3HNO2C3HNO2C3HNO2C3HC3H3C3HC3H3C3HC3H3C3HNO2C3HNO2C3HNO2C3HNO2C3HNO2C3HNO2C3NC3NH4C3NC3NH4C3NC3NH4C3HNO2C3HNO2C3HNO2C3HNO2C3HNO2C3HNO2
_chemical_formula_sum              "C288 H144 N72 O96"
_cell_length_a       46.5841
_cell_length_b       46.584
_cell_length_c       14.7726
_cell_angle_alpha    90
_cell_angle_beta     90
_cell_angle_gamma    120

_space_group_name_H-M_alt    "P 1"
_space_group_IT_number       1

loop_
  _space_group_symop_operation_xyz
  'x, y, z'

loop_
  _atom_site_type_symbol
  _atom_site_label
  _atom_site_symmetry_multiplicity
  _atom_site_fract_x
  _atom_site_fract_y
  _atom_site_fract_z
  _atom_site_occupancy
  C   C1        1.0  0.02962  0.26669  0.35913  1.0000
  C   C2        1.0  0.08422  0.32041  0.37089  1.0000
  C   C3        1.0  0.04935  0.30215  0.35674  1.0000
  H   H1        1.0  0.03831  0.31600  0.34667  1.0000
  H   H2        1.0  0.14855  0.34253  0.39824  1.0000
  C   C4        1.0  0.10127  0.24940  0.36992  1.0000
  C   C5        1.0  0.11417  0.24811  0.28357  1.0000
  C   C6        1.0  0.14331  0.24557  0.27649  1.0000
  H   H3        1.0  0.15396  0.24891  0.21384  1.0000
  N   N1        1.0  0.09998  0.25359  0.20520  1.0000
  O   O1        1.0  0.09066  0.23016  0.14972  1.0000
  O   O2        1.0  0.11993  0.28022  0.16616  1.0000
  C   C7        1.0  0.14153  0.40072  0.26456  1.0000
  C   C8        1.0  0.11146  0.37039  0.27933  1.0000
  H   H4        1.0  0.09889  0.35665  0.22385  1.0000
  N   N2        1.0  0.15238  0.41310  0.17593  1.0000
  O   O3        1.0  0.13281  0.42079  0.13941  1.0000
  O   O4        1.0  0.15463  0.39261  0.12530  1.0000
  C   C9        1.0  0.04883  0.25050  0.36477  1.0000
  C   C10       1.0  0.08361  0.26708  0.37954  1.0000
  C   C11       1.0  0.10127  0.30245  0.38641  1.0000
  N   N3        1.0  0.13463  0.31887  0.40306  1.0000
  H   H5        1.0  0.14533  0.30799  0.43081  1.0000
  H   H6        1.0  0.03747  0.22535  0.36133  1.0000
  C   C12       1.0  0.14834  0.24676  0.43975  1.0000
  C   C13       1.0  0.11732  0.24563  0.44674  1.0000
  H   H7        1.0  0.10987  0.24861  0.50956  1.0000
  O   O5        1.0  0.15215  0.22641  0.57144  1.0000
  C   C14       1.0  0.10195  0.35589  0.36648  1.0000
  C   C15       1.0  0.12096  0.37547  0.44126  1.0000
  C   C16       1.0  0.15105  0.40571  0.42646  1.0000
  N   N4        1.0  0.11128  0.36211  0.52955  1.0000
  O   O6        1.0  0.10547  0.38074  0.57817  1.0000
  O   O7        1.0  0.13293  0.35794  0.56847  1.0000
  C   C17       1.0  0.02962  0.76668  0.35913  1.0000
  C   C18       1.0  0.08422  0.82041  0.37089  1.0000
  C   C19       1.0  0.04935  0.80215  0.35674  1.0000
  H   H8        1.0  0.03831  0.81600  0.34667  1.0000
  H   H9        1.0  0.14855  0.84253  0.39824  1.0000
  C   C20       1.0  0.10127  0.74940  0.36992  1.0000
  C   C21       1.0  0.11417  0.74811  0.28357  1.0000
  C   C22       1.0  0.14331  0.74557  0.27649  1.0000
  H   H10       1.0  0.15396  0.74891  0.21384  1.0000
  N   N5        1.0  0.09998  0.75359  0.20520  1.0000
  O   O8        1.0  0.09066  0.73015  0.14972  1.0000
  O   O9        1.0  0.11993  0.78022  0.16616  1.0000
  C   C23       1.0  0.14153  0.90072  0.26456  1.0000
  C   C24       1.0  0.11146  0.87039  0.27933  1.0000
  H   H11       1.0  0.09889  0.85665  0.22385  1.0000
  N   N6        1.0  0.15238  0.91310  0.17593  1.0000
  O   O10       1.0  0.13281  0.92079  0.13941  1.0000
  O   O11       1.0  0.15463  0.89261  0.12530  1.0000
  C   C25       1.0  0.04883  0.75050  0.36477  1.0000
  C   C26       1.0  0.08361  0.76707  0.37954  1.0000
  C   C27       1.0  0.10127  0.80246  0.38641  1.0000
  N   N7        1.0  0.13463  0.81887  0.40306  1.0000
  H   H12       1.0  0.14533  0.80800  0.43081  1.0000
  H   H13       1.0  0.03747  0.72535  0.36133  1.0000
  C   C28       1.0  0.14834  0.74676  0.43975  1.0000
  C   C29       1.0  0.11732  0.74563  0.44673  1.0000
  H   H14       1.0  0.10987  0.74861  0.50956  1.0000
  O   O12       1.0  0.15215  0.72641  0.57144  1.0000
  C   C30       1.0  0.10195  0.85589  0.36648  1.0000
  C   C31       1.0  0.12096  0.87547  0.44126  1.0000
  C   C32       1.0  0.15105  0.90571  0.42646  1.0000
  N   N8        1.0  0.11128  0.86211  0.52955  1.0000
  O   O13       1.0  0.10547  0.88074  0.57817  1.0000
  O   O14       1.0  0.13293  0.85794  0.56847  1.0000
  C   C33       1.0  0.27087  0.24898  0.35358  1.0000
  C   C34       1.0  0.25222  0.26642  0.35372  1.0000
  C   C35       1.0  0.19790  0.26605  0.34502  1.0000
  C   C36       1.0  0.21669  0.24980  0.35275  1.0000
  H   H15       1.0  0.20312  0.22466  0.35589  1.0000
  H   H16       1.0  0.17603  0.30737  0.30797  1.0000
  C   C37       1.0  0.27070  0.02569  0.34708  1.0000
  C   C38       1.0  0.25485  0.04517  0.34204  1.0000
  C   C39       1.0  0.27162  0.07942  0.32033  1.0000
  H   H17       1.0  0.22990  0.03441  0.35100  1.0000
  C   C40       1.0  0.25231  0.48963  0.34713  1.0000
  C   C41       1.0  0.25142  0.43590  0.32057  1.0000
  C   C42       1.0  0.26819  0.47017  0.34190  1.0000
  H   H18       1.0  0.21329  0.37984  0.23823  1.0000
  C   C43       1.0  0.26796  0.35508  0.35323  1.0000
  C   C44       1.0  0.27514  0.37253  0.26963  1.0000
  C   C45       1.0  0.27604  0.40349  0.26387  1.0000
  O   O15       1.0  0.25456  0.35069  0.13549  1.0000
  C   C46       1.0  0.16318  0.41749  0.33830  1.0000
  C   C47       1.0  0.25528  0.16035  0.35318  1.0000
  C   C48       1.0  0.24756  0.14260  0.26997  1.0000
  C   C49       1.0  0.24669  0.11166  0.26427  1.0000
  H   H19       1.0  0.24462  0.10150  0.20143  1.0000
  N   N9        1.0  0.24470  0.15821  0.19089  1.0000
  O   O16       1.0  0.21715  0.14076  0.15302  1.0000
  O   O17       1.0  0.26732  0.16405  0.13493  1.0000
  C   C50       1.0  0.27271  0.19580  0.35179  1.0000
  C   C51       1.0  0.25532  0.21355  0.35393  1.0000
  C   C52       1.0  0.26780  0.30185  0.35416  1.0000
  C   C53       1.0  0.25044  0.31963  0.35266  1.0000
  C   C54       1.0  0.21522  0.30142  0.34345  1.0000
  N   N10       1.0  0.19810  0.31785  0.33224  1.0000
  H   H20       1.0  0.20819  0.34132  0.33950  1.0000
  H   H21       1.0  0.23023  0.19930  0.35737  1.0000
  C   C55       1.0  0.21682  0.47025  0.34827  1.0000
  C   C56       1.0  0.19844  0.43586  0.32738  1.0000
  C   C57       1.0  0.21646  0.41938  0.30548  1.0000
  N   N11       1.0  0.20095  0.38779  0.27238  1.0000
  H   H22       1.0  0.17732  0.37435  0.26580  1.0000
  H   H23       1.0  0.20315  0.48130  0.36147  1.0000
  C   C58       1.0  0.16254  0.24795  0.35353  1.0000
  N   N12       1.0  0.16734  0.25047  0.51838  1.0000
  O   O18       1.0  0.17475  0.27681  0.56013  1.0000
  C   C59       1.0  0.26711  0.41675  0.33790  1.0000
  C   C60       1.0  0.26171  0.40028  0.42261  1.0000
  C   C61       1.0  0.26348  0.37078  0.42980  1.0000
  H   H24       1.0  0.25590  0.35778  0.48932  1.0000
  N   N13       1.0  0.25094  0.41161  0.49727  1.0000
  O   O19       1.0  0.27003  0.41842  0.56392  1.0000
  O   O20       1.0  0.22202  0.39057  0.52138  1.0000
  H   H25       1.0  0.16631  0.41672  0.48088  1.0000
  C   C62       1.0  0.25610  0.09871  0.33798  1.0000
  C   C63       1.0  0.26211  0.11548  0.42240  1.0000
  C   C64       1.0  0.26029  0.14495  0.42963  1.0000
  H   H26       1.0  0.26838  0.15823  0.48861  1.0000
  N   N14       1.0  0.27337  0.10442  0.49661  1.0000
  O   O21       1.0  0.25468  0.09779  0.56410  1.0000
  C   C65       1.0  0.27087  0.74898  0.35358  1.0000
  C   C66       1.0  0.25222  0.76642  0.35372  1.0000
  C   C67       1.0  0.19790  0.76605  0.34502  1.0000
  C   C68       1.0  0.21669  0.74980  0.35275  1.0000
  H   H27       1.0  0.20312  0.72466  0.35589  1.0000
  H   H28       1.0  0.17603  0.80737  0.30797  1.0000
  C   C69       1.0  0.27070  0.52569  0.34708  1.0000
  C   C70       1.0  0.25485  0.54517  0.34204  1.0000
  C   C71       1.0  0.27162  0.57942  0.32033  1.0000
  H   H29       1.0  0.22990  0.53441  0.35100  1.0000
  C   C72       1.0  0.25231  0.98963  0.34713  1.0000
  C   C73       1.0  0.25142  0.93590  0.32057  1.0000
  C   C74       1.0  0.26819  0.97017  0.34190  1.0000
  H   H30       1.0  0.21328  0.87984  0.23823  1.0000
  C   C75       1.0  0.26796  0.85508  0.35323  1.0000
  C   C76       1.0  0.27514  0.87253  0.26963  1.0000
  C   C77       1.0  0.27604  0.90349  0.26387  1.0000
  O   O22       1.0  0.25456  0.85069  0.13549  1.0000
  C   C78       1.0  0.16318  0.91749  0.33830  1.0000
  C   C79       1.0  0.25528  0.66035  0.35318  1.0000
  C   C80       1.0  0.24756  0.64260  0.26997  1.0000
  C   C81       1.0  0.24669  0.61166  0.26427  1.0000
  H   H31       1.0  0.24462  0.60150  0.20143  1.0000
  N   N15       1.0  0.24470  0.65820  0.19089  1.0000
  O   O23       1.0  0.21714  0.64076  0.15302  1.0000
  O   O24       1.0  0.26732  0.66405  0.13493  1.0000
  C   C82       1.0  0.27271  0.69580  0.35179  1.0000
  C   C83       1.0  0.25532  0.71355  0.35393  1.0000
  C   C84       1.0  0.26780  0.80185  0.35416  1.0000
  C   C85       1.0  0.25044  0.81963  0.35266  1.0000
  C   C86       1.0  0.21522  0.80142  0.34345  1.0000
  N   N16       1.0  0.19810  0.81785  0.33224  1.0000
  H   H32       1.0  0.20819  0.84132  0.33950  1.0000
  H   H33       1.0  0.23023  0.69930  0.35737  1.0000
  C   C87       1.0  0.21682  0.97025  0.34827  1.0000
  C   C88       1.0  0.19844  0.93586  0.32738  1.0000
  C   C89       1.0  0.21646  0.91938  0.30548  1.0000
  N   N17       1.0  0.20095  0.88778  0.27238  1.0000
  H   H34       1.0  0.17732  0.87435  0.26580  1.0000
  H   H35       1.0  0.20315  0.98130  0.36147  1.0000
  C   C90       1.0  0.16254  0.74795  0.35353  1.0000
  N   N18       1.0  0.16734  0.75047  0.51838  1.0000
  O   O25       1.0  0.17475  0.77681  0.56013  1.0000
  C   C91       1.0  0.26711  0.91676  0.33790  1.0000
  C   C92       1.0  0.26172  0.90028  0.42261  1.0000
  C   C93       1.0  0.26348  0.87078  0.42980  1.0000
  H   H36       1.0  0.25590  0.85778  0.48932  1.0000
  N   N19       1.0  0.25094  0.91161  0.49727  1.0000
  O   O26       1.0  0.27003  0.91842  0.56392  1.0000
  O   O27       1.0  0.22202  0.89057  0.52138  1.0000
  H   H37       1.0  0.16631  0.91672  0.48088  1.0000
  C   C94       1.0  0.25610  0.59871  0.33798  1.0000
  C   C95       1.0  0.26211  0.61548  0.42240  1.0000
  C   C96       1.0  0.26029  0.64495  0.42963  1.0000
  H   H38       1.0  0.26838  0.65822  0.48861  1.0000
  N   N20       1.0  0.27337  0.60442  0.49661  1.0000
  O   O28       1.0  0.25468  0.59779  0.56410  1.0000
  C   C97       1.0  0.30641  0.26562  0.35274  1.0000
  C   C98       1.0  0.32521  0.24941  0.34433  1.0000
  H   H39       1.0  0.31997  0.29075  0.35653  1.0000
  H   H40       1.0  0.34698  0.20825  0.30435  1.0000
  H   H41       1.0  0.29315  0.48098  0.35057  1.0000
  H   H42       1.0  0.30948  0.13503  0.23594  1.0000
  H   H43       1.0  0.27774  0.41342  0.20091  1.0000
  N   N21       1.0  0.27751  0.35668  0.19044  1.0000
  O   O29       1.0  0.30484  0.37398  0.15134  1.0000
  H   H44       1.0  0.36939  0.26720  0.21376  1.0000
  C   C99       1.0  0.35981  0.09784  0.33811  1.0000
  O   O30       1.0  0.36890  0.12235  0.12461  1.0000
  C   C100      1.0  0.30791  0.21405  0.34195  1.0000
  N   N22       1.0  0.32499  0.19766  0.32925  1.0000
  H   H45       1.0  0.31482  0.17413  0.33476  1.0000
  H   H46       1.0  0.29289  0.31609  0.35702  1.0000
  C   C101      1.0  0.30654  0.09583  0.30456  1.0000
  C   C102      1.0  0.32458  0.07942  0.32687  1.0000
  C   C103      1.0  0.30619  0.04507  0.34813  1.0000
  N   N23       1.0  0.32193  0.12724  0.27023  1.0000
  H   H47       1.0  0.34554  0.14058  0.26289  1.0000
  H   H48       1.0  0.31986  0.03404  0.36175  1.0000
  C   C104      1.0  0.36054  0.26746  0.35341  1.0000
  N   N24       1.0  0.35553  0.26432  0.51815  1.0000
  O   O31       1.0  0.34806  0.23782  0.55910  1.0000
  O   O32       1.0  0.30242  0.12558  0.51940  1.0000
  H   H49       1.0  0.35649  0.09896  0.48056  1.0000
  C   C105      1.0  0.30641  0.76562  0.35274  1.0000
  C   C106      1.0  0.32521  0.74941  0.34433  1.0000
  H   H50       1.0  0.31997  0.79075  0.35653  1.0000
  H   H51       1.0  0.34698  0.70825  0.30435  1.0000
  H   H52       1.0  0.29314  0.98098  0.35057  1.0000
  H   H53       1.0  0.30948  0.63502  0.23594  1.0000
  H   H54       1.0  0.27774  0.91342  0.20091  1.0000
  N   N25       1.0  0.27751  0.85668  0.19044  1.0000
  O   O33       1.0  0.30484  0.87398  0.15134  1.0000
  H   H55       1.0  0.36939  0.76720  0.21376  1.0000
  C   C107      1.0  0.35981  0.59784  0.33811  1.0000
  O   O34       1.0  0.36889  0.62235  0.12461  1.0000
  C   C108      1.0  0.30791  0.71406  0.34195  1.0000
  N   N26       1.0  0.32499  0.69766  0.32925  1.0000
  H   H56       1.0  0.31482  0.67413  0.33476  1.0000
  H   H57       1.0  0.29289  0.81609  0.35702  1.0000
  C   C109      1.0  0.30654  0.59583  0.30456  1.0000
  C   C110      1.0  0.32458  0.57942  0.32687  1.0000
  C   C111      1.0  0.30619  0.54506  0.34813  1.0000
  N   N27       1.0  0.32193  0.62724  0.27023  1.0000
  H   H58       1.0  0.34554  0.64058  0.26289  1.0000
  H   H59       1.0  0.31986  0.53404  0.36175  1.0000
  C   C112      1.0  0.36054  0.76746  0.35341  1.0000
  N   N28       1.0  0.35553  0.76432  0.51815  1.0000
  O   O35       1.0  0.34806  0.73782  0.55910  1.0000
  O   O36       1.0  0.30242  0.62558  0.51940  1.0000
  H   H60       1.0  0.35649  0.59896  0.48056  1.0000
  C   C113      1.0  0.49346  0.24868  0.35900  1.0000
  C   C114      1.0  0.47372  0.21322  0.35663  1.0000
  C   C115      1.0  0.43882  0.19497  0.37016  1.0000
  H   H61       1.0  0.48479  0.19936  0.34699  1.0000
  H   H62       1.0  0.37437  0.17282  0.39468  1.0000
  C   C116      1.0  0.42188  0.26610  0.36941  1.0000
  C   C117      1.0  0.40914  0.26774  0.28321  1.0000
  C   C118      1.0  0.37994  0.27017  0.27643  1.0000
  N   N29       1.0  0.42349  0.26262  0.20463  1.0000
  O   O37       1.0  0.43283  0.28626  0.14986  1.0000
  O   O38       1.0  0.40364  0.23613  0.16483  1.0000
  C   C119      1.0  0.38164  0.11451  0.26459  1.0000
  C   C120      1.0  0.41177  0.14479  0.27929  1.0000
  H   H63       1.0  0.42436  0.15841  0.22368  1.0000
  N   N30       1.0  0.37095  0.10194  0.17602  1.0000
  O   O39       1.0  0.39052  0.09406  0.14042  1.0000
  C   C121      1.0  0.42174  0.21292  0.38502  1.0000
  C   C122      1.0  0.43944  0.24832  0.37888  1.0000
  C   C123      1.0  0.47425  0.26488  0.36461  1.0000
  N   N31       1.0  0.38828  0.19646  0.40023  1.0000
  H   H64       1.0  0.37743  0.20726  0.42752  1.0000
  H   H65       1.0  0.48565  0.29004  0.36156  1.0000
  C   C124      1.0  0.37466  0.26835  0.43956  1.0000
  C   C125      1.0  0.40568  0.26947  0.44648  1.0000
  H   H66       1.0  0.41301  0.26630  0.50930  1.0000
  O   O40       1.0  0.37062  0.28817  0.57191  1.0000
  C   C126      1.0  0.42111  0.15948  0.36625  1.0000
  C   C127      1.0  0.40192  0.14009  0.44103  1.0000
  C   C128      1.0  0.37184  0.10984  0.42622  1.0000
  N   N32       1.0  0.41140  0.15362  0.52922  1.0000
  O   O41       1.0  0.41702  0.13505  0.57868  1.0000
  O   O42       1.0  0.38970  0.15794  0.56721  1.0000
  C   C129      1.0  0.49346  0.74869  0.35900  1.0000
  C   C130      1.0  0.47372  0.71322  0.35663  1.0000
  C   C131      1.0  0.43882  0.69497  0.37016  1.0000
  H   H67       1.0  0.48479  0.69936  0.34699  1.0000
  H   H68       1.0  0.37437  0.67282  0.39468  1.0000
  C   C132      1.0  0.42188  0.76610  0.36941  1.0000
  C   C133      1.0  0.40914  0.76773  0.28321  1.0000
  C   C134      1.0  0.37995  0.77017  0.27643  1.0000
  N   N33       1.0  0.42349  0.76262  0.20463  1.0000
  O   O43       1.0  0.43283  0.78626  0.14986  1.0000
  O   O44       1.0  0.40364  0.73613  0.16483  1.0000
  C   C135      1.0  0.38164  0.61451  0.26459  1.0000
  C   C136      1.0  0.41177  0.64479  0.27929  1.0000
  H   H69       1.0  0.42437  0.65841  0.22368  1.0000
  N   N34       1.0  0.37095  0.60194  0.17602  1.0000
  O   O45       1.0  0.39052  0.59406  0.14042  1.0000
  C   C137      1.0  0.42174  0.71292  0.38502  1.0000
  C   C138      1.0  0.43944  0.74832  0.37888  1.0000
  C   C139      1.0  0.47426  0.76488  0.36461  1.0000
  N   N35       1.0  0.38828  0.69646  0.40023  1.0000
  H   H70       1.0  0.37743  0.70726  0.42752  1.0000
  H   H71       1.0  0.48565  0.79004  0.36156  1.0000
  C   C140      1.0  0.37466  0.76835  0.43956  1.0000
  C   C141      1.0  0.40568  0.76947  0.44648  1.0000
  H   H72       1.0  0.41301  0.76630  0.50930  1.0000
  O   O46       1.0  0.37062  0.78817  0.57191  1.0000
  C   C142      1.0  0.42111  0.65948  0.36625  1.0000
  C   C143      1.0  0.40192  0.64009  0.44103  1.0000
  C   C144      1.0  0.37184  0.60984  0.42622  1.0000
  N   N36       1.0  0.41140  0.65362  0.52922  1.0000
  O   O47       1.0  0.41702  0.63505  0.57868  1.0000
  O   O48       1.0  0.38969  0.65794  0.56721  1.0000
  C   C145      1.0  0.99346  0.24868  0.35900  1.0000
  C   C146      1.0  0.97372  0.21322  0.35663  1.0000
  C   C147      1.0  0.93882  0.19497  0.37016  1.0000
  H   H73       1.0  0.98479  0.19936  0.34699  1.0000
  C   C148      1.0  0.52962  0.26669  0.35913  1.0000
  C   C149      1.0  0.58422  0.32041  0.37089  1.0000
  C   C150      1.0  0.54935  0.30215  0.35674  1.0000
  H   H74       1.0  0.53831  0.31600  0.34667  1.0000
  H   H75       1.0  0.64855  0.34253  0.39824  1.0000
  H   H76       1.0  0.87437  0.17282  0.39468  1.0000
  C   C151      1.0  0.77087  0.24898  0.35358  1.0000
  C   C152      1.0  0.80641  0.26562  0.35274  1.0000
  C   C153      1.0  0.82521  0.24941  0.34433  1.0000
  H   H77       1.0  0.81997  0.29075  0.35653  1.0000
  C   C154      1.0  0.75222  0.26642  0.35372  1.0000
  C   C155      1.0  0.69790  0.26605  0.34502  1.0000
  C   C156      1.0  0.71669  0.24980  0.35275  1.0000
  H   H78       1.0  0.70312  0.22466  0.35589  1.0000
  H   H79       1.0  0.67603  0.30737  0.30797  1.0000
  H   H80       1.0  0.84698  0.20825  0.30435  1.0000
  C   C157      1.0  0.77070  0.02569  0.34708  1.0000
  C   C158      1.0  0.75485  0.04517  0.34204  1.0000
  C   C159      1.0  0.77162  0.07942  0.32033  1.0000
  H   H81       1.0  0.72991  0.03441  0.35100  1.0000
  C   C160      1.0  0.75231  0.48963  0.34713  1.0000
  C   C161      1.0  0.75142  0.43590  0.32057  1.0000
  C   C162      1.0  0.76819  0.47017  0.34190  1.0000
  H   H82       1.0  0.79315  0.48098  0.35057  1.0000
  H   H83       1.0  0.71328  0.37984  0.23823  1.0000
  H   H84       1.0  0.80948  0.13503  0.23594  1.0000
  C   C163      1.0  0.60127  0.24940  0.36992  1.0000
  C   C164      1.0  0.61417  0.24811  0.28357  1.0000
  C   C165      1.0  0.64331  0.24557  0.27649  1.0000
  H   H85       1.0  0.65396  0.24891  0.21384  1.0000
  N   N37       1.0  0.59998  0.25359  0.20520  1.0000
  O   O49       1.0  0.59066  0.23016  0.14972  1.0000
  O   O50       1.0  0.61993  0.28022  0.16616  1.0000
  C   C166      1.0  0.76796  0.35508  0.35323  1.0000
  C   C167      1.0  0.77514  0.37253  0.26963  1.0000
  C   C168      1.0  0.77605  0.40349  0.26387  1.0000
  H   H86       1.0  0.77774  0.41342  0.20091  1.0000
  N   N38       1.0  0.77751  0.35668  0.19044  1.0000
  O   O51       1.0  0.80484  0.37398  0.15134  1.0000
  O   O52       1.0  0.75457  0.35069  0.13549  1.0000
  C   C169      1.0  0.66318  0.41749  0.33830  1.0000
  C   C170      1.0  0.64153  0.40072  0.26456  1.0000
  C   C171      1.0  0.61145  0.37039  0.27933  1.0000
  H   H87       1.0  0.59889  0.35665  0.22385  1.0000
  N   N39       1.0  0.65238  0.41310  0.17593  1.0000
  O   O53       1.0  0.63281  0.42079  0.13941  1.0000
  O   O54       1.0  0.65463  0.39261  0.12530  1.0000
  C   C172      1.0  0.92188  0.26610  0.36941  1.0000
  C   C173      1.0  0.90914  0.26774  0.28321  1.0000
  C   C174      1.0  0.87994  0.27017  0.27643  1.0000
  H   H88       1.0  0.86939  0.26720  0.21376  1.0000
  N   N40       1.0  0.92349  0.26262  0.20463  1.0000
  O   O55       1.0  0.93283  0.28626  0.14986  1.0000
  O   O56       1.0  0.90364  0.23613  0.16483  1.0000
  C   C175      1.0  0.75528  0.16035  0.35318  1.0000
  C   C176      1.0  0.74756  0.14260  0.26997  1.0000
  C   C177      1.0  0.74669  0.11166  0.26427  1.0000
  H   H89       1.0  0.74462  0.10150  0.20143  1.0000
  N   N41       1.0  0.74470  0.15821  0.19089  1.0000
  O   O57       1.0  0.71714  0.14076  0.15302  1.0000
  O   O58       1.0  0.76732  0.16405  0.13493  1.0000
  C   C178      1.0  0.85980  0.09784  0.33811  1.0000
  C   C179      1.0  0.88164  0.11451  0.26459  1.0000
  C   C180      1.0  0.91177  0.14479  0.27929  1.0000
  H   H90       1.0  0.92437  0.15841  0.22368  1.0000
  N   N42       1.0  0.87095  0.10194  0.17602  1.0000
  O   O59       1.0  0.89052  0.09406  0.14042  1.0000
  O   O60       1.0  0.86890  0.12235  0.12461  1.0000
  C   C181      1.0  0.92173  0.21292  0.38502  1.0000
  C   C182      1.0  0.93944  0.24832  0.37888  1.0000
  C   C183      1.0  0.97425  0.26488  0.36461  1.0000
  N   N43       1.0  0.88828  0.19646  0.40023  1.0000
  C   C184      1.0  0.54883  0.25050  0.36477  1.0000
  C   C185      1.0  0.58361  0.26708  0.37954  1.0000
  C   C186      1.0  0.60127  0.30245  0.38641  1.0000
  N   N44       1.0  0.63463  0.31887  0.40306  1.0000
  H   H91       1.0  0.64533  0.30799  0.43081  1.0000
  H   H92       1.0  0.87743  0.20726  0.42752  1.0000
  H   H93       1.0  0.98565  0.29004  0.36156  1.0000
  H   H94       1.0  0.53747  0.22535  0.36133  1.0000
  C   C187      1.0  0.80791  0.21405  0.34195  1.0000
  C   C188      1.0  0.77271  0.19580  0.35179  1.0000
  C   C189      1.0  0.75532  0.21355  0.35393  1.0000
  N   N45       1.0  0.82499  0.19766  0.32925  1.0000
  C   C190      1.0  0.76780  0.30185  0.35416  1.0000
  C   C191      1.0  0.75044  0.31963  0.35266  1.0000
  C   C192      1.0  0.71522  0.30142  0.34345  1.0000
  N   N46       1.0  0.69810  0.31785  0.33224  1.0000
  H   H95       1.0  0.70819  0.34132  0.33950  1.0000
  H   H96       1.0  0.81482  0.17413  0.33476  1.0000
  H   H97       1.0  0.73023  0.19930  0.35737  1.0000
  H   H98       1.0  0.79289  0.31609  0.35702  1.0000
  C   C193      1.0  0.80654  0.09583  0.30456  1.0000
  C   C194      1.0  0.82457  0.07942  0.32687  1.0000
  C   C195      1.0  0.80619  0.04507  0.34813  1.0000
  N   N47       1.0  0.82193  0.12724  0.27023  1.0000
  C   C196      1.0  0.71682  0.47025  0.34827  1.0000
  C   C197      1.0  0.69844  0.43586  0.32738  1.0000
  C   C198      1.0  0.71646  0.41938  0.30548  1.0000
  N   N48       1.0  0.70095  0.38779  0.27238  1.0000
  H   H99       1.0  0.67732  0.37435  0.26580  1.0000
  H   H100      1.0  0.84554  0.14058  0.26289  1.0000
  H   H101      1.0  0.81986  0.03404  0.36175  1.0000
  H   H102      1.0  0.70315  0.48130  0.36147  1.0000
  C   C199      1.0  0.66254  0.24795  0.35353  1.0000
  C   C200      1.0  0.64834  0.24676  0.43975  1.0000
  C   C201      1.0  0.61732  0.24563  0.44674  1.0000
  H   H103      1.0  0.60987  0.24861  0.50956  1.0000
  N   N49       1.0  0.66734  0.25047  0.51838  1.0000
  O   O61       1.0  0.65215  0.22641  0.57144  1.0000
  O   O62       1.0  0.67475  0.27681  0.56013  1.0000
  C   C202      1.0  0.76711  0.41675  0.33790  1.0000
  C   C203      1.0  0.76172  0.40028  0.42261  1.0000
  C   C204      1.0  0.76348  0.37078  0.42980  1.0000
  H   H104      1.0  0.75590  0.35778  0.48932  1.0000
  N   N50       1.0  0.75094  0.41161  0.49727  1.0000
  O   O63       1.0  0.77003  0.41842  0.56392  1.0000
  O   O64       1.0  0.72201  0.39057  0.52138  1.0000
  C   C205      1.0  0.60195  0.35589  0.36648  1.0000
  C   C206      1.0  0.62096  0.37547  0.44126  1.0000
  C   C207      1.0  0.65105  0.40571  0.42646  1.0000
  H   H105      1.0  0.66631  0.41672  0.48088  1.0000
  N   N51       1.0  0.61128  0.36211  0.52955  1.0000
  O   O65       1.0  0.60547  0.38074  0.57817  1.0000
  O   O66       1.0  0.63293  0.35794  0.56847  1.0000
  C   C208      1.0  0.86054  0.26746  0.35341  1.0000
  C   C209      1.0  0.87466  0.26835  0.43956  1.0000
  C   C210      1.0  0.90568  0.26947  0.44648  1.0000
  H   H106      1.0  0.91301  0.26630  0.50930  1.0000
  N   N52       1.0  0.85553  0.26432  0.51815  1.0000
  O   O67       1.0  0.87062  0.28817  0.57191  1.0000
  O   O68       1.0  0.84806  0.23782  0.55910  1.0000
  C   C211      1.0  0.75610  0.09871  0.33798  1.0000
  C   C212      1.0  0.76211  0.11548  0.42240  1.0000
  C   C213      1.0  0.76029  0.14495  0.42963  1.0000
  H   H107      1.0  0.76838  0.15823  0.48861  1.0000
  N   N53       1.0  0.77337  0.10442  0.49661  1.0000
  O   O69       1.0  0.75468  0.09779  0.56410  1.0000
  O   O70       1.0  0.80242  0.12558  0.51940  1.0000
  C   C214      1.0  0.92111  0.15948  0.36625  1.0000
  C   C215      1.0  0.90192  0.14009  0.44103  1.0000
  C   C216      1.0  0.87184  0.10984  0.42622  1.0000
  H   H108      1.0  0.85649  0.09896  0.48056  1.0000
  N   N54       1.0  0.91140  0.15362  0.52922  1.0000
  O   O71       1.0  0.91702  0.13505  0.57868  1.0000
  O   O72       1.0  0.88970  0.15794  0.56721  1.0000
  C   C217      1.0  0.99346  0.74869  0.35900  1.0000
  C   C218      1.0  0.97372  0.71322  0.35663  1.0000
  C   C219      1.0  0.93882  0.69497  0.37016  1.0000
  H   H109      1.0  0.98479  0.69936  0.34699  1.0000
  C   C220      1.0  0.52962  0.76668  0.35913  1.0000
  C   C221      1.0  0.58422  0.82041  0.37089  1.0000
  C   C222      1.0  0.54935  0.80215  0.35674  1.0000
  H   H110      1.0  0.53831  0.81600  0.34667  1.0000
  H   H111      1.0  0.64855  0.84253  0.39824  1.0000
  H   H112      1.0  0.87437  0.67282  0.39468  1.0000
  C   C223      1.0  0.77087  0.74898  0.35358  1.0000
  C   C224      1.0  0.80641  0.76562  0.35274  1.0000
  C   C225      1.0  0.82521  0.74941  0.34433  1.0000
  H   H113      1.0  0.81997  0.79075  0.35653  1.0000
  C   C226      1.0  0.75222  0.76642  0.35372  1.0000
  C   C227      1.0  0.69790  0.76605  0.34502  1.0000
  C   C228      1.0  0.71669  0.74980  0.35275  1.0000
  H   H114      1.0  0.70312  0.72466  0.35589  1.0000
  H   H115      1.0  0.67603  0.80737  0.30797  1.0000
  H   H116      1.0  0.84698  0.70825  0.30435  1.0000
  C   C229      1.0  0.77070  0.52569  0.34708  1.0000
  C   C230      1.0  0.75485  0.54517  0.34204  1.0000
  C   C231      1.0  0.77162  0.57942  0.32033  1.0000
  H   H117      1.0  0.72990  0.53441  0.35100  1.0000
  C   C232      1.0  0.75231  0.98963  0.34713  1.0000
  C   C233      1.0  0.75142  0.93590  0.32057  1.0000
  C   C234      1.0  0.76819  0.97017  0.34190  1.0000
  H   H118      1.0  0.79314  0.98098  0.35057  1.0000
  H   H119      1.0  0.71328  0.87984  0.23823  1.0000
  H   H120      1.0  0.80948  0.63502  0.23594  1.0000
  C   C235      1.0  0.60127  0.74940  0.36992  1.0000
  C   C236      1.0  0.61417  0.74811  0.28357  1.0000
  C   C237      1.0  0.64331  0.74557  0.27649  1.0000
  H   H121      1.0  0.65396  0.74891  0.21384  1.0000
  N   N55       1.0  0.59998  0.75359  0.20520  1.0000
  O   O73       1.0  0.59066  0.73015  0.14972  1.0000
  O   O74       1.0  0.61993  0.78022  0.16616  1.0000
  C   C238      1.0  0.76796  0.85508  0.35323  1.0000
  C   C239      1.0  0.77514  0.87253  0.26963  1.0000
  C   C240      1.0  0.77605  0.90349  0.26387  1.0000
  H   H122      1.0  0.77774  0.91342  0.20091  1.0000
  N   N56       1.0  0.77751  0.85668  0.19044  1.0000
  O   O75       1.0  0.80484  0.87398  0.15134  1.0000
  O   O76       1.0  0.75456  0.85069  0.13549  1.0000
  C   C241      1.0  0.66318  0.91749  0.33830  1.0000
  C   C242      1.0  0.64153  0.90072  0.26456  1.0000
  C   C243      1.0  0.61145  0.87039  0.27933  1.0000
  H   H123      1.0  0.59889  0.85665  0.22385  1.0000
  N   N57       1.0  0.65238  0.91310  0.17593  1.0000
  O   O77       1.0  0.63281  0.92079  0.13941  1.0000
  O   O78       1.0  0.65463  0.89261  0.12530  1.0000
  C   C244      1.0  0.92188  0.76610  0.36941  1.0000
  C   C245      1.0  0.90914  0.76773  0.28321  1.0000
  C   C246      1.0  0.87994  0.77017  0.27643  1.0000
  H   H124      1.0  0.86939  0.76720  0.21376  1.0000
  N   N58       1.0  0.92349  0.76262  0.20463  1.0000
  O   O79       1.0  0.93283  0.78626  0.14986  1.0000
  O   O80       1.0  0.90364  0.73613  0.16483  1.0000
  C   C247      1.0  0.75528  0.66035  0.35318  1.0000
  C   C248      1.0  0.74756  0.64260  0.26997  1.0000
  C   C249      1.0  0.74669  0.61166  0.26427  1.0000
  H   H125      1.0  0.74462  0.60150  0.20143  1.0000
  N   N59       1.0  0.74470  0.65820  0.19089  1.0000
  O   O81       1.0  0.71714  0.64076  0.15302  1.0000
  O   O82       1.0  0.76732  0.66405  0.13493  1.0000
  C   C250      1.0  0.85980  0.59784  0.33811  1.0000
  C   C251      1.0  0.88164  0.61451  0.26459  1.0000
  C   C252      1.0  0.91177  0.64479  0.27929  1.0000
  H   H126      1.0  0.92436  0.65841  0.22368  1.0000
  N   N60       1.0  0.87095  0.60194  0.17602  1.0000
  O   O83       1.0  0.89052  0.59406  0.14042  1.0000
  O   O84       1.0  0.86889  0.62235  0.12461  1.0000
  C   C253      1.0  0.92173  0.71292  0.38502  1.0000
  C   C254      1.0  0.93944  0.74832  0.37888  1.0000
  C   C255      1.0  0.97425  0.76488  0.36461  1.0000
  N   N61       1.0  0.88828  0.69646  0.40023  1.0000
  C   C256      1.0  0.54883  0.75050  0.36477  1.0000
  C   C257      1.0  0.58361  0.76707  0.37954  1.0000
  C   C258      1.0  0.60127  0.80246  0.38641  1.0000
  N   N62       1.0  0.63463  0.81887  0.40306  1.0000
  H   H127      1.0  0.64533  0.80800  0.43081  1.0000
  H   H128      1.0  0.87743  0.70726  0.42752  1.0000
  H   H129      1.0  0.98565  0.79004  0.36156  1.0000
  H   H130      1.0  0.53746  0.72535  0.36133  1.0000
  C   C259      1.0  0.80791  0.71406  0.34195  1.0000
  C   C260      1.0  0.77271  0.69580  0.35179  1.0000
  C   C261      1.0  0.75532  0.71355  0.35393  1.0000
  N   N63       1.0  0.82499  0.69766  0.32925  1.0000
  C   C262      1.0  0.76780  0.80185  0.35416  1.0000
  C   C263      1.0  0.75044  0.81963  0.35266  1.0000
  C   C264      1.0  0.71522  0.80142  0.34345  1.0000
  N   N64       1.0  0.69810  0.81785  0.33224  1.0000
  H   H131      1.0  0.70819  0.84132  0.33950  1.0000
  H   H132      1.0  0.81482  0.67413  0.33476  1.0000
  H   H133      1.0  0.73023  0.69930  0.35737  1.0000
  H   H134      1.0  0.79289  0.81609  0.35702  1.0000
  C   C265      1.0  0.80654  0.59583  0.30456  1.0000
  C   C266      1.0  0.82457  0.57942  0.32687  1.0000
  C   C267      1.0  0.80619  0.54506  0.34813  1.0000
  N   N65       1.0  0.82193  0.62724  0.27023  1.0000
  C   C268      1.0  0.71682  0.97025  0.34827  1.0000
  C   C269      1.0  0.69844  0.93586  0.32738  1.0000
  C   C270      1.0  0.71646  0.91938  0.30548  1.0000
  N   N66       1.0  0.70095  0.88778  0.27238  1.0000
  H   H135      1.0  0.67732  0.87435  0.26580  1.0000
  H   H136      1.0  0.84554  0.64058  0.26289  1.0000
  H   H137      1.0  0.81986  0.53404  0.36175  1.0000
  H   H138      1.0  0.70315  0.98130  0.36147  1.0000
  C   C271      1.0  0.66254  0.74795  0.35353  1.0000
  C   C272      1.0  0.64834  0.74676  0.43975  1.0000
  C   C273      1.0  0.61732  0.74563  0.44673  1.0000
  H   H139      1.0  0.60987  0.74861  0.50956  1.0000
  N   N67       1.0  0.66734  0.75047  0.51838  1.0000
  O   O85       1.0  0.65215  0.72641  0.57144  1.0000
  O   O86       1.0  0.67475  0.77681  0.56013  1.0000
  C   C274      1.0  0.76711  0.91676  0.33790  1.0000
  C   C275      1.0  0.76172  0.90028  0.42261  1.0000
  C   C276      1.0  0.76348  0.87078  0.42980  1.0000
  H   H140      1.0  0.75590  0.85778  0.48932  1.0000
  N   N68       1.0  0.75094  0.91161  0.49727  1.0000
  O   O87       1.0  0.77003  0.91842  0.56392  1.0000
  O   O88       1.0  0.72201  0.89057  0.52138  1.0000
  C   C277      1.0  0.60195  0.85589  0.36648  1.0000
  C   C278      1.0  0.62096  0.87547  0.44126  1.0000
  C   C279      1.0  0.65105  0.90571  0.42646  1.0000
  H   H141      1.0  0.66631  0.91672  0.48088  1.0000
  N   N69       1.0  0.61128  0.86211  0.52955  1.0000
  O   O89       1.0  0.60547  0.88074  0.57817  1.0000
  O   O90       1.0  0.63293  0.85794  0.56847  1.0000
  C   C280      1.0  0.86054  0.76746  0.35341  1.0000
  C   C281      1.0  0.87466  0.76835  0.43956  1.0000
  C   C282      1.0  0.90568  0.76947  0.44648  1.0000
  H   H142      1.0  0.91301  0.76630  0.50930  1.0000
  N   N70       1.0  0.85553  0.76432  0.51815  1.0000
  O   O91       1.0  0.87062  0.78817  0.57191  1.0000
  O   O92       1.0  0.84806  0.73782  0.55910  1.0000
  C   C283      1.0  0.75610  0.59871  0.33798  1.0000
  C   C284      1.0  0.76211  0.61548  0.42240  1.0000
  C   C285      1.0  0.76029  0.64495  0.42963  1.0000
  H   H143      1.0  0.76838  0.65822  0.48861  1.0000
  N   N71       1.0  0.77337  0.60442  0.49661  1.0000
  O   O93       1.0  0.75467  0.59779  0.56410  1.0000
  O   O94       1.0  0.80242  0.62558  0.51940  1.0000
  C   C286      1.0  0.92111  0.65948  0.36625  1.0000
  C   C287      1.0  0.90192  0.64009  0.44103  1.0000
  C   C288      1.0  0.87184  0.60984  0.42622  1.0000
  H   H144      1.0  0.85649  0.59896  0.48056  1.0000
  N   N72       1.0  0.91140  0.65362  0.52922  1.0000
  O   O95       1.0  0.91702  0.63505  0.57868  1.0000
  O   O96       1.0  0.88970  0.65794  0.56721  1.0000
