data_image0
_chemical_formula_structural       N2C4H2C4H2C4H2N8C4H2C4H2N2C4H2C4H2C4H2N8C4H2C4H2N4C4H2C4H2N4C4H2C4H2N4C4H2C4H2N4C4H2C4H2C6H3C6H3C6H3C6H3C6H3C6H3C6H3C6H3C6H3C6H3C6H3C6H3C6H3C6H3C6H3C6H3C6H3C6H3C6H3C6H3C6H3C6H3C6H3C6H3C4H2N6C4H2C4H2C4H2C4H2N4C4H2N6C4H2C4H2C4H2C4H2N4C4H2C4H2N4C4H2C4H2N4C4H2C4H2N4C4H2C4H2N4
_chemical_formula_sum              "N72 C288 H144"
_cell_length_a       42.4303
_cell_length_b       53.9497
_cell_length_c       14.8548
_cell_angle_alpha    90
_cell_angle_beta     90
_cell_angle_gamma    90

_space_group_name_H-M_alt    "P 1"
_space_group_IT_number       1

loop_
  _space_group_symop_operation_xyz
  'x, y, z'

loop_
  _atom_site_type_symbol
  _atom_site_label
  _atom_site_symmetry_multiplicity
  _atom_site_fract_x
  _atom_site_fract_y
  _atom_site_fract_z
  _atom_site_occupancy
  N   N1        1.0  0.51345  0.02396  0.31738  1.0000
  N   N2        1.0  0.53067  0.00373  0.31825  1.0000
  C   C1        1.0  0.98432  0.48424  0.33085  1.0000
  C   C2        1.0  0.97332  0.50578  0.28677  1.0000
  C   C3        1.0  0.99190  0.52735  0.28546  1.0000
  C   C4        1.0  0.02160  0.52782  0.32896  1.0000
  H   H1        1.0  0.98362  0.54239  0.25099  1.0000
  H   H2        1.0  0.95218  0.50586  0.25366  1.0000
  C   C5        1.0  0.31541  0.07455  0.32409  1.0000
  C   C6        1.0  0.33380  0.08738  0.25986  1.0000
  C   C7        1.0  0.36674  0.08498  0.26049  1.0000
  C   C8        1.0  0.38141  0.06960  0.32499  1.0000
  H   H3        1.0  0.37983  0.09511  0.21580  1.0000
  H   H4        1.0  0.32358  0.09939  0.21518  1.0000
  C   C9        1.0  0.69333  0.93701  0.32556  1.0000
  C   C10       1.0  0.67512  0.92533  0.25819  1.0000
  C   C11       1.0  0.64220  0.92792  0.25839  1.0000
  C   C12       1.0  0.62736  0.94220  0.32592  1.0000
  H   H5        1.0  0.62917  0.91842  0.21174  1.0000
  H   H6        1.0  0.68544  0.91397  0.21147  1.0000
  N   N3        1.0  0.14669  0.55638  0.30005  1.0000
  N   N4        1.0  0.17759  0.55880  0.30044  1.0000
  N   N5        1.0  0.86217  0.45263  0.30205  1.0000
  N   N6        1.0  0.83128  0.45024  0.30231  1.0000
  N   N7        1.0  0.50174  0.12569  0.30812  1.0000
  N   N8        1.0  0.51240  0.14861  0.30871  1.0000
  N   N9        1.0  0.50927  0.88235  0.31275  1.0000
  N   N10       1.0  0.49860  0.85944  0.31391  1.0000
  C   C13       1.0  0.01038  0.66831  0.31760  1.0000
  C   C14       1.0  0.03460  0.66105  0.25765  1.0000
  C   C15       1.0  0.04630  0.63674  0.25959  1.0000
  C   C16       1.0  0.03347  0.61942  0.32060  1.0000
  H   H7        1.0  0.06435  0.63196  0.21727  1.0000
  H   H8        1.0  0.04447  0.67343  0.21374  1.0000
  C   C17       1.0  0.00116  0.34328  0.32065  1.0000
  C   C18       1.0  0.97797  0.35069  0.25781  1.0000
  C   C19       1.0  0.96652  0.37507  0.25859  1.0000
  C   C20       1.0  0.97845  0.39226  0.32165  1.0000
  H   H9        1.0  0.94898  0.37993  0.21469  1.0000
  H   H10       1.0  0.96859  0.33835  0.21288  1.0000
  N   N11       1.0  0.49658  0.48584  0.31163  1.0000
  N   N12       1.0  0.52628  0.49267  0.31204  1.0000
  C   C21       1.0  0.97287  0.01073  0.33502  1.0000
  C   C22       1.0  0.98204  0.98893  0.28911  1.0000
  C   C23       1.0  0.01382  0.98160  0.28833  1.0000
  C   C24       1.0  0.03681  0.99597  0.33344  1.0000
  H   H11       1.0  0.01993  0.96598  0.25342  1.0000
  H   H12       1.0  0.96602  0.97848  0.25439  1.0000
  C   C25       1.0  0.38514  0.37813  0.33240  1.0000
  C   C26       1.0  0.41100  0.38764  0.28335  1.0000
  C   C27       1.0  0.41677  0.41328  0.28190  1.0000
  C   C28       1.0  0.39680  0.42966  0.32969  1.0000
  H   H13       1.0  0.43545  0.41976  0.24529  1.0000
  H   H14       1.0  0.42561  0.37618  0.24773  1.0000
  C   C29       1.0  0.62855  0.63117  0.33057  1.0000
  C   C30       1.0  0.60372  0.62182  0.27710  1.0000
  C   C31       1.0  0.59784  0.59623  0.27464  1.0000
  C   C32       1.0  0.61661  0.57981  0.32599  1.0000
  H   H15       1.0  0.57972  0.58982  0.23558  1.0000
  H   H16       1.0  0.58981  0.63339  0.23964  1.0000
  N   N13       1.0  0.14068  0.91952  0.31231  1.0000
  N   N14       1.0  0.14623  0.89558  0.31041  1.0000
  N   N15       1.0  0.87191  0.09057  0.31334  1.0000
  N   N16       1.0  0.86651  0.11453  0.31206  1.0000
  N   N17       1.0  0.32962  0.51267  0.31275  1.0000
  N   N18       1.0  0.30631  0.52877  0.31210  1.0000
  N   N19       1.0  0.67973  0.49586  0.31196  1.0000
  N   N20       1.0  0.70293  0.47971  0.31152  1.0000
  C   C33       1.0  0.20089  0.05292  0.33575  1.0000
  C   C34       1.0  0.17226  0.05836  0.29115  1.0000
  C   C35       1.0  0.14756  0.04100  0.29062  1.0000
  C   C36       1.0  0.15104  0.01795  0.33493  1.0000
  H   H17       1.0  0.12741  0.04532  0.25630  1.0000
  H   H18       1.0  0.16920  0.07476  0.25771  1.0000
  C   C37       1.0  0.80765  0.95847  0.33375  1.0000
  C   C38       1.0  0.83558  0.95328  0.28541  1.0000
  C   C39       1.0  0.86039  0.97051  0.28435  1.0000
  C   C40       1.0  0.85774  0.99311  0.33209  1.0000
  H   H19       1.0  0.88013  0.96637  0.24783  1.0000
  H   H20       1.0  0.83807  0.93713  0.25000  1.0000
  N   N21       1.0  0.20476  0.17406  0.32611  1.0000
  N   N22       1.0  0.21122  0.15026  0.32443  1.0000
  N   N23       1.0  0.80509  0.83745  0.32369  1.0000
  N   N24       1.0  0.79818  0.86118  0.32170  1.0000
  C   C41       1.0  0.27266  0.63863  0.32381  1.0000
  C   C42       1.0  0.25358  0.65521  0.27426  1.0000
  C   C43       1.0  0.26101  0.68057  0.27184  1.0000
  C   C44       1.0  0.28752  0.68967  0.31925  1.0000
  H   H21       1.0  0.24710  0.69211  0.23436  1.0000
  H   H22       1.0  0.23444  0.64905  0.23884  1.0000
  C   C45       1.0  0.73691  0.36978  0.32000  1.0000
  C   C46       1.0  0.75626  0.35337  0.27053  1.0000
  C   C47       1.0  0.74930  0.32793  0.26872  1.0000
  C   C48       1.0  0.72299  0.31866  0.31655  1.0000
  H   H23       1.0  0.76338  0.31647  0.23144  1.0000
  H   H24       1.0  0.77528  0.35970  0.23498  1.0000
  N   N25       1.0  0.26378  0.29434  0.30678  1.0000
  N   N26       1.0  0.28920  0.30823  0.30698  1.0000
  N   N27       1.0  0.74787  0.71624  0.30690  1.0000
  N   N28       1.0  0.72278  0.70200  0.30819  1.0000
  C   C49       1.0  0.20181  0.80778  0.30888  1.0000
  C   C50       1.0  0.20792  0.79185  0.23539  1.0000
  C   C51       1.0  0.23444  0.77639  0.23729  1.0000
  C   C52       1.0  0.25480  0.77722  0.31223  1.0000
  H   H25       1.0  0.23801  0.76401  0.18603  1.0000
  H   H26       1.0  0.19219  0.79020  0.18344  1.0000
  C   C53       1.0  0.81028  0.20144  0.31016  1.0000
  C   C54       1.0  0.80390  0.21699  0.23577  1.0000
  C   C55       1.0  0.77707  0.23212  0.23667  1.0000
  C   C56       1.0  0.75668  0.23136  0.31157  1.0000
  H   H27       1.0  0.77331  0.24426  0.18478  1.0000
  H   H28       1.0  0.81965  0.21863  0.18387  1.0000
  N   N29       1.0  0.44832  0.29233  0.30870  1.0000
  N   N30       1.0  0.47024  0.27518  0.30687  1.0000
  N   N31       1.0  0.56361  0.71605  0.31082  1.0000
  N   N32       1.0  0.54141  0.73298  0.30922  1.0000
  C   C57       1.0  0.04157  0.75617  0.32345  1.0000
  C   C58       1.0  0.06656  0.75396  0.26129  1.0000
  C   C59       1.0  0.09015  0.77212  0.25905  1.0000
  C   C60       1.0  0.08895  0.79236  0.31947  1.0000
  H   H29       1.0  0.10815  0.77028  0.21368  1.0000
  H   H30       1.0  0.06776  0.73940  0.21728  1.0000
  C   C61       1.0  0.96948  0.25533  0.32696  1.0000
  C   C62       1.0  0.94424  0.25749  0.26561  1.0000
  C   C63       1.0  0.92097  0.23906  0.26296  1.0000
  C   C64       1.0  0.92272  0.21856  0.32215  1.0000
  H   H31       1.0  0.90285  0.24085  0.21798  1.0000
  H   H32       1.0  0.94267  0.27217  0.22223  1.0000
  N   N33       1.0  0.10498  0.28774  0.31807  1.0000
  N   N34       1.0  0.13410  0.27957  0.31803  1.0000
  N   N35       1.0  0.90595  0.72379  0.31443  1.0000
  N   N36       1.0  0.87685  0.73201  0.31449  1.0000
  C   C65       1.0  0.36749  0.75712  0.32632  1.0000
  C   C66       1.0  0.39056  0.74486  0.27430  1.0000
  C   C67       1.0  0.42161  0.75379  0.27342  1.0000
  C   C68       1.0  0.42983  0.77485  0.32514  1.0000
  H   H33       1.0  0.43800  0.74476  0.23500  1.0000
  H   H34       1.0  0.38500  0.72977  0.23574  1.0000
  C   C69       1.0  0.64372  0.25096  0.32298  1.0000
  C   C70       1.0  0.62067  0.26323  0.27085  1.0000
  C   C71       1.0  0.58961  0.25434  0.26996  1.0000
  C   C72       1.0  0.58141  0.23328  0.32165  1.0000
  H   H35       1.0  0.57323  0.26338  0.23152  1.0000
  H   H36       1.0  0.62624  0.27832  0.23230  1.0000
  C   C73       1.0  0.46411  0.09388  0.35305  1.0000
  C   C74       1.0  0.43099  0.09252  0.34347  1.0000
  C   C75       1.0  0.41483  0.06969  0.33643  1.0000
  C   C76       1.0  0.43276  0.04767  0.34193  1.0000
  C   C77       1.0  0.46619  0.04806  0.34961  1.0000
  C   C78       1.0  0.48145  0.07149  0.35284  1.0000
  H   H37       1.0  0.42121  0.03109  0.33599  1.0000
  H   H38       1.0  0.50541  0.07230  0.36081  1.0000
  H   H39       1.0  0.41822  0.10865  0.34200  1.0000
  C   C79       1.0  0.54680  0.91447  0.35566  1.0000
  C   C80       1.0  0.57972  0.91741  0.34662  1.0000
  C   C81       1.0  0.59404  0.94098  0.33869  1.0000
  C   C82       1.0  0.57446  0.96220  0.34380  1.0000
  C   C83       1.0  0.54112  0.96025  0.35242  1.0000
  C   C84       1.0  0.52792  0.93601  0.35560  1.0000
  H   H40       1.0  0.58474  0.97933  0.33974  1.0000
  H   H41       1.0  0.50404  0.93375  0.35940  1.0000
  H   H42       1.0  0.59364  0.90189  0.34481  1.0000
  C   C85       1.0  0.04678  0.59530  0.33035  1.0000
  C   C86       1.0  0.07970  0.59244  0.33974  1.0000
  C   C87       1.0  0.09411  0.56891  0.34779  1.0000
  C   C88       1.0  0.07462  0.54764  0.34234  1.0000
  C   C89       1.0  0.04130  0.54952  0.33325  1.0000
  C   C90       1.0  0.02799  0.57371  0.33003  1.0000
  H   H43       1.0  0.08496  0.53053  0.34642  1.0000
  H   H44       1.0  0.00409  0.57591  0.32590  1.0000
  H   H45       1.0  0.09355  0.60801  0.34174  1.0000
  C   C91       1.0  0.96408  0.41595  0.33285  1.0000
  C   C92       1.0  0.93096  0.41741  0.34248  1.0000
  C   C93       1.0  0.91491  0.44029  0.34911  1.0000
  C   C94       1.0  0.93292  0.46226  0.34317  1.0000
  C   C95       1.0  0.96635  0.46177  0.33564  1.0000
  C   C96       1.0  0.98152  0.43830  0.33270  1.0000
  H   H46       1.0  0.92145  0.47888  0.34891  1.0000
  H   H47       1.0  0.00548  0.43742  0.32485  1.0000
  H   H48       1.0  0.91812  0.40132  0.34426  1.0000
  C   C97       1.0  0.44084  0.49047  0.34699  1.0000
  C   C98       1.0  0.43389  0.46493  0.33968  1.0000
  C   C99       1.0  0.40259  0.45577  0.33584  1.0000
  C   C100      1.0  0.37757  0.47316  0.34173  1.0000
  C   C101      1.0  0.38313  0.49901  0.34916  1.0000
  C   C102      1.0  0.41497  0.50705  0.34959  1.0000
  H   H49       1.0  0.35481  0.46687  0.34048  1.0000
  H   H50       1.0  0.41953  0.52564  0.34903  1.0000
  H   H51       1.0  0.45223  0.45261  0.34061  1.0000
  C   C103      1.0  0.56933  0.52082  0.34729  1.0000
  C   C104      1.0  0.57788  0.54604  0.33935  1.0000
  C   C105      1.0  0.60961  0.55395  0.33360  1.0000
  C   C106      1.0  0.63349  0.53566  0.33900  1.0000
  C   C107      1.0  0.62635  0.51001  0.34641  1.0000
  C   C108      1.0  0.59397  0.50314  0.34831  1.0000
  H   H52       1.0  0.65656  0.54119  0.33679  1.0000
  H   H53       1.0  0.58797  0.48481  0.35141  1.0000
  H   H54       1.0  0.56040  0.55908  0.33735  1.0000
  C   C109      1.0  0.06932  0.98889  0.33859  1.0000
  C   C110      1.0  0.07787  0.96366  0.34643  1.0000
  C   C111      1.0  0.10959  0.95574  0.35215  1.0000
  C   C112      1.0  0.13347  0.97404  0.34679  1.0000
  C   C113      1.0  0.12634  0.99969  0.33942  1.0000
  C   C114      1.0  0.09397  0.00656  0.33760  1.0000
  H   H55       1.0  0.15654  0.96850  0.34900  1.0000
  H   H56       1.0  0.08797  0.02489  0.33456  1.0000
  H   H57       1.0  0.06037  0.95063  0.34839  1.0000
  C   C115      1.0  0.94084  0.01925  0.33947  1.0000
  C   C116      1.0  0.93390  0.04479  0.34673  1.0000
  C   C117      1.0  0.90259  0.05395  0.35072  1.0000
  C   C118      1.0  0.87757  0.03656  0.34504  1.0000
  C   C119      1.0  0.88313  0.01071  0.33764  1.0000
  C   C120      1.0  0.91497  0.00267  0.33705  1.0000
  H   H58       1.0  0.85481  0.04285  0.34639  1.0000
  H   H59       1.0  0.91952  0.98407  0.33757  1.0000
  H   H60       1.0  0.95223  0.05711  0.34574  1.0000
  C   C121      1.0  0.24358  0.11424  0.35739  1.0000
  C   C122      1.0  0.27506  0.10606  0.34859  1.0000
  C   C123      1.0  0.28303  0.08078  0.33733  1.0000
  C   C124      1.0  0.25833  0.06310  0.33722  1.0000
  C   C125      1.0  0.22620  0.07048  0.34203  1.0000
  C   C126      1.0  0.21956  0.09615  0.35230  1.0000
  H   H61       1.0  0.26376  0.04479  0.32784  1.0000
  H   H62       1.0  0.19668  0.10184  0.35945  1.0000
  H   H63       1.0  0.29276  0.11896  0.34871  1.0000
  C   C127      1.0  0.76522  0.89701  0.35450  1.0000
  C   C128      1.0  0.73367  0.90523  0.34714  1.0000
  C   C129      1.0  0.72567  0.93058  0.33791  1.0000
  C   C130      1.0  0.75033  0.94828  0.33782  1.0000
  C   C131      1.0  0.78244  0.94087  0.34078  1.0000
  C   C132      1.0  0.78917  0.91517  0.34951  1.0000
  H   H64       1.0  0.74486  0.96661  0.32923  1.0000
  H   H65       1.0  0.81211  0.90952  0.35537  1.0000
  H   H66       1.0  0.71594  0.89235  0.34683  1.0000
  C   C133      1.0  0.26538  0.61280  0.33264  1.0000
  C   C134      1.0  0.23383  0.60463  0.34006  1.0000
  C   C135      1.0  0.22577  0.57929  0.34949  1.0000
  C   C136      1.0  0.25040  0.56156  0.34958  1.0000
  C   C137      1.0  0.28253  0.56893  0.34654  1.0000
  C   C138      1.0  0.28931  0.59462  0.33771  1.0000
  H   H67       1.0  0.24490  0.54324  0.35821  1.0000
  H   H68       1.0  0.31226  0.60025  0.33178  1.0000
  H   H69       1.0  0.21612  0.61753  0.34030  1.0000
  C   C139      1.0  0.74387  0.39560  0.32920  1.0000
  C   C140      1.0  0.77532  0.40387  0.33782  1.0000
  C   C141      1.0  0.78319  0.42918  0.34867  1.0000
  C   C142      1.0  0.75842  0.44681  0.34858  1.0000
  C   C143      1.0  0.72633  0.43933  0.34401  1.0000
  C   C144      1.0  0.71979  0.41364  0.33403  1.0000
  H   H70       1.0  0.76380  0.46513  0.35784  1.0000
  H   H71       1.0  0.69693  0.40789  0.32700  1.0000
  H   H72       1.0  0.79309  0.39101  0.33798  1.0000
  C   C145      1.0  0.39801  0.30895  0.35715  1.0000
  C   C146      1.0  0.36641  0.30108  0.36359  1.0000
  C   C147      1.0  0.34099  0.31791  0.36295  1.0000
  C   C148      1.0  0.34740  0.34338  0.35077  1.0000
  C   C149      1.0  0.37878  0.35216  0.34085  1.0000
  C   C150      1.0  0.40370  0.33453  0.34424  1.0000
  H   H73       1.0  0.32895  0.35561  0.35002  1.0000
  H   H74       1.0  0.42660  0.34045  0.34195  1.0000
  H   H75       1.0  0.36166  0.28250  0.36870  1.0000
  C   C151      1.0  0.61406  0.69986  0.35973  1.0000
  C   C152      1.0  0.64545  0.70820  0.36670  1.0000
  C   C153      1.0  0.67130  0.69177  0.36516  1.0000
  C   C154      1.0  0.66554  0.66626  0.35159  1.0000
  C   C155      1.0  0.63439  0.65711  0.34098  1.0000
  C   C156      1.0  0.60900  0.67428  0.34527  1.0000
  H   H76       1.0  0.68426  0.65428  0.34992  1.0000
  H   H77       1.0  0.58626  0.66801  0.34226  1.0000
  H   H78       1.0  0.64971  0.72684  0.37256  1.0000
  C   C157      1.0  0.11407  0.80978  0.32660  1.0000
  C   C158      1.0  0.14547  0.80146  0.31974  1.0000
  C   C159      1.0  0.17130  0.81791  0.32114  1.0000
  C   C160      1.0  0.16550  0.84342  0.33450  1.0000
  C   C161      1.0  0.13434  0.85257  0.34503  1.0000
  C   C162      1.0  0.10898  0.83536  0.34083  1.0000
  H   H79       1.0  0.18421  0.85542  0.33608  1.0000
  H   H80       1.0  0.08623  0.84163  0.34375  1.0000
  H   H81       1.0  0.14975  0.78282  0.31404  1.0000
  C   C163      1.0  0.89801  0.20074  0.32874  1.0000
  C   C164      1.0  0.86641  0.20861  0.32228  1.0000
  C   C165      1.0  0.84099  0.19178  0.32304  1.0000
  C   C166      1.0  0.84741  0.16632  0.33538  1.0000
  C   C167      1.0  0.87879  0.15755  0.34532  1.0000
  C   C168      1.0  0.90371  0.17517  0.34172  1.0000
  H   H82       1.0  0.82895  0.15408  0.33631  1.0000
  H   H83       1.0  0.92661  0.16925  0.34414  1.0000
  H   H84       1.0  0.86166  0.22718  0.31710  1.0000
  C   C169      1.0  0.21511  0.21702  0.36607  1.0000
  C   C170      1.0  0.23900  0.23531  0.36791  1.0000
  C   C171      1.0  0.23200  0.26092  0.36549  1.0000
  C   C172      1.0  0.20027  0.26848  0.36000  1.0000
  C   C173      1.0  0.17555  0.25086  0.36013  1.0000
  C   C174      1.0  0.18349  0.22529  0.36125  1.0000
  H   H85       1.0  0.19513  0.28703  0.36170  1.0000
  H   H86       1.0  0.16584  0.21236  0.36033  1.0000
  H   H87       1.0  0.26216  0.23000  0.36954  1.0000
  C   C175      1.0  0.79539  0.79431  0.36352  1.0000
  C   C176      1.0  0.77176  0.77580  0.36595  1.0000
  C   C177      1.0  0.77906  0.75026  0.36374  1.0000
  C   C178      1.0  0.81085  0.74293  0.35738  1.0000
  C   C179      1.0  0.83537  0.76071  0.35691  1.0000
  C   C180      1.0  0.82712  0.78624  0.35823  1.0000
  H   H88       1.0  0.81619  0.72441  0.35939  1.0000
  H   H89       1.0  0.84463  0.79929  0.35695  1.0000
  H   H90       1.0  0.74853  0.78090  0.36786  1.0000
  C   C181      1.0  0.29552  0.71549  0.32291  1.0000
  C   C182      1.0  0.27187  0.73399  0.32040  1.0000
  C   C183      1.0  0.27915  0.75954  0.32251  1.0000
  C   C184      1.0  0.31093  0.76689  0.32874  1.0000
  C   C185      1.0  0.33547  0.74912  0.32924  1.0000
  C   C186      1.0  0.32724  0.72358  0.32809  1.0000
  H   H91       1.0  0.31626  0.78541  0.32664  1.0000
  H   H92       1.0  0.34476  0.71055  0.32940  1.0000
  H   H93       1.0  0.24865  0.72887  0.31860  1.0000
  C   C187      1.0  0.71534  0.29281  0.32053  1.0000
  C   C188      1.0  0.73918  0.27447  0.31863  1.0000
  C   C189      1.0  0.73212  0.24889  0.32098  1.0000
  C   C190      1.0  0.70037  0.24137  0.32653  1.0000
  C   C191      1.0  0.67569  0.25901  0.32637  1.0000
  C   C192      1.0  0.68370  0.28458  0.32528  1.0000
  H   H94       1.0  0.69521  0.22282  0.32467  1.0000
  H   H95       1.0  0.66607  0.29753  0.32625  1.0000
  H   H96       1.0  0.76235  0.27975  0.31708  1.0000
  C   C193      1.0  0.99337  0.27376  0.33461  1.0000
  C   C194      1.0  0.98633  0.29927  0.32734  1.0000
  C   C195      1.0  0.00993  0.31783  0.33081  1.0000
  C   C196      1.0  0.04149  0.31019  0.34525  1.0000
  C   C197      1.0  0.04949  0.28477  0.35478  1.0000
  C   C198      1.0  0.02504  0.26695  0.34869  1.0000
  H   H97       1.0  0.05890  0.32331  0.34802  1.0000
  H   H98       1.0  0.03047  0.24846  0.35025  1.0000
  H   H99       1.0  0.96322  0.30447  0.32135  1.0000
  C   C199      1.0  0.01764  0.73782  0.33124  1.0000
  C   C200      1.0  0.02480  0.71234  0.32458  1.0000
  C   C201      1.0  0.00128  0.69372  0.32732  1.0000
  C   C202      1.0  0.96965  0.70132  0.34123  1.0000
  C   C203      1.0  0.96154  0.72675  0.35078  1.0000
  C   C204      1.0  0.98595  0.74460  0.34481  1.0000
  H   H100      1.0  0.95228  0.68817  0.34383  1.0000
  H   H101      1.0  0.98052  0.76309  0.34615  1.0000
  H   H102      1.0  0.04797  0.70723  0.31947  1.0000
  C   C205      1.0  0.51771  0.77185  0.35495  1.0000
  C   C206      1.0  0.52493  0.79732  0.36154  1.0000
  C   C207      1.0  0.50147  0.81598  0.35864  1.0000
  C   C208      1.0  0.46982  0.80841  0.34469  1.0000
  C   C209      1.0  0.46166  0.78300  0.33517  1.0000
  C   C210      1.0  0.48602  0.76511  0.34129  1.0000
  H   H103      1.0  0.45248  0.82159  0.34199  1.0000
  H   H104      1.0  0.48055  0.74663  0.33997  1.0000
  H   H105      1.0  0.54811  0.80239  0.36672  1.0000
  C   C211      1.0  0.49347  0.23599  0.35149  1.0000
  C   C212      1.0  0.48649  0.21047  0.35874  1.0000
  C   C213      1.0  0.51012  0.19194  0.35534  1.0000
  C   C214      1.0  0.54167  0.19963  0.34098  1.0000
  C   C215      1.0  0.54962  0.22506  0.33148  1.0000
  C   C216      1.0  0.52513  0.24284  0.33757  1.0000
  H   H106      1.0  0.55910  0.18653  0.33824  1.0000
  H   H107      1.0  0.53052  0.26134  0.33598  1.0000
  H   H108      1.0  0.46339  0.20523  0.36473  1.0000
  C   C217      1.0  0.52135  0.98192  0.35632  1.0000
  C   C218      1.0  0.49143  0.98231  0.39865  1.0000
  C   C219      1.0  0.47287  0.00390  0.39725  1.0000
  C   C220      1.0  0.48408  0.02553  0.35422  1.0000
  H   H109      1.0  0.45160  0.00375  0.42966  1.0000
  H   H110      1.0  0.48299  0.96721  0.43248  1.0000
  N   N37       1.0  0.03076  0.50609  0.36795  1.0000
  N   N38       1.0  0.01353  0.48586  0.36872  1.0000
  N   N39       1.0  0.36206  0.05719  0.38285  1.0000
  N   N40       1.0  0.33116  0.05958  0.38271  1.0000
  N   N41       1.0  0.64655  0.95338  0.38736  1.0000
  N   N42       1.0  0.67744  0.95095  0.38721  1.0000
  C   C221      1.0  0.19340  0.57290  0.36173  1.0000
  C   C222      1.0  0.17511  0.58477  0.42852  1.0000
  C   C223      1.0  0.14220  0.58220  0.42805  1.0000
  C   C224      1.0  0.12743  0.56776  0.36083  1.0000
  H   H111      1.0  0.12912  0.59181  0.47429  1.0000
  H   H112      1.0  0.18538  0.59623  0.47499  1.0000
  C   C225      1.0  0.81553  0.43551  0.36177  1.0000
  C   C226      1.0  0.83391  0.42295  0.42671  1.0000
  C   C227      1.0  0.86684  0.42536  0.42600  1.0000
  C   C228      1.0  0.88150  0.44046  0.36063  1.0000
  H   H113      1.0  0.87994  0.41541  0.47120  1.0000
  H   H114      1.0  0.82368  0.41110  0.47196  1.0000
  C   C229      1.0  0.50140  0.16649  0.36556  1.0000
  C   C230      1.0  0.47830  0.15906  0.42863  1.0000
  C   C231      1.0  0.46681  0.13469  0.42780  1.0000
  C   C232      1.0  0.47860  0.11752  0.36444  1.0000
  H   H115      1.0  0.44931  0.12982  0.47186  1.0000
  H   H116      1.0  0.46900  0.17139  0.47375  1.0000
  C   C233      1.0  0.51060  0.84139  0.36824  1.0000
  C   C234      1.0  0.53488  0.84865  0.42801  1.0000
  C   C235      1.0  0.54652  0.87297  0.42611  1.0000
  C   C236      1.0  0.53358  0.89031  0.36534  1.0000
  H   H117      1.0  0.56459  0.87776  0.46835  1.0000
  H   H118      1.0  0.54480  0.83626  0.47181  1.0000
  N   N43       1.0  0.00920  0.62737  0.37337  1.0000
  N   N44       1.0  0.99849  0.65026  0.37216  1.0000
  N   N45       1.0  0.00170  0.38412  0.37765  1.0000
  N   N46       1.0  0.01231  0.36119  0.37711  1.0000
  C   C237      1.0  0.53682  0.51375  0.35254  1.0000
  C   C238      1.0  0.51385  0.52813  0.39768  1.0000
  C   C239      1.0  0.48207  0.52080  0.39707  1.0000
  C   C240      1.0  0.47287  0.49898  0.35129  1.0000
  H   H119      1.0  0.46608  0.53126  0.43180  1.0000
  H   H120      1.0  0.51998  0.54376  0.43250  1.0000
  N   N47       1.0  0.02629  0.01704  0.37409  1.0000
  N   N48       1.0  0.99660  0.02386  0.37464  1.0000
  N   N49       1.0  0.37190  0.41912  0.37316  1.0000
  N   N50       1.0  0.36650  0.39517  0.37434  1.0000
  N   N51       1.0  0.64069  0.59015  0.37361  1.0000
  N   N52       1.0  0.64626  0.61409  0.37554  1.0000
  C   C241      1.0  0.12848  0.87851  0.35526  1.0000
  C   C242      1.0  0.10361  0.88787  0.40858  1.0000
  C   C243      1.0  0.09775  0.91346  0.41101  1.0000
  C   C244      1.0  0.11657  0.92988  0.35978  1.0000
  H   H121      1.0  0.07962  0.91988  0.44999  1.0000
  H   H122      1.0  0.08968  0.87631  0.44599  1.0000
  C   C245      1.0  0.88515  0.13158  0.35390  1.0000
  C   C246      1.0  0.91102  0.12209  0.40296  1.0000
  C   C247      1.0  0.91679  0.09645  0.40451  1.0000
  C   C248      1.0  0.89681  0.08006  0.35684  1.0000
  H   H123      1.0  0.93548  0.08998  0.44110  1.0000
  H   H124      1.0  0.92564  0.13356  0.43849  1.0000
  C   C249      1.0  0.30770  0.55130  0.35350  1.0000
  C   C250      1.0  0.33567  0.55646  0.40174  1.0000
  C   C251      1.0  0.36045  0.53921  0.40267  1.0000
  C   C252      1.0  0.35775  0.51661  0.35490  1.0000
  H   H125      1.0  0.38022  0.54333  0.43911  1.0000
  H   H126      1.0  0.33820  0.57261  0.43715  1.0000
  C   C253      1.0  0.70096  0.45685  0.35018  1.0000
  C   C254      1.0  0.67232  0.45138  0.39471  1.0000
  C   C255      1.0  0.64759  0.46870  0.39520  1.0000
  C   C256      1.0  0.65104  0.49176  0.35089  1.0000
  H   H127      1.0  0.62745  0.46437  0.42949  1.0000
  H   H128      1.0  0.66930  0.43497  0.42819  1.0000
  N   N53       1.0  0.17972  0.01387  0.37388  1.0000
  N   N54       1.0  0.20290  0.03006  0.37437  1.0000
  N   N55       1.0  0.82963  0.99709  0.37435  1.0000
  N   N56       1.0  0.80631  0.98101  0.37511  1.0000
  C   C257      1.0  0.23655  0.14004  0.36684  1.0000
  C   C258      1.0  0.25581  0.15643  0.41669  1.0000
  C   C259      1.0  0.24888  0.18187  0.41845  1.0000
  C   C260      1.0  0.22269  0.19116  0.37018  1.0000
  H   H129      1.0  0.26291  0.19332  0.45594  1.0000
  H   H130      1.0  0.27476  0.15007  0.45248  1.0000
  C   C261      1.0  0.77247  0.87118  0.36310  1.0000
  C   C262      1.0  0.75336  0.85456  0.41240  1.0000
  C   C263      1.0  0.76082  0.82920  0.41467  1.0000
  C   C264      1.0  0.78737  0.82013  0.36734  1.0000
  H   H131      1.0  0.74689  0.81764  0.45200  1.0000
  H   H132      1.0  0.73420  0.86069  0.44778  1.0000
  N   N57       1.0  0.30524  0.67238  0.36311  1.0000
  N   N58       1.0  0.29834  0.64865  0.36526  1.0000
  N   N59       1.0  0.70500  0.33579  0.36028  1.0000
  N   N60       1.0  0.71148  0.35958  0.36199  1.0000
  C   C265      1.0  0.31028  0.30823  0.37602  1.0000
  C   C266      1.0  0.30396  0.29267  0.45035  1.0000
  C   C267      1.0  0.27709  0.27757  0.44955  1.0000
  C   C268      1.0  0.25661  0.27841  0.37485  1.0000
  H   H133      1.0  0.27335  0.26541  0.50139  1.0000
  H   H134      1.0  0.31976  0.29097  0.50211  1.0000
  C   C269      1.0  0.70179  0.70192  0.37748  1.0000
  C   C270      1.0  0.70792  0.71785  0.45095  1.0000
  C   C271      1.0  0.73440  0.73335  0.44902  1.0000
  C   C272      1.0  0.75474  0.73255  0.37402  1.0000
  H   H135      1.0  0.73796  0.74573  0.50029  1.0000
  H   H136      1.0  0.69220  0.71949  0.50293  1.0000
  N   N61       1.0  0.24792  0.79353  0.37934  1.0000
  N   N62       1.0  0.22281  0.80775  0.37811  1.0000
  N   N63       1.0  0.76388  0.21546  0.37971  1.0000
  N   N64       1.0  0.78927  0.20154  0.37936  1.0000
  C   C273      1.0  0.46954  0.25440  0.35904  1.0000
  C   C274      1.0  0.44425  0.25220  0.42023  1.0000
  C   C275      1.0  0.42096  0.27061  0.42283  1.0000
  C   C276      1.0  0.42272  0.29113  0.36372  1.0000
  H   H137      1.0  0.40282  0.26880  0.46773  1.0000
  H   H138      1.0  0.44267  0.23751  0.46357  1.0000
  C   C277      1.0  0.54160  0.75347  0.36284  1.0000
  C   C278      1.0  0.56650  0.75562  0.42529  1.0000
  C   C279      1.0  0.59007  0.73744  0.42757  1.0000
  C   C280      1.0  0.58893  0.71725  0.36691  1.0000
  H   H139      1.0  0.60803  0.73924  0.47311  1.0000
  H   H140      1.0  0.56767  0.77015  0.46943  1.0000
  N   N65       1.0  0.06356  0.79362  0.37529  1.0000
  N   N66       1.0  0.04135  0.77671  0.37685  1.0000
  N   N67       1.0  0.94828  0.21740  0.37733  1.0000
  N   N68       1.0  0.97018  0.23456  0.37923  1.0000
  C   C281      1.0  0.14359  0.25895  0.36358  1.0000
  C   C282      1.0  0.12057  0.24672  0.41591  1.0000
  C   C283      1.0  0.08950  0.25560  0.41672  1.0000
  C   C284      1.0  0.08128  0.27660  0.36476  1.0000
  H   H141      1.0  0.07312  0.24659  0.45526  1.0000
  H   H142      1.0  0.12615  0.23167  0.45463  1.0000
  C   C285      1.0  0.86740  0.75271  0.35969  1.0000
  C   C286      1.0  0.89050  0.76496  0.41162  1.0000
  C   C287      1.0  0.92154  0.75601  0.41247  1.0000
  C   C288      1.0  0.92972  0.73494  0.36079  1.0000
  H   H143      1.0  0.93794  0.76504  0.45085  1.0000
  H   H144      1.0  0.88496  0.78007  0.45018  1.0000
  N   N69       1.0  0.40608  0.78601  0.37157  1.0000
  N   N70       1.0  0.37697  0.77781  0.37155  1.0000
  N   N71       1.0  0.60513  0.22210  0.36813  1.0000
  N   N72       1.0  0.63424  0.23029  0.36824  1.0000
