data_image0
_chemical_formula_structural       C19H4NHC7H4NHC7H4NHC7H4NHC7H4NHC7H4NHCN2H2NHCN2H2NHCN2H2NHCN2H2NHCN2H2NHCN2H2NHC7H2NHC7H2NHC7H2NHC7H2NHC7H2NHC7H2NHC5H3C2O3C5H3C2O3C5H3C2O3C5H3C2O3C5H3C2O3C5H3C2O3C6H3C3O3C6H3C3O3C6H3C3O3C6H3C3O3C6H3C3O3C6H3C3O3CN3HCN3HCN3HCN3HCN3HCN3HC7H2NHC7H2NHC7H2NHC7H2NHC7H2NHC7H2NHCN2H2NHCN2H2NHCN2H2NHCN2H2NHCN2H2NHCN2H2NH
_chemical_formula_sum              "C252 H144 N72 O36"
_cell_length_a       58.7457
_cell_length_b       58.7456
_cell_length_c       15.032
_cell_angle_alpha    90
_cell_angle_beta     90
_cell_angle_gamma    120

_space_group_name_H-M_alt    "P 1"
_space_group_IT_number       1

loop_
  _space_group_symop_operation_xyz
  'x, y, z'

loop_
  _atom_site_type_symbol
  _atom_site_label
  _atom_site_symmetry_multiplicity
  _atom_site_fract_x
  _atom_site_fract_y
  _atom_site_fract_z
  _atom_site_occupancy
  C   C1        1.0  0.10381  0.43797  0.34726  1.0000
  C   C2        1.0  0.07912  0.41625  0.32467  1.0000
  C   C3        1.0  0.57834  0.68418  0.34738  1.0000
  C   C4        1.0  0.60006  0.68124  0.32451  1.0000
  C   C5        1.0  0.33194  0.91234  0.34779  1.0000
  C   C6        1.0  0.33487  0.93700  0.32500  1.0000
  C   C7        1.0  0.90552  0.58501  0.34738  1.0000
  C   C8        1.0  0.93019  0.60672  0.32462  1.0000
  C   C9        1.0  0.43101  0.33869  0.34765  1.0000
  C   C10       1.0  0.40926  0.34161  0.32493  1.0000
  C   C11       1.0  0.67726  0.11055  0.34734  1.0000
  C   C12       1.0  0.67428  0.08586  0.32460  1.0000
  C   C13       1.0  0.23789  0.44125  0.22463  1.0000
  C   C14       1.0  0.21350  0.44110  0.22415  1.0000
  C   C15       1.0  0.20132  0.43999  0.30714  1.0000
  C   C16       1.0  0.20295  0.44296  0.14134  1.0000
  C   C17       1.0  0.21565  0.44404  0.06092  1.0000
  C   C18       1.0  0.23916  0.44334  0.06160  1.0000
  C   C19       1.0  0.25024  0.44201  0.14283  1.0000
  H   H1        1.0  0.18599  0.44374  0.13797  1.0000
  H   H2        1.0  0.20773  0.44528  0.00174  1.0000
  H   H3        1.0  0.24832  0.44400  0.00298  1.0000
  H   H4        1.0  0.26738  0.44150  0.14123  1.0000
  N   N1        1.0  0.17828  0.44024  0.31611  1.0000
  H   H5        1.0  0.16496  0.43110  0.27073  1.0000
  C   C20       1.0  0.57479  0.81478  0.22481  1.0000
  C   C21       1.0  0.57497  0.79056  0.22449  1.0000
  C   C22       1.0  0.57617  0.77958  0.30753  1.0000
  C   C23       1.0  0.57308  0.77811  0.14175  1.0000
  C   C24       1.0  0.57194  0.78967  0.06126  1.0000
  C   C25       1.0  0.57261  0.81386  0.06180  1.0000
  C   C26       1.0  0.57397  0.82632  0.14295  1.0000
  H   H6        1.0  0.57232  0.76038  0.13848  1.0000
  H   H7        1.0  0.57068  0.78048  0.00214  1.0000
  H   H8        1.0  0.57191  0.82232  0.00313  1.0000
  H   H9        1.0  0.57447  0.84397  0.14124  1.0000
  N   N2        1.0  0.57603  0.75634  0.31665  1.0000
  H   H10       1.0  0.58512  0.75216  0.27112  1.0000
  C   C27       1.0  0.20133  0.77827  0.22417  1.0000
  C   C28       1.0  0.22559  0.80263  0.22392  1.0000
  C   C29       1.0  0.23661  0.81476  0.30700  1.0000
  C   C30       1.0  0.23805  0.81320  0.14120  1.0000
  C   C31       1.0  0.22646  0.80056  0.06068  1.0000
  C   C32       1.0  0.20223  0.77707  0.06116  1.0000
  C   C33       1.0  0.18976  0.76597  0.14228  1.0000
  H   H11       1.0  0.25581  0.83015  0.13797  1.0000
  H   H12       1.0  0.23566  0.80851  0.00157  1.0000
  H   H13       1.0  0.19375  0.76796  0.00245  1.0000
  H   H14       1.0  0.17209  0.74884  0.14053  1.0000
  N   N3        1.0  0.25988  0.83782  0.31620  1.0000
  H   H15       1.0  0.26410  0.85112  0.27073  1.0000
  C   C34       1.0  0.77146  0.58167  0.22460  1.0000
  C   C35       1.0  0.79584  0.58179  0.22421  1.0000
  C   C36       1.0  0.80801  0.58293  0.30724  1.0000
  C   C37       1.0  0.80638  0.57990  0.14144  1.0000
  C   C38       1.0  0.79370  0.57882  0.06098  1.0000
  C   C39       1.0  0.77020  0.57954  0.06158  1.0000
  C   C40       1.0  0.75912  0.58090  0.14276  1.0000
  H   H16       1.0  0.82334  0.57911  0.13812  1.0000
  H   H17       1.0  0.80162  0.57756  0.00184  1.0000
  H   H18       1.0  0.76105  0.57888  0.00293  1.0000
  H   H19       1.0  0.74198  0.58143  0.14110  1.0000
  N   N4        1.0  0.83107  0.58273  0.31631  1.0000
  H   H20       1.0  0.84436  0.59180  0.27080  1.0000
  C   C41       1.0  0.43452  0.20810  0.22419  1.0000
  C   C42       1.0  0.43440  0.23235  0.22387  1.0000
  C   C43       1.0  0.43328  0.24338  0.30694  1.0000
  C   C44       1.0  0.43628  0.24480  0.14114  1.0000
  C   C45       1.0  0.43735  0.23321  0.06064  1.0000
  C   C46       1.0  0.43662  0.20898  0.06116  1.0000
  C   C47       1.0  0.43526  0.19653  0.14231  1.0000
  H   H21       1.0  0.43710  0.26256  0.13789  1.0000
  H   H22       1.0  0.43861  0.24241  0.00152  1.0000
  H   H23       1.0  0.43728  0.20050  0.00249  1.0000
  H   H24       1.0  0.43473  0.17886  0.14059  1.0000
  N   N5        1.0  0.43349  0.26665  0.31606  1.0000
  H   H25       1.0  0.42439  0.27086  0.27064  1.0000
  C   C48       1.0  0.80801  0.24458  0.22459  1.0000
  C   C49       1.0  0.78377  0.22020  0.22424  1.0000
  C   C50       1.0  0.77275  0.20803  0.30728  1.0000
  C   C51       1.0  0.77134  0.20964  0.14148  1.0000
  C   C52       1.0  0.78293  0.22232  0.06100  1.0000
  C   C53       1.0  0.80714  0.24583  0.06157  1.0000
  C   C54       1.0  0.81958  0.25692  0.14274  1.0000
  H   H26       1.0  0.75359  0.19267  0.13818  1.0000
  H   H27       1.0  0.77374  0.21438  0.00186  1.0000
  H   H28       1.0  0.81562  0.25497  0.00291  1.0000
  H   H29       1.0  0.83724  0.27406  0.14107  1.0000
  N   N6        1.0  0.74948  0.18496  0.31638  1.0000
  H   H30       1.0  0.74526  0.17167  0.27089  1.0000
  C   C55       1.0  0.15358  0.55594  0.40133  1.0000
  N   N7        1.0  0.15261  0.58971  0.32269  1.0000
  N   N8        1.0  0.15444  0.56853  0.32476  1.0000
  H   H31       1.0  0.14307  0.59631  0.03465  1.0000
  H   H32       1.0  0.14788  0.55769  0.03865  1.0000
  N   N9        1.0  0.15372  0.53289  0.39331  1.0000
  H   H33       1.0  0.16722  0.53320  0.35478  1.0000
  C   C56       1.0  0.46036  0.61583  0.40133  1.0000
  N   N10       1.0  0.42652  0.58113  0.32276  1.0000
  N   N11       1.0  0.44773  0.60413  0.32480  1.0000
  H   H34       1.0  0.42004  0.56495  0.03470  1.0000
  H   H35       1.0  0.45870  0.60836  0.03864  1.0000
  N   N12       1.0  0.48344  0.63899  0.39318  1.0000
  H   H36       1.0  0.48313  0.65224  0.35500  1.0000
  C   C57       1.0  0.40030  0.86274  0.40186  1.0000
  N   N13       1.0  0.43502  0.86370  0.32311  1.0000
  N   N14       1.0  0.41200  0.86187  0.32525  1.0000
  H   H37       1.0  0.45125  0.87330  0.03502  1.0000
  H   H38       1.0  0.40782  0.86848  0.03915  1.0000
  N   N15       1.0  0.37711  0.86263  0.39389  1.0000
  H   H39       1.0  0.36392  0.84900  0.35572  1.0000
  C   C58       1.0  0.85576  0.46701  0.40146  1.0000
  N   N16       1.0  0.85659  0.43317  0.32275  1.0000
  N   N17       1.0  0.85480  0.45439  0.32487  1.0000
  H   H40       1.0  0.86648  0.42671  0.03459  1.0000
  H   H41       1.0  0.86175  0.46538  0.03870  1.0000
  N   N18       1.0  0.85570  0.49011  0.39343  1.0000
  H   H42       1.0  0.84206  0.48968  0.35537  1.0000
  C   C59       1.0  0.54904  0.40708  0.40119  1.0000
  N   N19       1.0  0.58291  0.44178  0.32269  1.0000
  N   N20       1.0  0.56169  0.41879  0.32468  1.0000
  H   H43       1.0  0.58931  0.45793  0.03463  1.0000
  H   H44       1.0  0.55063  0.41454  0.03849  1.0000
  N   N21       1.0  0.52592  0.38397  0.39294  1.0000
  H   H45       1.0  0.52633  0.37070  0.35509  1.0000
  C   C60       1.0  0.60904  0.16027  0.40162  1.0000
  N   N22       1.0  0.57432  0.15934  0.32295  1.0000
  N   N23       1.0  0.59733  0.16117  0.32505  1.0000
  H   H46       1.0  0.55811  0.14969  0.03487  1.0000
  H   H47       1.0  0.60154  0.15450  0.03892  1.0000
  N   N24       1.0  0.63225  0.16044  0.39363  1.0000
  H   H48       1.0  0.64543  0.17394  0.35513  1.0000
  C   C61       1.0  0.99456  0.39226  0.19073  1.0000
  C   C62       1.0  0.02184  0.40057  0.18161  1.0000
  C   C63       1.0  0.03712  0.40483  0.25963  1.0000
  C   C64       1.0  0.03296  0.40470  0.09532  1.0000
  C   C65       1.0  0.01768  0.40132  0.01930  1.0000
  C   C66       1.0  0.99119  0.39424  0.02834  1.0000
  C   C67       1.0  0.97978  0.38993  0.11326  1.0000
  H   H49       1.0  0.05226  0.41000  0.08657  1.0000
  H   H50       1.0  0.96057  0.38527  0.11726  1.0000
  N   N25       1.0  0.06399  0.41829  0.26017  1.0000
  H   H51       1.0  0.07244  0.43354  0.22086  1.0000
  C   C68       1.0  0.62408  0.62081  0.19017  1.0000
  C   C69       1.0  0.61581  0.63981  0.18103  1.0000
  C   C70       1.0  0.61152  0.65082  0.25903  1.0000
  C   C71       1.0  0.61174  0.64686  0.09476  1.0000
  C   C72       1.0  0.61515  0.63498  0.01873  1.0000
  C   C73       1.0  0.62221  0.61555  0.02774  1.0000
  C   C74       1.0  0.62645  0.60840  0.11267  1.0000
  H   H52       1.0  0.60644  0.66085  0.08604  1.0000
  H   H53       1.0  0.63109  0.59384  0.11666  1.0000
  N   N26       1.0  0.59804  0.66420  0.25951  1.0000
  H   H54       1.0  0.58264  0.65717  0.22085  1.0000
  C   C75       1.0  0.39531  0.02145  0.19044  1.0000
  C   C76       1.0  0.37632  0.99417  0.18140  1.0000
  C   C77       1.0  0.36525  0.97890  0.25941  1.0000
  C   C78       1.0  0.36933  0.98302  0.09517  1.0000
  C   C79       1.0  0.38125  0.99826  0.01911  1.0000
  C   C80       1.0  0.40067  0.02476  0.02805  1.0000
  C   C81       1.0  0.40777  0.03620  0.11293  1.0000
  H   H55       1.0  0.35533  0.96372  0.08650  1.0000
  H   H56       1.0  0.42233  0.05540  0.11686  1.0000
  N   N27       1.0  0.35194  0.95204  0.26015  1.0000
  H   H57       1.0  0.35897  0.94369  0.22140  1.0000
  C   C82       1.0  0.01470  0.63074  0.19047  1.0000
  C   C83       1.0  0.98742  0.62246  0.18131  1.0000
  C   C84       1.0  0.97213  0.61825  0.25925  1.0000
  C   C85       1.0  0.97631  0.61833  0.09503  1.0000
  C   C86       1.0  0.99158  0.62165  0.01903  1.0000
  C   C87       1.0  0.01807  0.62872  0.02809  1.0000
  C   C88       1.0  0.02947  0.63304  0.11302  1.0000
  H   H58       1.0  0.95701  0.61303  0.08628  1.0000
  H   H59       1.0  0.04868  0.63767  0.11704  1.0000
  N   N28       1.0  0.94526  0.60470  0.25986  1.0000
  H   H60       1.0  0.93693  0.58933  0.22107  1.0000
  C   C89       1.0  0.38529  0.40211  0.19054  1.0000
  C   C90       1.0  0.39356  0.38310  0.18148  1.0000
  C   C91       1.0  0.39779  0.37207  0.25955  1.0000
  C   C92       1.0  0.39767  0.37607  0.09523  1.0000
  C   C93       1.0  0.39432  0.38799  0.01917  1.0000
  C   C94       1.0  0.38729  0.40743  0.02813  1.0000
  C   C95       1.0  0.38300  0.41456  0.11302  1.0000
  H   H61       1.0  0.40294  0.36206  0.08653  1.0000
  H   H62       1.0  0.37838  0.42914  0.11698  1.0000
  N   N29       1.0  0.41125  0.35866  0.26007  1.0000
  H   H63       1.0  0.42654  0.36550  0.22098  1.0000
  C   C96       1.0  0.61400  0.00141  0.18993  1.0000
  C   C97       1.0  0.63294  0.02870  0.18091  1.0000
  C   C98       1.0  0.64394  0.04396  0.25898  1.0000
  C   C99       1.0  0.63993  0.03986  0.09470  1.0000
  C   C100      1.0  0.62805  0.02461  0.01861  1.0000
  C   C101      1.0  0.60867  0.99810  0.02752  1.0000
  C   C102      1.0  0.60158  0.98665  0.11239  1.0000
  H   H64       1.0  0.65389  0.05918  0.08606  1.0000
  H   H65       1.0  0.58705  0.96744  0.11630  1.0000
  N   N30       1.0  0.65723  0.07083  0.25966  1.0000
  H   H66       1.0  0.65024  0.07922  0.22097  1.0000
  C   C103      1.0  0.15100  0.45701  0.37644  1.0000
  C   C104      1.0  0.15261  0.48142  0.39484  1.0000
  C   C105      1.0  0.13035  0.48465  0.38951  1.0000
  C   C106      1.0  0.10608  0.46263  0.36508  1.0000
  C   C107      1.0  0.12620  0.43523  0.35494  1.0000
  H   H67       1.0  0.08965  0.46446  0.36069  1.0000
  H   H68       1.0  0.12440  0.41722  0.34339  1.0000
  H   H69       1.0  0.17036  0.49716  0.41235  1.0000
  C   C108      1.0  0.17397  0.45469  0.37789  1.0000
  C   C109      1.0  0.13189  0.50912  0.40936  1.0000
  O   O1        1.0  0.06939  0.39503  0.37890  1.0000
  O   O2        1.0  0.19369  0.47080  0.43344  1.0000
  O   O3        1.0  0.11006  0.50836  0.44267  1.0000
  C   C110      1.0  0.55925  0.71228  0.37683  1.0000
  C   C111      1.0  0.53487  0.68945  0.39526  1.0000
  C   C112      1.0  0.53168  0.66398  0.38982  1.0000
  C   C113      1.0  0.55372  0.66177  0.36524  1.0000
  C   C114      1.0  0.58105  0.70930  0.35517  1.0000
  H   H70       1.0  0.55191  0.64353  0.36074  1.0000
  H   H71       1.0  0.59905  0.72553  0.34362  1.0000
  H   H72       1.0  0.51911  0.69143  0.41284  1.0000
  C   C115      1.0  0.56152  0.73755  0.37827  1.0000
  C   C116      1.0  0.50723  0.64102  0.40963  1.0000
  O   O4        1.0  0.62154  0.69307  0.37755  1.0000
  O   O5        1.0  0.54543  0.74116  0.43393  1.0000
  O   O6        1.0  0.50802  0.61995  0.44279  1.0000
  C   C117      1.0  0.30385  0.86513  0.37696  1.0000
  C   C118      1.0  0.32667  0.86358  0.39548  1.0000
  C   C119      1.0  0.35214  0.88587  0.39025  1.0000
  C   C120      1.0  0.35434  0.91012  0.36575  1.0000
  C   C121      1.0  0.30682  0.88990  0.35541  1.0000
  H   H73       1.0  0.37258  0.92657  0.36137  1.0000
  H   H74       1.0  0.29059  0.89167  0.34376  1.0000
  H   H75       1.0  0.32469  0.84584  0.41300  1.0000
  C   C122      1.0  0.27857  0.84213  0.37825  1.0000
  C   C123      1.0  0.37510  0.88439  0.41014  1.0000
  O   O7        1.0  0.32303  0.94663  0.37809  1.0000
  O   O8        1.0  0.27497  0.82242  0.43385  1.0000
  O   O9        1.0  0.39616  0.90625  0.44333  1.0000
  C   C124      1.0  0.85832  0.56593  0.37663  1.0000
  C   C125      1.0  0.85674  0.54154  0.39504  1.0000
  C   C126      1.0  0.87901  0.53833  0.38971  1.0000
  C   C127      1.0  0.90327  0.56037  0.36522  1.0000
  C   C128      1.0  0.88311  0.58772  0.35509  1.0000
  H   H76       1.0  0.91970  0.55855  0.36078  1.0000
  H   H77       1.0  0.88489  0.60573  0.34353  1.0000
  H   H78       1.0  0.83900  0.52579  0.41257  1.0000
  C   C129      1.0  0.83533  0.56821  0.37799  1.0000
  C   C130      1.0  0.87750  0.51387  0.40950  1.0000
  O   O10       1.0  0.93982  0.62817  0.37779  1.0000
  O   O11       1.0  0.81563  0.55216  0.43372  1.0000
  O   O12       1.0  0.89936  0.51464  0.44257  1.0000
  C   C131      1.0  0.45016  0.31063  0.37669  1.0000
  C   C132      1.0  0.47454  0.33347  0.39510  1.0000
  C   C133      1.0  0.47769  0.35893  0.38985  1.0000
  C   C134      1.0  0.45563  0.36111  0.36547  1.0000
  C   C135      1.0  0.42834  0.31359  0.35524  1.0000
  H   H79       1.0  0.45741  0.37935  0.36108  1.0000
  H   H80       1.0  0.41035  0.29734  0.34367  1.0000
  H   H81       1.0  0.49031  0.33150  0.41254  1.0000
  C   C136      1.0  0.44794  0.28538  0.37794  1.0000
  C   C137      1.0  0.50214  0.38190  0.40959  1.0000
  O   O13       1.0  0.38794  0.32998  0.37871  1.0000
  O   O14       1.0  0.46400  0.28175  0.43365  1.0000
  O   O15       1.0  0.50136  0.40298  0.44267  1.0000
  C   C138      1.0  0.70542  0.15774  0.37662  1.0000
  C   C139      1.0  0.68262  0.15934  0.39507  1.0000
  C   C140      1.0  0.65713  0.13708  0.38972  1.0000
  C   C141      1.0  0.65488  0.11281  0.36519  1.0000
  C   C142      1.0  0.70240  0.13295  0.35507  1.0000
  H   H82       1.0  0.63663  0.09639  0.36076  1.0000
  H   H83       1.0  0.71861  0.13115  0.34351  1.0000
  H   H84       1.0  0.68463  0.17709  0.41262  1.0000
  C   C143      1.0  0.73070  0.18073  0.37802  1.0000
  C   C144      1.0  0.63419  0.13861  0.40961  1.0000
  O   O16       1.0  0.68617  0.07625  0.37749  1.0000
  O   O17       1.0  0.73435  0.20043  0.43371  1.0000
  O   O18       1.0  0.61313  0.11676  0.44290  1.0000
  C   C145      1.0  0.46276  0.15296  0.30559  1.0000
  C   C146      1.0  0.48789  0.15579  0.31909  1.0000
  C   C147      1.0  0.49180  0.13395  0.31684  1.0000
  C   C148      1.0  0.46981  0.10885  0.30088  1.0000
  C   C149      1.0  0.44423  0.10503  0.28934  1.0000
  C   C150      1.0  0.44122  0.12743  0.29101  1.0000
  H   H85       1.0  0.47269  0.09309  0.29614  1.0000
  H   H86       1.0  0.42306  0.12513  0.27854  1.0000
  H   H87       1.0  0.50381  0.17420  0.32748  1.0000
  C   C151      1.0  0.45972  0.17547  0.29929  1.0000
  C   C152      1.0  0.42234  0.07964  0.27093  1.0000
  C   C153      1.0  0.51735  0.13708  0.32531  1.0000
  O   O19       1.0  0.40174  0.07800  0.22475  1.0000
  O   O20       1.0  0.48043  0.19800  0.26817  1.0000
  O   O21       1.0  0.52258  0.12067  0.27741  1.0000
  C   C154      1.0  0.68809  0.55336  0.30605  1.0000
  C   C155      1.0  0.66580  0.52822  0.31933  1.0000
  C   C156      1.0  0.64004  0.52430  0.31694  1.0000
  C   C157      1.0  0.63692  0.54628  0.30095  1.0000
  C   C158      1.0  0.65868  0.57187  0.28954  1.0000
  C   C159      1.0  0.68409  0.57490  0.29140  1.0000
  H   H88       1.0  0.61829  0.54339  0.29607  1.0000
  H   H89       1.0  0.69995  0.59306  0.27906  1.0000
  H   H90       1.0  0.66829  0.51231  0.32787  1.0000
  C   C160      1.0  0.71365  0.55643  0.29995  1.0000
  C   C161      1.0  0.65518  0.59376  0.27103  1.0000
  C   C162      1.0  0.61763  0.49875  0.32529  1.0000
  O   O22       1.0  0.67418  0.61438  0.22506  1.0000
  O   O23       1.0  0.71550  0.53575  0.26871  1.0000
  O   O24       1.0  0.59600  0.49352  0.27732  1.0000
  C   C163      1.0  0.86305  0.32800  0.30571  1.0000
  C   C164      1.0  0.86018  0.35029  0.31893  1.0000
  C   C165      1.0  0.88200  0.37605  0.31668  1.0000
  C   C166      1.0  0.90711  0.37919  0.30084  1.0000
  C   C167      1.0  0.91097  0.35744  0.28955  1.0000
  C   C168      1.0  0.88860  0.33202  0.29126  1.0000
  H   H91       1.0  0.92286  0.39783  0.29611  1.0000
  H   H92       1.0  0.89093  0.31617  0.27897  1.0000
  H   H93       1.0  0.84176  0.34778  0.32737  1.0000
  C   C169      1.0  0.84057  0.30243  0.29957  1.0000
  C   C170      1.0  0.93638  0.36097  0.27127  1.0000
  C   C171      1.0  0.87882  0.39843  0.32497  1.0000
  O   O25       1.0  0.93807  0.34204  0.22512  1.0000
  O   O26       1.0  0.81800  0.30055  0.26851  1.0000
  O   O27       1.0  0.89526  0.42009  0.27716  1.0000
  C   C172      1.0  0.54649  0.86990  0.30560  1.0000
  C   C173      1.0  0.52137  0.86709  0.31899  1.0000
  C   C174      1.0  0.51748  0.88894  0.31648  1.0000
  C   C175      1.0  0.53948  0.91402  0.30031  1.0000
  C   C176      1.0  0.56506  0.91782  0.28889  1.0000
  C   C177      1.0  0.56805  0.89541  0.29075  1.0000
  H   H94       1.0  0.53662  0.92979  0.29547  1.0000
  H   H95       1.0  0.58620  0.89769  0.27847  1.0000
  H   H96       1.0  0.50545  0.84869  0.32765  1.0000
  C   C178      1.0  0.54953  0.84738  0.29970  1.0000
  C   C179      1.0  0.58696  0.94319  0.27042  1.0000
  C   C180      1.0  0.49195  0.88584  0.32500  1.0000
  O   O28       1.0  0.60756  0.94481  0.22429  1.0000
  O   O29       1.0  0.52881  0.82480  0.26895  1.0000
  O   O30       1.0  0.48672  0.90225  0.27709  1.0000
  C   C181      1.0  0.32128  0.46960  0.30583  1.0000
  C   C182      1.0  0.34359  0.49473  0.31914  1.0000
  C   C183      1.0  0.36933  0.49863  0.31673  1.0000
  C   C184      1.0  0.37243  0.47664  0.30075  1.0000
  C   C185      1.0  0.35065  0.45105  0.28939  1.0000
  C   C186      1.0  0.32525  0.44805  0.29117  1.0000
  H   H97       1.0  0.39106  0.47950  0.29596  1.0000
  H   H98       1.0  0.30938  0.42989  0.27888  1.0000
  H   H99       1.0  0.34110  0.51065  0.32765  1.0000
  C   C187      1.0  0.29572  0.46655  0.29978  1.0000
  C   C188      1.0  0.35413  0.42915  0.27100  1.0000
  C   C189      1.0  0.39175  0.52417  0.32511  1.0000
  O   O31       1.0  0.33517  0.40854  0.22487  1.0000
  O   O32       1.0  0.29388  0.48725  0.26870  1.0000
  O   O33       1.0  0.41340  0.52938  0.27724  1.0000
  C   C190      1.0  0.14619  0.69487  0.30541  1.0000
  C   C191      1.0  0.14904  0.67258  0.31881  1.0000
  C   C192      1.0  0.12720  0.64683  0.31666  1.0000
  C   C193      1.0  0.10209  0.64370  0.30084  1.0000
  C   C194      1.0  0.09825  0.66546  0.28940  1.0000
  C   C195      1.0  0.12065  0.69086  0.29093  1.0000
  H   H100      1.0  0.08634  0.62506  0.29622  1.0000
  H   H101      1.0  0.11833  0.70672  0.27857  1.0000
  H   H102      1.0  0.16745  0.67508  0.32719  1.0000
  C   C196      1.0  0.16868  0.72042  0.29906  1.0000
  C   C197      1.0  0.07286  0.66195  0.27109  1.0000
  C   C198      1.0  0.13035  0.62442  0.32509  1.0000
  O   O34       1.0  0.07118  0.68089  0.22493  1.0000
  O   O35       1.0  0.19122  0.72226  0.26794  1.0000
  O   O36       1.0  0.11390  0.60275  0.27738  1.0000
  C   C199      1.0  0.24901  0.44056  0.30770  1.0000
  N   N31       1.0  0.21328  0.43844  0.38242  1.0000
  N   N32       1.0  0.23561  0.43881  0.38309  1.0000
  N   N33       1.0  0.27332  0.44346  0.31739  1.0000
  H   H103      1.0  0.27450  0.43035  0.35374  1.0000
  C   C200      1.0  0.57552  0.82665  0.30782  1.0000
  N   N34       1.0  0.57774  0.79312  0.38272  1.0000
  N   N35       1.0  0.57733  0.81507  0.38327  1.0000
  N   N36       1.0  0.57261  0.84806  0.31742  1.0000
  H   H104      1.0  0.58574  0.86238  0.35361  1.0000
  C   C201      1.0  0.18945  0.76712  0.30715  1.0000
  N   N37       1.0  0.22305  0.80278  0.38216  1.0000
  N   N38       1.0  0.20107  0.78046  0.38264  1.0000
  N   N39       1.0  0.16798  0.74283  0.31666  1.0000
  H   H105      1.0  0.15375  0.74157  0.35349  1.0000
  C   C202      1.0  0.76034  0.58240  0.30764  1.0000
  N   N40       1.0  0.79606  0.58452  0.38246  1.0000
  N   N41       1.0  0.77373  0.58417  0.38306  1.0000
  N   N42       1.0  0.73605  0.57958  0.31719  1.0000
  H   H106      1.0  0.73485  0.59259  0.35399  1.0000
  C   C203      1.0  0.43380  0.19623  0.30718  1.0000
  N   N43       1.0  0.43171  0.22983  0.38212  1.0000
  N   N44       1.0  0.43205  0.20785  0.38265  1.0000
  N   N45       1.0  0.43659  0.17475  0.31667  1.0000
  H   H107      1.0  0.42358  0.16054  0.35348  1.0000
  C   C204      1.0  0.81986  0.25571  0.30761  1.0000
  N   N46       1.0  0.78629  0.22001  0.38249  1.0000
  N   N47       1.0  0.80825  0.24234  0.38305  1.0000
  N   N48       1.0  0.84127  0.28004  0.31724  1.0000
  H   H108      1.0  0.85557  0.28124  0.35359  1.0000
  C   C205      1.0  0.15121  0.56678  0.48288  1.0000
  C   C206      1.0  0.14913  0.59000  0.48046  1.0000
  C   C207      1.0  0.14957  0.60131  0.39640  1.0000
  C   C208      1.0  0.14586  0.60038  0.56151  1.0000
  C   C209      1.0  0.14537  0.58856  0.64332  1.0000
  C   C210      1.0  0.14811  0.56618  0.64565  1.0000
  C   C211      1.0  0.15102  0.55536  0.56608  1.0000
  H   H109      1.0  0.14365  0.61656  0.56233  1.0000
  H   H110      1.0  0.15304  0.53908  0.56987  1.0000
  N   N49       1.0  0.14723  0.62315  0.38442  1.0000
  H   H111      1.0  0.15673  0.63775  0.42540  1.0000
  C   C212      1.0  0.44954  0.60262  0.48290  1.0000
  C   C213      1.0  0.42629  0.57734  0.48052  1.0000
  C   C214      1.0  0.41494  0.56649  0.39649  1.0000
  C   C215      1.0  0.41593  0.56370  0.56157  1.0000
  C   C216      1.0  0.42778  0.57500  0.64336  1.0000
  C   C217      1.0  0.45019  0.60011  0.64566  1.0000
  C   C218      1.0  0.46100  0.61383  0.56607  1.0000
  H   H112      1.0  0.39973  0.54531  0.56243  1.0000
  H   H113      1.0  0.47729  0.63214  0.56984  1.0000
  N   N50       1.0  0.39308  0.54233  0.38454  1.0000
  H   H114      1.0  0.37850  0.53723  0.42560  1.0000
  C   C219      1.0  0.41353  0.86512  0.48336  1.0000
  C   C220      1.0  0.43883  0.86720  0.48087  1.0000
  C   C221      1.0  0.44968  0.86675  0.39678  1.0000
  C   C222      1.0  0.45249  0.87048  0.56188  1.0000
  C   C223      1.0  0.44119  0.87099  0.64373  1.0000
  C   C224      1.0  0.41606  0.86823  0.64613  1.0000
  C   C225      1.0  0.40232  0.86532  0.56659  1.0000
  H   H115      1.0  0.47089  0.87270  0.56265  1.0000
  H   H116      1.0  0.38401  0.86329  0.57044  1.0000
  N   N51       1.0  0.47386  0.86910  0.38476  1.0000
  H   H117      1.0  0.47897  0.85960  0.42571  1.0000
  C   C226      1.0  0.85820  0.45619  0.48296  1.0000
  C   C227      1.0  0.86022  0.43294  0.48048  1.0000
  C   C228      1.0  0.85967  0.42159  0.39641  1.0000
  C   C229      1.0  0.86355  0.42259  0.56147  1.0000
  C   C230      1.0  0.86414  0.43444  0.64330  1.0000
  C   C231      1.0  0.86144  0.45685  0.64569  1.0000
  C   C232      1.0  0.85849  0.46766  0.56616  1.0000
  H   H118      1.0  0.86573  0.40638  0.56226  1.0000
  H   H119      1.0  0.85649  0.48396  0.57001  1.0000
  N   N52       1.0  0.86196  0.39972  0.38437  1.0000
  H   H120      1.0  0.85253  0.38515  0.42549  1.0000
  C   C233      1.0  0.55985  0.42029  0.48278  1.0000
  C   C234      1.0  0.58311  0.44556  0.48044  1.0000
  C   C235      1.0  0.59448  0.45641  0.39643  1.0000
  C   C236      1.0  0.59346  0.45919  0.56151  1.0000
  C   C237      1.0  0.58158  0.44789  0.64328  1.0000
  C   C238      1.0  0.55916  0.42279  0.64553  1.0000
  C   C239      1.0  0.54837  0.40907  0.56593  1.0000
  H   H121      1.0  0.60967  0.47757  0.56241  1.0000
  H   H122      1.0  0.53207  0.39078  0.56967  1.0000
  N   N53       1.0  0.61635  0.48056  0.38451  1.0000
  H   H123      1.0  0.63092  0.48569  0.42566  1.0000
  C   C240      1.0  0.59581  0.15788  0.48315  1.0000
  C   C241      1.0  0.57051  0.15581  0.48071  1.0000
  C   C242      1.0  0.55966  0.15628  0.39664  1.0000
  C   C243      1.0  0.55686  0.15252  0.56173  1.0000
  C   C244      1.0  0.56817  0.15201  0.64356  1.0000
  C   C245      1.0  0.59329  0.15475  0.64591  1.0000
  C   C246      1.0  0.60702  0.15767  0.56636  1.0000
  H   H124      1.0  0.53846  0.15031  0.56255  1.0000
  H   H125      1.0  0.62533  0.15969  0.57018  1.0000
  N   N54       1.0  0.53550  0.15397  0.38462  1.0000
  H   H126      1.0  0.53036  0.16342  0.42570  1.0000
  C   C247      1.0  0.98371  0.38799  0.27780  1.0000
  N   N55       1.0  0.02482  0.40063  0.33940  1.0000
  N   N56       1.0  0.99994  0.39268  0.34801  1.0000
  H   H127      1.0  0.02597  0.40445  0.62408  1.0000
  H   H128      1.0  0.98020  0.39229  0.63969  1.0000
  N   N57       1.0  0.95892  0.38265  0.29798  1.0000
  H   H129      1.0  0.95766  0.39360  0.34427  1.0000
  C   C248      1.0  0.62826  0.61417  0.27725  1.0000
  N   N58       1.0  0.61558  0.64261  0.33884  1.0000
  N   N59       1.0  0.62348  0.62564  0.34746  1.0000
  H   H130      1.0  0.61206  0.64017  0.62350  1.0000
  H   H131      1.0  0.62419  0.60654  0.63908  1.0000
  N   N60       1.0  0.63350  0.59465  0.29746  1.0000
  H   H132      1.0  0.62249  0.58244  0.34365  1.0000
  C   C249      1.0  0.40190  0.03232  0.27747  1.0000
  N   N61       1.0  0.37344  0.99122  0.33914  1.0000
  N   N62       1.0  0.39040  0.01610  0.34772  1.0000
  H   H133      1.0  0.37609  0.98995  0.62391  1.0000
  H   H134      1.0  0.40971  0.03572  0.63936  1.0000
  N   N63       1.0  0.42142  0.05707  0.29765  1.0000
  H   H135      1.0  0.43361  0.05833  0.34399  1.0000
  C   C250      1.0  0.02553  0.63497  0.27756  1.0000
  N   N64       1.0  0.98441  0.62237  0.33904  1.0000
  N   N65       1.0  0.00929  0.63027  0.34774  1.0000
  H   H136      1.0  0.98330  0.61854  0.62380  1.0000
  H   H137      1.0  0.02905  0.63066  0.63945  1.0000
  N   N66       1.0  0.05030  0.64028  0.29778  1.0000
  H   H138      1.0  0.05154  0.62932  0.34410  1.0000
  C   C251      1.0  0.38106  0.40873  0.27758  1.0000
  N   N67       1.0  0.39361  0.38021  0.33928  1.0000
  N   N68       1.0  0.38571  0.39719  0.34784  1.0000
  H   H139      1.0  0.39744  0.38280  0.62397  1.0000
  H   H140      1.0  0.38536  0.41647  0.63945  1.0000
  N   N69       1.0  0.37579  0.42823  0.29770  1.0000
  H   H141      1.0  0.38675  0.44043  0.34400  1.0000
  C   C252      1.0  0.60741  0.99053  0.27696  1.0000
  N   N70       1.0  0.63580  0.03164  0.33873  1.0000
  N   N71       1.0  0.61888  0.00675  0.34724  1.0000
  H   H142      1.0  0.63321  0.03293  0.62343  1.0000
  H   H143      1.0  0.59966  0.98714  0.63882  1.0000
  N   N72       1.0  0.58790  0.96577  0.29711  1.0000
  H   H144      1.0  0.57570  0.96455  0.34338  1.0000
