data_image0
_chemical_formula_structural       C3H3NC3H3NC3H3NC3H3NC3H3NC3H3NC2H3NC3H3NC3H3NC3H3NC3H3NC3H3NC3H3NC3H3NC3H3NC3H3NC3H3NC3H3NC4H3NC3H3NC3H3NC3H3NC3H3NC3H3NC2H3NC3H3NC3H3NC3H3NC3H3NC3H3NC3H3NC3H3NC3H3NC3H3NC3H3NC3H3NC7H3C6H3C6H3C6H3C6H3C6H3C6H3C6H3C6H3C6H3C6H3C6H3C6H3C6H3C6H3C6H3C6H3C6H3C6H3C6H3C6H3C6H3C6H3C6H3C2H3NC3H3NC3H3NC3H3NC3H3NC3H3NC4H3NC3H3NC3H3NC3H3NC3H3NC3H3NC3H3NC3H3NC3H3NC3H3NC3H3NC3H3NC2H3NC3H3NC3H3NC3H3NC3H3NC3H3NC4H3NC3H3NC3H3NC3H3NC3H3NC3H3NC3H3NC3H3NC3H3NC3H3NC3H3NC3H3N
_chemical_formula_sum              "C360 H288 N72"
_cell_length_a       54.0017
_cell_length_b       54.0016
_cell_length_c       14.8288
_cell_angle_alpha    90
_cell_angle_beta     90
_cell_angle_gamma    120

_space_group_name_H-M_alt    "P 1"
_space_group_IT_number       1

loop_
  _space_group_symop_operation_xyz
  'x, y, z'

loop_
  _atom_site_type_symbol
  _atom_site_label
  _atom_site_symmetry_multiplicity
  _atom_site_fract_x
  _atom_site_fract_y
  _atom_site_fract_z
  _atom_site_occupancy
  C   C1        1.0  0.14508  0.45993  0.33938  1.0000
  C   C2        1.0  0.13719  0.44368  0.25864  1.0000
  C   C3        1.0  0.14439  0.45674  0.16785  1.0000
  H   H1        1.0  0.13494  0.47031  0.15840  1.0000
  H   H2        1.0  0.13624  0.44042  0.11516  1.0000
  H   H3        1.0  0.16754  0.46969  0.16022  1.0000
  N   N1        1.0  0.12399  0.41468  0.26578  1.0000
  C   C4        1.0  0.55451  0.68813  0.33983  1.0000
  C   C5        1.0  0.57071  0.69642  0.25897  1.0000
  C   C6        1.0  0.55763  0.69052  0.16819  1.0000
  H   H4        1.0  0.54405  0.66749  0.15887  1.0000
  H   H5        1.0  0.57394  0.69864  0.11546  1.0000
  H   H6        1.0  0.54470  0.70073  0.16050  1.0000
  N   N2        1.0  0.59972  0.71222  0.26596  1.0000
  C   C7        1.0  0.32630  0.86928  0.33972  1.0000
  C   C8        1.0  0.31802  0.87720  0.25885  1.0000
  C   C9        1.0  0.32396  0.87004  0.16808  1.0000
  H   H7        1.0  0.34699  0.87951  0.15882  1.0000
  H   H8        1.0  0.31583  0.87821  0.11534  1.0000
  H   H9        1.0  0.31377  0.84690  0.16036  1.0000
  N   N3        1.0  0.30220  0.89037  0.26585  1.0000
  C   C10       1.0  0.87215  0.55166  0.33978  1.0000
  C   C11       1.0  0.88009  0.56785  0.25893  1.0000
  C   C12       1.0  0.87290  0.55479  0.16814  1.0000
  H   H10       1.0  0.88233  0.54119  0.15880  1.0000
  H   H11       1.0  0.88109  0.57110  0.11544  1.0000
  H   H12       1.0  0.84976  0.54187  0.16044  1.0000
  N   N4        1.0  0.89329  0.59686  0.26600  1.0000
  C   C13       1.0  0.46276  0.32338  0.33951  1.0000
  C   C14       1.0  0.44654  0.31508  0.25872  1.0000
  C   C15       1.0  0.45961  0.32095  0.16793  1.0000
  H   H13       1.0  0.47320  0.34397  0.15854  1.0000
  H   H14       1.0  0.44330  0.31280  0.11523  1.0000
  H   H15       1.0  0.47254  0.31073  0.16028  1.0000
  N   N5        1.0  0.41754  0.29929  0.26583  1.0000
  C   C16       1.0  0.69100  0.14227  0.33971  1.0000
  C   C17       1.0  0.69932  0.13435  0.25892  1.0000
  C   C18       1.0  0.69344  0.14153  0.16812  1.0000
  H   H16       1.0  0.67042  0.13210  0.15874  1.0000
  H   H17       1.0  0.70158  0.13336  0.11542  1.0000
  H   H18       1.0  0.70366  0.16468  0.16042  1.0000
  N   N6        1.0  0.71511  0.12114  0.26597  1.0000
  C   C19       1.0  0.40706  0.11878  0.16964  1.0000
  C   C20       1.0  0.41901  0.12265  0.26170  1.0000
  H   H19       1.0  0.41467  0.13967  0.13837  1.0000
  H   H20       1.0  0.38377  0.10730  0.16896  1.0000
  H   H21       1.0  0.41426  0.10668  0.12917  1.0000
  N   N7        1.0  0.44800  0.13667  0.26909  1.0000
  C   C21       1.0  0.40283  0.11459  0.34263  1.0000
  C   C22       1.0  0.72320  0.60735  0.16956  1.0000
  C   C23       1.0  0.71513  0.59539  0.26160  1.0000
  H   H22       1.0  0.73653  0.59978  0.13833  1.0000
  H   H23       1.0  0.73498  0.63064  0.16891  1.0000
  H   H24       1.0  0.70392  0.60012  0.12905  1.0000
  N   N8        1.0  0.70019  0.56640  0.26898  1.0000
  C   C24       1.0  0.72322  0.61158  0.34251  1.0000
  C   C25       1.0  0.89558  0.29118  0.16969  1.0000
  C   C26       1.0  0.89181  0.29931  0.26177  1.0000
  H   H25       1.0  0.87466  0.27787  0.13865  1.0000
  H   H26       1.0  0.90706  0.27937  0.16892  1.0000
  H   H27       1.0  0.90763  0.31044  0.12907  1.0000
  N   N9        1.0  0.87779  0.31428  0.26929  1.0000
  C   C27       1.0  0.89994  0.29121  0.34260  1.0000
  C   C28       1.0  0.61027  0.89282  0.16962  1.0000
  C   C29       1.0  0.59832  0.88894  0.26167  1.0000
  H   H28       1.0  0.60270  0.87194  0.13836  1.0000
  H   H29       1.0  0.63357  0.90432  0.16897  1.0000
  H   H30       1.0  0.60307  0.90490  0.12912  1.0000
  N   N10       1.0  0.56932  0.87488  0.26902  1.0000
  C   C30       1.0  0.61450  0.89700  0.34260  1.0000
  C   C31       1.0  0.29409  0.40418  0.16964  1.0000
  C   C32       1.0  0.30215  0.41613  0.26169  1.0000
  H   H31       1.0  0.28080  0.41178  0.13833  1.0000
  H   H32       1.0  0.28227  0.38089  0.16897  1.0000
  H   H33       1.0  0.31338  0.41137  0.12919  1.0000
  N   N11       1.0  0.31712  0.44513  0.26905  1.0000
  C   C33       1.0  0.29401  0.39995  0.34264  1.0000
  C   C34       1.0  0.12166  0.72038  0.16954  1.0000
  C   C35       1.0  0.12552  0.71229  0.26159  1.0000
  H   H34       1.0  0.14256  0.73370  0.13835  1.0000
  H   H35       1.0  0.11016  0.73216  0.16887  1.0000
  H   H36       1.0  0.10961  0.70110  0.12899  1.0000
  N   N12       1.0  0.13956  0.69734  0.26896  1.0000
  C   C36       1.0  0.11740  0.72037  0.34248  1.0000
  C   C37       1.0  0.29126  0.52870  0.16612  1.0000
  C   C38       1.0  0.28242  0.53070  0.25900  1.0000
  H   H37       1.0  0.27524  0.50861  0.13563  1.0000
  H   H38       1.0  0.31187  0.52958  0.16386  1.0000
  H   H39       1.0  0.29293  0.54642  0.12599  1.0000
  N   N13       1.0  0.25713  0.53015  0.26873  1.0000
  C   C39       1.0  0.29728  0.53147  0.33870  1.0000
  C   C40       1.0  0.48564  0.76545  0.16601  1.0000
  C   C41       1.0  0.48366  0.75460  0.25887  1.0000
  H   H40       1.0  0.50572  0.76953  0.13547  1.0000
  H   H41       1.0  0.48474  0.78517  0.16381  1.0000
  H   H42       1.0  0.46792  0.74941  0.12590  1.0000
  N   N14       1.0  0.48422  0.72987  0.26854  1.0000
  C   C42       1.0  0.48289  0.76868  0.33860  1.0000
  C   C43       1.0  0.24899  0.72305  0.16618  1.0000
  C   C44       1.0  0.25982  0.73196  0.25904  1.0000
  H   H43       1.0  0.24495  0.73906  0.13544  1.0000
  H   H44       1.0  0.22926  0.70245  0.16400  1.0000
  H   H45       1.0  0.26503  0.72133  0.12620  1.0000
  N   N15       1.0  0.28457  0.75724  0.26862  1.0000
  C   C45       1.0  0.24572  0.71719  0.33885  1.0000
  C   C46       1.0  0.72596  0.48275  0.16607  1.0000
  C   C47       1.0  0.73484  0.48079  0.25892  1.0000
  H   H46       1.0  0.74196  0.50283  0.13549  1.0000
  H   H47       1.0  0.70534  0.48184  0.16387  1.0000
  H   H48       1.0  0.72429  0.46503  0.12597  1.0000
  N   N16       1.0  0.76014  0.48135  0.26853  1.0000
  C   C48       1.0  0.71999  0.48001  0.33866  1.0000
  C   C49       1.0  0.53163  0.24611  0.16611  1.0000
  C   C50       1.0  0.53363  0.25695  0.25899  1.0000
  H   H49       1.0  0.51155  0.24205  0.13560  1.0000
  H   H50       1.0  0.53251  0.22638  0.16386  1.0000
  H   H51       1.0  0.54935  0.26215  0.12600  1.0000
  N   N17       1.0  0.53308  0.28169  0.26873  1.0000
  C   C51       1.0  0.53436  0.24285  0.33873  1.0000
  C   C52       1.0  0.76841  0.28848  0.16591  1.0000
  C   C53       1.0  0.75757  0.27961  0.25877  1.0000
  H   H52       1.0  0.77248  0.27247  0.13534  1.0000
  H   H53       1.0  0.78813  0.30909  0.16371  1.0000
  H   H54       1.0  0.75237  0.29016  0.12581  1.0000
  N   N18       1.0  0.73283  0.25431  0.26842  1.0000
  C   C54       1.0  0.77165  0.29445  0.33850  1.0000
  C   C55       1.0  0.17569  0.56345  0.34297  1.0000
  C   C56       1.0  0.17518  0.57740  0.26260  1.0000
  C   C57       1.0  0.17633  0.56693  0.17142  1.0000
  H   H55       1.0  0.19597  0.56606  0.16348  1.0000
  H   H56       1.0  0.17586  0.58096  0.11921  1.0000
  H   H57       1.0  0.15800  0.54556  0.16152  1.0000
  N   N19       1.0  0.17548  0.60266  0.27061  1.0000
  C   C58       1.0  0.45099  0.61512  0.34294  1.0000
  C   C59       1.0  0.43705  0.60066  0.26256  1.0000
  C   C60       1.0  0.44750  0.61228  0.17137  1.0000
  H   H58       1.0  0.44837  0.63279  0.16346  1.0000
  H   H59       1.0  0.43348  0.59779  0.11917  1.0000
  H   H60       1.0  0.46888  0.61533  0.16145  1.0000
  N   N20       1.0  0.41177  0.57571  0.27055  1.0000
  C   C61       1.0  0.39933  0.83881  0.34283  1.0000
  C   C62       1.0  0.41378  0.83927  0.26250  1.0000
  C   C63       1.0  0.40216  0.83808  0.17130  1.0000
  H   H61       1.0  0.38164  0.81844  0.16344  1.0000
  H   H62       1.0  0.41665  0.83852  0.11913  1.0000
  H   H63       1.0  0.39912  0.85640  0.16129  1.0000
  N   N21       1.0  0.43874  0.83896  0.27057  1.0000
  C   C64       1.0  0.84168  0.44816  0.34289  1.0000
  C   C65       1.0  0.84212  0.43416  0.26254  1.0000
  C   C66       1.0  0.84093  0.44459  0.17135  1.0000
  H   H64       1.0  0.82128  0.44546  0.16351  1.0000
  H   H65       1.0  0.84137  0.43055  0.11916  1.0000
  H   H66       1.0  0.85925  0.46596  0.16133  1.0000
  N   N22       1.0  0.84183  0.40890  0.27055  1.0000
  C   C67       1.0  0.56624  0.39640  0.34292  1.0000
  C   C68       1.0  0.58022  0.41085  0.26256  1.0000
  C   C69       1.0  0.56976  0.39923  0.17137  1.0000
  H   H67       1.0  0.56886  0.37871  0.16347  1.0000
  H   H68       1.0  0.58380  0.41372  0.11917  1.0000
  H   H69       1.0  0.54840  0.39621  0.16144  1.0000
  N   N23       1.0  0.60550  0.43580  0.27053  1.0000
  C   C70       1.0  0.61808  0.17288  0.34298  1.0000
  C   C71       1.0  0.60361  0.17236  0.26263  1.0000
  C   C72       1.0  0.61523  0.17355  0.17142  1.0000
  H   H70       1.0  0.63572  0.19321  0.16351  1.0000
  H   H71       1.0  0.60072  0.17308  0.11925  1.0000
  H   H72       1.0  0.61830  0.15525  0.16143  1.0000
  N   N24       1.0  0.57864  0.17264  0.27068  1.0000
  C   C73       1.0  0.98280  0.27465  0.16870  1.0000
  C   C74       1.0  0.99481  0.27890  0.26076  1.0000
  H   H73       1.0  0.98962  0.29542  0.13765  1.0000
  H   H74       1.0  0.95951  0.26238  0.16796  1.0000
  H   H75       1.0  0.99071  0.26321  0.12807  1.0000
  N   N25       1.0  0.02392  0.29382  0.26798  1.0000
  C   C75       1.0  0.97834  0.26993  0.34130  1.0000
  C   C76       1.0  0.73983  0.71105  0.16866  1.0000
  C   C77       1.0  0.73554  0.71878  0.26072  1.0000
  H   H76       1.0  0.71907  0.69711  0.13752  1.0000
  H   H77       1.0  0.75209  0.70002  0.16796  1.0000
  H   H78       1.0  0.75129  0.73040  0.12809  1.0000
  N   N26       1.0  0.72061  0.73297  0.26790  1.0000
  C   C78       1.0  0.74447  0.71125  0.34128  1.0000
  C   C79       1.0  0.30335  0.03168  0.16862  1.0000
  C   C80       1.0  0.29566  0.01964  0.26067  1.0000
  H   H79       1.0  0.31726  0.02486  0.13733  1.0000
  H   H80       1.0  0.31440  0.05498  0.16796  1.0000
  H   H81       1.0  0.28398  0.02381  0.12816  1.0000
  N   N27       1.0  0.28147  0.99053  0.26780  1.0000
  C   C81       1.0  0.30322  0.03606  0.34131  1.0000
  C   C82       1.0  0.03455  0.73698  0.16861  1.0000
  C   C83       1.0  0.02251  0.73267  0.26065  1.0000
  H   H82       1.0  0.02774  0.71624  0.13741  1.0000
  H   H83       1.0  0.05784  0.74925  0.16794  1.0000
  H   H84       1.0  0.02665  0.74845  0.12807  1.0000
  N   N28       1.0  0.99340  0.71773  0.26781  1.0000
  C   C84       1.0  0.03895  0.74159  0.34123  1.0000
  C   C85       1.0  0.27752  0.30050  0.16868  1.0000
  C   C86       1.0  0.28179  0.29275  0.26074  1.0000
  H   H85       1.0  0.29828  0.31441  0.13754  1.0000
  H   H86       1.0  0.26528  0.31155  0.16795  1.0000
  H   H87       1.0  0.26604  0.28114  0.12811  1.0000
  N   N29       1.0  0.29669  0.27855  0.26797  1.0000
  C   C87       1.0  0.27287  0.30029  0.34129  1.0000
  C   C88       1.0  0.71397  0.97989  0.16861  1.0000
  C   C89       1.0  0.72170  0.99192  0.26065  1.0000
  H   H88       1.0  0.70005  0.98671  0.13741  1.0000
  H   H89       1.0  0.70293  0.95659  0.16794  1.0000
  H   H90       1.0  0.73333  0.98777  0.12807  1.0000
  N   N30       1.0  0.73588  0.02103  0.26780  1.0000
  C   C90       1.0  0.71416  0.97548  0.34123  1.0000
  C   C91       1.0  0.19190  0.32754  0.16850  1.0000
  C   C92       1.0  0.18026  0.32513  0.26041  1.0000
  H   H91       1.0  0.17616  0.31009  0.12685  1.0000
  H   H92       1.0  0.21155  0.32651  0.16780  1.0000
  H   H93       1.0  0.19637  0.34783  0.13855  1.0000
  N   N31       1.0  0.15537  0.32577  0.26749  1.0000
  C   C93       1.0  0.19406  0.32423  0.34098  1.0000
  C   C94       1.0  0.68685  0.86724  0.16859  1.0000
  C   C95       1.0  0.68930  0.85803  0.26050  1.0000
  H   H94       1.0  0.70429  0.86896  0.12689  1.0000
  H   H95       1.0  0.68784  0.88790  0.16789  1.0000
  H   H96       1.0  0.66655  0.85139  0.13872  1.0000
  N   N32       1.0  0.68869  0.83252  0.26761  1.0000
  C   C96       1.0  0.69020  0.87274  0.34106  1.0000
  C   C97       1.0  0.14730  0.82253  0.16862  1.0000
  C   C98       1.0  0.15643  0.83419  0.26057  1.0000
  H   H97       1.0  0.14559  0.83825  0.12685  1.0000
  H   H98       1.0  0.12664  0.80285  0.16781  1.0000
  H   H99       1.0  0.16318  0.81810  0.13889  1.0000
  N   N33       1.0  0.18194  0.85909  0.26778  1.0000
  C   C99       1.0  0.14170  0.82036  0.34106  1.0000
  C   C100      1.0  0.82539  0.68398  0.16860  1.0000
  C   C101      1.0  0.83704  0.68643  0.26051  1.0000
  H   H100      1.0  0.84110  0.70146  0.12696  1.0000
  H   H101      1.0  0.80570  0.68493  0.16790  1.0000
  H   H102      1.0  0.82099  0.66371  0.13865  1.0000
  N   N34       1.0  0.86195  0.68584  0.26767  1.0000
  C   C102      1.0  0.82321  0.68722  0.34113  1.0000
  C   C103      1.0  0.33040  0.14423  0.16868  1.0000
  C   C104      1.0  0.32795  0.15345  0.26059  1.0000
  H   H103      1.0  0.31294  0.14250  0.12700  1.0000
  H   H104      1.0  0.32940  0.12356  0.16800  1.0000
  H   H105      1.0  0.35068  0.16007  0.13878  1.0000
  N   N35       1.0  0.32858  0.17897  0.26761  1.0000
  C   C105      1.0  0.32713  0.13883  0.34127  1.0000
  C   C106      1.0  0.87016  0.18907  0.16866  1.0000
  C   C107      1.0  0.86092  0.17741  0.26055  1.0000
  H   H106      1.0  0.87192  0.17335  0.12703  1.0000
  H   H107      1.0  0.89082  0.20875  0.16801  1.0000
  H   H108      1.0  0.85431  0.19349  0.13866  1.0000
  N   N36       1.0  0.83541  0.15250  0.26760  1.0000
  C   C108      1.0  0.87553  0.19121  0.34124  1.0000
  C   C109      1.0  0.21713  0.52519  0.34860  1.0000
  C   C110      1.0  0.19497  0.49645  0.34572  1.0000
  C   C111      1.0  0.16602  0.48933  0.34231  1.0000
  C   C112      1.0  0.15936  0.51157  0.34150  1.0000
  C   C113      1.0  0.18143  0.54058  0.34465  1.0000
  C   C114      1.0  0.21026  0.54715  0.34831  1.0000
  H   H109      1.0  0.13843  0.50663  0.33859  1.0000
  H   H110      1.0  0.22642  0.56807  0.34970  1.0000
  H   H111      1.0  0.20002  0.48048  0.34561  1.0000
  C   C115      1.0  0.48921  0.69482  0.34848  1.0000
  C   C116      1.0  0.51795  0.70142  0.34577  1.0000
  C   C117      1.0  0.52509  0.67961  0.34244  1.0000
  C   C118      1.0  0.50287  0.65070  0.34164  1.0000
  C   C119      1.0  0.47385  0.64374  0.34460  1.0000
  C   C120      1.0  0.46726  0.66599  0.34813  1.0000
  H   H112      1.0  0.50783  0.63472  0.33886  1.0000
  H   H113      1.0  0.44634  0.66122  0.34939  1.0000
  H   H114      1.0  0.53391  0.72245  0.34572  1.0000
  C   C121      1.0  0.31962  0.79729  0.34854  1.0000
  C   C122      1.0  0.31303  0.81944  0.34580  1.0000
  C   C123      1.0  0.33483  0.84839  0.34241  1.0000
  C   C124      1.0  0.36374  0.85509  0.34157  1.0000
  C   C125      1.0  0.37071  0.83303  0.34455  1.0000
  C   C126      1.0  0.34846  0.80418  0.34813  1.0000
  H   H115      1.0  0.37971  0.87602  0.33874  1.0000
  H   H116      1.0  0.35323  0.78804  0.34939  1.0000
  H   H117      1.0  0.29199  0.81436  0.34574  1.0000
  C   C127      1.0  0.80016  0.48634  0.34850  1.0000
  C   C128      1.0  0.82230  0.51508  0.34579  1.0000
  C   C129      1.0  0.85125  0.52224  0.34243  1.0000
  C   C130      1.0  0.85796  0.50002  0.34160  1.0000
  C   C131      1.0  0.83591  0.47101  0.34455  1.0000
  C   C132      1.0  0.80705  0.46440  0.34810  1.0000
  H   H118      1.0  0.87889  0.50499  0.33880  1.0000
  H   H119      1.0  0.79091  0.44348  0.34938  1.0000
  H   H120      1.0  0.81722  0.53104  0.34572  1.0000
  C   C133      1.0  0.52808  0.31670  0.34859  1.0000
  C   C134      1.0  0.49933  0.31009  0.34578  1.0000
  C   C135      1.0  0.49217  0.33188  0.34235  1.0000
  C   C136      1.0  0.51438  0.36080  0.34152  1.0000
  C   C137      1.0  0.54340  0.36778  0.34461  1.0000
  C   C138      1.0  0.55001  0.34554  0.34824  1.0000
  H   H121      1.0  0.50942  0.37677  0.33862  1.0000
  H   H122      1.0  0.57094  0.35033  0.34961  1.0000
  H   H123      1.0  0.48338  0.28905  0.34570  1.0000
  C   C139      1.0  0.69779  0.21431  0.34843  1.0000
  C   C140      1.0  0.70435  0.19213  0.34568  1.0000
  C   C141      1.0  0.68252  0.16319  0.34237  1.0000
  C   C142      1.0  0.65361  0.15653  0.34159  1.0000
  C   C143      1.0  0.64669  0.17861  0.34456  1.0000
  C   C144      1.0  0.66896  0.20745  0.34808  1.0000
  H   H124      1.0  0.63762  0.13561  0.33883  1.0000
  H   H125      1.0  0.66422  0.22362  0.34939  1.0000
  H   H126      1.0  0.72538  0.19718  0.34560  1.0000
  C   C145      1.0  0.52822  0.21426  0.34064  1.0000
  C   C146      1.0  0.49942  0.19219  0.34142  1.0000
  C   C147      1.0  0.49213  0.16320  0.34557  1.0000
  C   C148      1.0  0.51425  0.15638  0.34831  1.0000
  C   C149      1.0  0.54332  0.17835  0.34707  1.0000
  C   C150      1.0  0.55007  0.20725  0.34362  1.0000
  H   H127      1.0  0.50919  0.13542  0.35158  1.0000
  H   H128      1.0  0.57102  0.22333  0.34338  1.0000
  H   H129      1.0  0.48353  0.19735  0.33999  1.0000
  C   C151      1.0  0.69756  0.48617  0.34067  1.0000
  C   C152      1.0  0.70430  0.51497  0.34147  1.0000
  C   C153      1.0  0.68262  0.52228  0.34562  1.0000
  C   C154      1.0  0.65367  0.50017  0.34832  1.0000
  C   C155      1.0  0.64656  0.47110  0.34708  1.0000
  C   C156      1.0  0.66869  0.46433  0.34363  1.0000
  H   H130      1.0  0.63778  0.50524  0.35152  1.0000
  H   H131      1.0  0.66382  0.44338  0.34332  1.0000
  H   H132      1.0  0.72536  0.53086  0.34002  1.0000
  C   C157      1.0  0.80025  0.31689  0.34054  1.0000
  C   C158      1.0  0.82232  0.31016  0.34148  1.0000
  C   C159      1.0  0.85130  0.33186  0.34568  1.0000
  C   C160      1.0  0.85811  0.36080  0.34842  1.0000
  C   C161      1.0  0.83614  0.36789  0.34701  1.0000
  C   C162      1.0  0.80725  0.34575  0.34344  1.0000
  H   H133      1.0  0.87907  0.37670  0.35177  1.0000
  H   H134      1.0  0.79116  0.35061  0.34308  1.0000
  H   H135      1.0  0.81716  0.28911  0.34008  1.0000
  C   C163      1.0  0.48907  0.79729  0.34065  1.0000
  C   C164      1.0  0.51788  0.81934  0.34146  1.0000
  C   C165      1.0  0.52520  0.84833  0.34562  1.0000
  C   C166      1.0  0.50309  0.85518  0.34835  1.0000
  C   C167      1.0  0.47402  0.83323  0.34709  1.0000
  C   C168      1.0  0.46724  0.80433  0.34361  1.0000
  H   H136      1.0  0.50818  0.87614  0.35161  1.0000
  H   H137      1.0  0.44628  0.78825  0.34332  1.0000
  H   H138      1.0  0.53376  0.81415  0.33997  1.0000
  C   C169      1.0  0.31972  0.52531  0.34068  1.0000
  C   C170      1.0  0.31299  0.49651  0.34148  1.0000
  C   C171      1.0  0.33468  0.48922  0.34563  1.0000
  C   C172      1.0  0.36363  0.51134  0.34833  1.0000
  C   C173      1.0  0.37072  0.54041  0.34709  1.0000
  C   C174      1.0  0.34858  0.54716  0.34361  1.0000
  H   H139      1.0  0.37952  0.50628  0.35158  1.0000
  H   H140      1.0  0.35345  0.56811  0.34333  1.0000
  H   H141      1.0  0.29193  0.48062  0.34007  1.0000
  C   C175      1.0  0.21713  0.69472  0.34069  1.0000
  C   C176      1.0  0.19506  0.70145  0.34146  1.0000
  C   C177      1.0  0.16607  0.67976  0.34557  1.0000
  C   C178      1.0  0.15925  0.65082  0.34828  1.0000
  C   C179      1.0  0.18123  0.64372  0.34709  1.0000
  C   C180      1.0  0.21012  0.66586  0.34367  1.0000
  H   H142      1.0  0.13829  0.63492  0.35150  1.0000
  H   H143      1.0  0.22621  0.66100  0.34344  1.0000
  H   H144      1.0  0.20022  0.72251  0.34007  1.0000
  C   C181      1.0  0.10775  0.37045  0.34162  1.0000
  C   C182      1.0  0.12806  0.36125  0.34168  1.0000
  C   C183      1.0  0.11966  0.33189  0.34351  1.0000
  C   C184      1.0  0.08993  0.31151  0.34499  1.0000
  C   C185      1.0  0.06898  0.32016  0.34396  1.0000
  C   C186      1.0  0.07837  0.34979  0.34226  1.0000
  H   H145      1.0  0.08348  0.29019  0.34715  1.0000
  H   H146      1.0  0.06363  0.35648  0.34314  1.0000
  H   H147      1.0  0.14942  0.37629  0.34216  1.0000
  C   C187      1.0  0.64398  0.74021  0.34169  1.0000
  C   C188      1.0  0.65321  0.76973  0.34177  1.0000
  C   C189      1.0  0.68257  0.79067  0.34354  1.0000
  C   C190      1.0  0.70293  0.78129  0.34497  1.0000
  C   C191      1.0  0.69426  0.75169  0.34394  1.0000
  C   C192      1.0  0.66463  0.73147  0.34228  1.0000
  H   H148      1.0  0.72427  0.79615  0.34708  1.0000
  H   H149      1.0  0.65792  0.71004  0.34314  1.0000
  H   H150      1.0  0.63818  0.77606  0.34226  1.0000
  C   C193      1.0  0.27418  0.90662  0.34168  1.0000
  C   C194      1.0  0.24466  0.88635  0.34185  1.0000
  C   C195      1.0  0.22373  0.89479  0.34366  1.0000
  C   C196      1.0  0.23313  0.92453  0.34502  1.0000
  C   C197      1.0  0.26273  0.94544  0.34386  1.0000
  C   C198      1.0  0.28294  0.93601  0.34215  1.0000
  H   H151      1.0  0.21828  0.93102  0.34718  1.0000
  H   H152      1.0  0.30438  0.95072  0.34293  1.0000
  H   H153      1.0  0.23831  0.86498  0.34240  1.0000
  C   C199      1.0  0.90954  0.64112  0.34175  1.0000
  C   C200      1.0  0.88925  0.65034  0.34187  1.0000
  C   C201      1.0  0.89767  0.67971  0.34365  1.0000
  C   C202      1.0  0.92741  0.70007  0.34500  1.0000
  C   C203      1.0  0.94834  0.69139  0.34392  1.0000
  C   C204      1.0  0.93893  0.66176  0.34229  1.0000
  H   H154      1.0  0.93388  0.72140  0.34709  1.0000
  H   H155      1.0  0.95365  0.65505  0.34309  1.0000
  H   H156      1.0  0.86789  0.63531  0.34239  1.0000
  C   C205      1.0  0.37329  0.27130  0.34167  1.0000
  C   C206      1.0  0.36407  0.24178  0.34176  1.0000
  C   C207      1.0  0.33470  0.22084  0.34357  1.0000
  C   C208      1.0  0.31434  0.23021  0.34501  1.0000
  C   C209      1.0  0.32301  0.25981  0.34396  1.0000
  C   C210      1.0  0.35264  0.28004  0.34226  1.0000
  H   H157      1.0  0.29301  0.21535  0.34716  1.0000
  H   H158      1.0  0.35935  0.30147  0.34315  1.0000
  H   H159      1.0  0.37910  0.23545  0.34218  1.0000
  C   C211      1.0  0.74311  0.10489  0.34172  1.0000
  C   C212      1.0  0.77262  0.12518  0.34183  1.0000
  C   C213      1.0  0.79357  0.11677  0.34357  1.0000
  C   C214      1.0  0.78420  0.08703  0.34495  1.0000
  C   C215      1.0  0.75460  0.06610  0.34390  1.0000
  C   C216      1.0  0.73437  0.07550  0.34222  1.0000
  H   H160      1.0  0.79907  0.08057  0.34707  1.0000
  H   H161      1.0  0.71294  0.06078  0.34309  1.0000
  H   H162      1.0  0.77895  0.14654  0.34232  1.0000
  C   C217      1.0  0.37316  0.10502  0.34620  1.0000
  C   C218      1.0  0.36388  0.12527  0.34604  1.0000
  C   C219      1.0  0.33450  0.11680  0.34506  1.0000
  C   C220      1.0  0.31417  0.08705  0.34442  1.0000
  C   C221      1.0  0.32290  0.06616  0.34498  1.0000
  C   C222      1.0  0.35255  0.07562  0.34591  1.0000
  H   H163      1.0  0.29283  0.08054  0.34224  1.0000
  H   H164      1.0  0.35929  0.06093  0.34469  1.0000
  H   H165      1.0  0.37888  0.14664  0.34500  1.0000
  C   C223      1.0  0.74336  0.64124  0.34622  1.0000
  C   C224      1.0  0.77288  0.65048  0.34602  1.0000
  C   C225      1.0  0.79381  0.67986  0.34507  1.0000
  C   C226      1.0  0.78443  0.70021  0.34442  1.0000
  C   C227      1.0  0.75482  0.69152  0.34502  1.0000
  C   C228      1.0  0.73460  0.66188  0.34593  1.0000
  H   H166      1.0  0.79928  0.72154  0.34222  1.0000
  H   H167      1.0  0.71317  0.65517  0.34472  1.0000
  H   H168      1.0  0.77922  0.63547  0.34492  1.0000
  C   C229      1.0  0.90945  0.27106  0.34621  1.0000
  C   C230      1.0  0.88916  0.24154  0.34604  1.0000
  C   C231      1.0  0.89759  0.22060  0.34510  1.0000
  C   C232      1.0  0.92733  0.22998  0.34444  1.0000
  C   C233      1.0  0.94825  0.25958  0.34503  1.0000
  C   C234      1.0  0.93884  0.27981  0.34591  1.0000
  H   H169      1.0  0.93380  0.21512  0.34227  1.0000
  H   H170      1.0  0.95356  0.30123  0.34471  1.0000
  H   H171      1.0  0.86780  0.23520  0.34499  1.0000
  C   C235      1.0  0.64417  0.90655  0.34626  1.0000
  C   C236      1.0  0.65343  0.88628  0.34604  1.0000
  C   C237      1.0  0.68281  0.89474  0.34509  1.0000
  C   C238      1.0  0.70315  0.92449  0.34438  1.0000
  C   C239      1.0  0.69444  0.94539  0.34504  1.0000
  C   C240      1.0  0.66479  0.93595  0.34596  1.0000
  H   H172      1.0  0.72448  0.93098  0.34217  1.0000
  H   H173      1.0  0.65807  0.95065  0.34476  1.0000
  H   H174      1.0  0.63842  0.86491  0.34498  1.0000
  C   C241      1.0  0.27390  0.37028  0.34620  1.0000
  C   C242      1.0  0.24437  0.36100  0.34596  1.0000
  C   C243      1.0  0.22346  0.33162  0.34496  1.0000
  C   C244      1.0  0.23288  0.31129  0.34434  1.0000
  C   C245      1.0  0.26249  0.32001  0.34504  1.0000
  C   C246      1.0  0.28269  0.34966  0.34597  1.0000
  H   H175      1.0  0.21804  0.28995  0.34214  1.0000
  H   H176      1.0  0.30412  0.35639  0.34481  1.0000
  H   H177      1.0  0.23801  0.37600  0.34489  1.0000
  C   C247      1.0  0.10787  0.74051  0.34615  1.0000
  C   C248      1.0  0.12815  0.77003  0.34593  1.0000
  C   C249      1.0  0.11969  0.79096  0.34498  1.0000
  C   C250      1.0  0.08995  0.78156  0.34438  1.0000
  C   C251      1.0  0.06905  0.75196  0.34504  1.0000
  C   C252      1.0  0.07848  0.73175  0.34587  1.0000
  H   H178      1.0  0.08347  0.79641  0.34222  1.0000
  H   H179      1.0  0.06376  0.71031  0.34471  1.0000
  H   H180      1.0  0.14951  0.77639  0.34485  1.0000
  C   C253      1.0  0.12141  0.40441  0.51804  1.0000
  C   C254      1.0  0.12526  0.41632  0.42593  1.0000
  H   H181      1.0  0.14230  0.41202  0.54927  1.0000
  H   H182      1.0  0.10992  0.38112  0.51883  1.0000
  H   H183      1.0  0.10933  0.41163  0.55849  1.0000
  N   N37       1.0  0.13931  0.44531  0.41842  1.0000
  C   C255      1.0  0.11724  0.40010  0.34507  1.0000
  C   C256      1.0  0.61012  0.71984  0.51823  1.0000
  C   C257      1.0  0.59816  0.71184  0.42616  1.0000
  H   H184      1.0  0.60253  0.73311  0.54969  1.0000
  H   H185      1.0  0.63341  0.73164  0.51889  1.0000
  H   H186      1.0  0.60292  0.70052  0.55855  1.0000
  N   N38       1.0  0.56917  0.69692  0.41880  1.0000
  C   C258      1.0  0.61433  0.72007  0.34520  1.0000
  C   C259      1.0  0.29455  0.89312  0.51815  1.0000
  C   C260      1.0  0.30254  0.88916  0.42606  1.0000
  H   H187      1.0  0.28131  0.87227  0.54966  1.0000
  H   H188      1.0  0.28273  0.90459  0.51881  1.0000
  H   H189      1.0  0.31388  0.90526  0.55841  1.0000
  N   N39       1.0  0.31749  0.87511  0.41872  1.0000
  C   C261      1.0  0.29430  0.89708  0.34510  1.0000
  C   C262      1.0  0.89597  0.60722  0.51824  1.0000
  C   C263      1.0  0.89203  0.59528  0.42616  1.0000
  H   H190      1.0  0.87511  0.59965  0.54964  1.0000
  H   H191      1.0  0.90747  0.63051  0.51893  1.0000
  H   H192      1.0  0.90806  0.60000  0.55860  1.0000
  N   N40       1.0  0.87797  0.56628  0.41880  1.0000
  C   C264      1.0  0.90004  0.61147  0.34525  1.0000
  C   C265      1.0  0.40723  0.29161  0.51810  1.0000
  C   C266      1.0  0.41915  0.29964  0.42599  1.0000
  H   H193      1.0  0.41482  0.27831  0.54938  1.0000
  H   H194      1.0  0.38394  0.27982  0.51885  1.0000
  H   H195      1.0  0.41446  0.31091  0.55852  1.0000
  N   N41       1.0  0.44814  0.31456  0.41856  1.0000
  C   C267      1.0  0.40294  0.29144  0.34511  1.0000
  C   C268      1.0  0.72276  0.11845  0.51821  1.0000
  C   C269      1.0  0.71475  0.12236  0.42612  1.0000
  H   H196      1.0  0.73605  0.13933  0.54956  1.0000
  H   H197      1.0  0.73456  0.10696  0.51893  1.0000
  H   H198      1.0  0.70346  0.10636  0.55859  1.0000
  N   N42       1.0  0.69983  0.13643  0.41868  1.0000
  C   C270      1.0  0.72295  0.11438  0.34522  1.0000
  C   C271      1.0  0.46268  0.14240  0.34801  1.0000
  C   C272      1.0  0.44644  0.13437  0.42883  1.0000
  C   C273      1.0  0.45950  0.14143  0.51964  1.0000
  H   H199      1.0  0.47305  0.13194  0.52881  1.0000
  H   H200      1.0  0.44319  0.13324  0.57234  1.0000
  H   H201      1.0  0.47248  0.16457  0.52755  1.0000
  N   N43       1.0  0.41744  0.12121  0.42183  1.0000
  C   C274      1.0  0.69129  0.55175  0.34794  1.0000
  C   C275      1.0  0.69946  0.56797  0.42877  1.0000
  C   C276      1.0  0.69351  0.55492  0.51961  1.0000
  H   H202      1.0  0.67048  0.54134  0.52884  1.0000
  H   H203      1.0  0.70161  0.57124  0.57228  1.0000
  H   H204      1.0  0.70371  0.54198  0.52750  1.0000
  N   N44       1.0  0.71526  0.59697  0.42174  1.0000
  C   C277      1.0  0.87213  0.32324  0.34833  1.0000
  C   C278      1.0  0.88013  0.31498  0.42905  1.0000
  C   C279      1.0  0.87304  0.32092  0.51989  1.0000
  H   H205      1.0  0.88254  0.34396  0.52921  1.0000
  H   H206      1.0  0.88122  0.31277  0.57254  1.0000
  H   H207      1.0  0.84990  0.31076  0.52773  1.0000
  N   N45       1.0  0.89330  0.29915  0.42189  1.0000
  C   C280      1.0  0.55467  0.86912  0.34798  1.0000
  C   C281      1.0  0.57088  0.87715  0.42883  1.0000
  C   C282      1.0  0.55782  0.87007  0.51964  1.0000
  H   H208      1.0  0.54426  0.87954  0.52883  1.0000
  H   H209      1.0  0.57413  0.87828  0.57234  1.0000
  H   H210      1.0  0.54486  0.84693  0.52754  1.0000
  N   N46       1.0  0.59989  0.89034  0.42183  1.0000
  C   C283      1.0  0.32602  0.45975  0.34805  1.0000
  C   C284      1.0  0.31784  0.44355  0.42890  1.0000
  C   C285      1.0  0.32385  0.45661  0.51971  1.0000
  H   H211      1.0  0.34689  0.47016  0.52885  1.0000
  H   H212      1.0  0.31574  0.44030  0.57241  1.0000
  H   H213      1.0  0.31369  0.46959  0.52763  1.0000
  N   N47       1.0  0.30201  0.41455  0.42187  1.0000
  C   C286      1.0  0.14527  0.68842  0.34796  1.0000
  C   C287      1.0  0.13722  0.69658  0.42879  1.0000
  C   C288      1.0  0.14431  0.69062  0.51962  1.0000
  H   H214      1.0  0.13485  0.66758  0.52883  1.0000
  H   H215      1.0  0.13609  0.69872  0.57229  1.0000
  H   H216      1.0  0.16744  0.70081  0.52753  1.0000
  N   N48       1.0  0.12404  0.71240  0.42171  1.0000
  C   C289      1.0  0.24569  0.53118  0.34923  1.0000
  C   C290      1.0  0.26046  0.53181  0.42887  1.0000
  C   C291      1.0  0.24932  0.53086  0.52066  1.0000
  H   H217      1.0  0.24633  0.54922  0.53080  1.0000
  H   H218      1.0  0.26409  0.53145  0.57205  1.0000
  H   H219      1.0  0.22886  0.51124  0.52960  1.0000
  N   N49       1.0  0.28531  0.53145  0.41931  1.0000
  C   C292      1.0  0.48322  0.71739  0.34900  1.0000
  C   C293      1.0  0.48256  0.73151  0.42867  1.0000
  C   C294      1.0  0.48348  0.72130  0.52045  1.0000
  H   H220      1.0  0.46513  0.69995  0.53052  1.0000
  H   H221      1.0  0.48287  0.73546  0.57186  1.0000
  H   H222      1.0  0.50311  0.72047  0.52945  1.0000
  N   N50       1.0  0.48290  0.75671  0.41918  1.0000
  C   C295      1.0  0.29705  0.76874  0.34906  1.0000
  C   C296      1.0  0.28298  0.75398  0.42879  1.0000
  C   C297      1.0  0.29324  0.76510  0.52055  1.0000
  H   H223      1.0  0.31459  0.76808  0.53047  1.0000
  H   H224      1.0  0.27909  0.75033  0.57199  1.0000
  H   H225      1.0  0.29410  0.78557  0.52961  1.0000
  N   N51       1.0  0.25775  0.72914  0.41939  1.0000
  C   C298      1.0  0.77160  0.48035  0.34900  1.0000
  C   C299      1.0  0.75682  0.47963  0.42872  1.0000
  C   C300      1.0  0.76795  0.48055  0.52050  1.0000
  H   H226      1.0  0.77098  0.46221  0.53051  1.0000
  H   H227      1.0  0.75316  0.47991  0.57191  1.0000
  H   H228      1.0  0.78840  0.50019  0.52953  1.0000
  N   N52       1.0  0.73197  0.47998  0.41922  1.0000
  C   C301      1.0  0.53410  0.29416  0.34922  1.0000
  C   C302      1.0  0.53474  0.28003  0.42888  1.0000
  C   C303      1.0  0.53381  0.29023  0.52066  1.0000
  H   H229      1.0  0.55217  0.31157  0.53076  1.0000
  H   H230      1.0  0.53440  0.27605  0.57205  1.0000
  H   H231      1.0  0.51419  0.29107  0.52962  1.0000
  N   N53       1.0  0.53437  0.25481  0.41935  1.0000
  C   C304      1.0  0.72038  0.24285  0.34891  1.0000
  C   C305      1.0  0.73447  0.25762  0.42861  1.0000
  C   C306      1.0  0.72426  0.24650  0.52040  1.0000
  H   H232      1.0  0.70290  0.24350  0.53043  1.0000
  H   H233      1.0  0.73841  0.26128  0.57180  1.0000
  H   H234      1.0  0.72342  0.22604  0.52942  1.0000
  N   N54       1.0  0.75967  0.28247  0.41910  1.0000
  C   C307      1.0  0.17828  0.61255  0.52295  1.0000
  C   C308      1.0  0.17617  0.60126  0.43064  1.0000
  H   H235      1.0  0.16058  0.59672  0.56361  1.0000
  H   H236      1.0  0.17748  0.63232  0.52416  1.0000
  H   H237      1.0  0.19838  0.61669  0.55362  1.0000
  N   N55       1.0  0.17672  0.57644  0.42253  1.0000
  C   C309      1.0  0.17534  0.61508  0.35024  1.0000
  C   C310      1.0  0.40192  0.56860  0.52295  1.0000
  C   C311      1.0  0.41318  0.57779  0.43065  1.0000
  H   H238      1.0  0.41774  0.56669  0.56354  1.0000
  H   H239      1.0  0.38214  0.54803  0.52415  1.0000
  H   H240      1.0  0.39779  0.58455  0.55373  1.0000
  N   N56       1.0  0.43802  0.60316  0.42251  1.0000
  C   C312      1.0  0.39937  0.56318  0.35021  1.0000
  C   C313      1.0  0.44579  0.83620  0.52297  1.0000
  C   C314      1.0  0.43663  0.83832  0.43065  1.0000
  H   H241      1.0  0.44767  0.85390  0.56364  1.0000
  H   H242      1.0  0.46635  0.83699  0.52421  1.0000
  H   H243      1.0  0.42982  0.81610  0.55362  1.0000
  N   N57       1.0  0.41126  0.83777  0.42244  1.0000
  C   C315      1.0  0.45128  0.83914  0.35027  1.0000
  C   C316      1.0  0.83912  0.39908  0.52293  1.0000
  C   C317      1.0  0.84121  0.41035  0.43063  1.0000
  H   H244      1.0  0.85684  0.41490  0.56356  1.0000
  H   H245      1.0  0.83991  0.37930  0.52415  1.0000
  H   H246      1.0  0.81903  0.39495  0.55364  1.0000
  N   N58       1.0  0.84067  0.43518  0.42244  1.0000
  C   C318      1.0  0.84202  0.39654  0.35022  1.0000
  C   C319      1.0  0.61537  0.44290  0.52291  1.0000
  C   C320      1.0  0.60410  0.43372  0.43059  1.0000
  H   H247      1.0  0.59955  0.44481  0.56350  1.0000
  H   H248      1.0  0.63515  0.46346  0.52412  1.0000
  H   H249      1.0  0.61948  0.42693  0.55364  1.0000
  N   N59       1.0  0.57925  0.40836  0.42244  1.0000
  C   C321      1.0  0.61792  0.44834  0.35016  1.0000
  C   C322      1.0  0.57157  0.17543  0.52300  1.0000
  C   C323      1.0  0.58075  0.17334  0.43069  1.0000
  H   H250      1.0  0.56971  0.15774  0.56366  1.0000
  H   H251      1.0  0.55098  0.17461  0.52421  1.0000
  H   H252      1.0  0.58750  0.19554  0.55366  1.0000
  N   N60       1.0  0.60613  0.17390  0.42253  1.0000
  C   C324      1.0  0.56606  0.17245  0.35032  1.0000
  C   C325      1.0  0.03887  0.30041  0.34671  1.0000
  C   C326      1.0  0.02243  0.29211  0.42719  1.0000
  C   C327      1.0  0.03542  0.29976  0.51800  1.0000
  H   H253      1.0  0.04948  0.29091  0.52803  1.0000
  H   H254      1.0  0.01908  0.29136  0.57063  1.0000
  H   H255      1.0  0.04785  0.32297  0.52509  1.0000
  N   N61       1.0  0.99331  0.27775  0.42011  1.0000
  C   C328      1.0  0.71398  0.74130  0.34659  1.0000
  C   C329      1.0  0.72227  0.73316  0.42711  1.0000
  C   C330      1.0  0.71460  0.73848  0.51790  1.0000
  H   H256      1.0  0.72346  0.76140  0.52795  1.0000
  H   H257      1.0  0.72300  0.73055  0.57054  1.0000
  H   H258      1.0  0.69140  0.72770  0.52498  1.0000
  N   N62       1.0  0.73663  0.71839  0.42007  1.0000
  C   C331      1.0  0.27316  0.97556  0.34648  1.0000
  C   C332      1.0  0.28122  0.99197  0.42706  1.0000
  C   C333      1.0  0.27583  0.97895  0.51784  1.0000
  H   H259      1.0  0.25291  0.96490  0.52771  1.0000
  H   H260      1.0  0.28373  0.99527  0.57052  1.0000
  H   H261      1.0  0.28660  0.96652  0.52501  1.0000
  N   N63       1.0  0.29601  0.02110  0.42011  1.0000
  C   C334      1.0  0.97846  0.71110  0.34654  1.0000
  C   C335      1.0  0.99487  0.71944  0.42709  1.0000
  C   C336      1.0  0.98187  0.71179  0.51788  1.0000
  H   H262      1.0  0.96780  0.72063  0.52786  1.0000
  H   H263      1.0  0.99821  0.72022  0.57054  1.0000
  H   H264      1.0  0.96947  0.68859  0.52503  1.0000
  N   N64       1.0  0.02400  0.73379  0.42005  1.0000
  C   C337      1.0  0.30328  0.27020  0.34672  1.0000
  C   C338      1.0  0.29501  0.27836  0.42721  1.0000
  C   C339      1.0  0.30267  0.27303  0.51800  1.0000
  H   H265      1.0  0.29379  0.25012  0.52807  1.0000
  H   H266      1.0  0.29428  0.28099  0.57064  1.0000
  H   H267      1.0  0.32587  0.28379  0.52508  1.0000
  N   N65       1.0  0.28067  0.29315  0.42013  1.0000
  C   C340      1.0  0.74419  0.03598  0.34653  1.0000
  C   C341      1.0  0.73610  0.01957  0.42708  1.0000
  C   C342      1.0  0.74145  0.03257  0.51786  1.0000
  H   H268      1.0  0.76437  0.04663  0.52784  1.0000
  H   H269      1.0  0.73353  0.01624  0.57052  1.0000
  H   H270      1.0  0.73067  0.04499  0.52500  1.0000
  N   N66       1.0  0.72132  0.99044  0.42005  1.0000
  C   C343      1.0  0.14177  0.32461  0.34603  1.0000
  C   C344      1.0  0.15577  0.32420  0.42661  1.0000
  C   C345      1.0  0.14528  0.32569  0.51741  1.0000
  H   H271      1.0  0.14467  0.34549  0.52468  1.0000
  H   H272      1.0  0.15913  0.32513  0.57006  1.0000
  H   H273      1.0  0.12380  0.30755  0.52728  1.0000
  N   N67       1.0  0.18119  0.32457  0.41961  1.0000
  C   C346      1.0  0.68989  0.82007  0.34608  1.0000
  C   C347      1.0  0.69025  0.83447  0.42663  1.0000
  C   C348      1.0  0.68873  0.82248  0.51744  1.0000
  H   H274      1.0  0.66894  0.80207  0.52464  1.0000
  H   H275      1.0  0.68926  0.83689  0.57009  1.0000
  H   H276      1.0  0.70687  0.81915  0.52740  1.0000
  N   N68       1.0  0.68985  0.85950  0.41968  1.0000
  C   C349      1.0  0.19433  0.87273  0.34635  1.0000
  C   C350      1.0  0.17991  0.85866  0.42682  1.0000
  C   C351      1.0  0.19188  0.86913  0.51765  1.0000
  H   H277      1.0  0.21230  0.86978  0.52489  1.0000
  H   H278      1.0  0.17747  0.85524  0.57027  1.0000
  H   H279      1.0  0.19518  0.89059  0.52762  1.0000
  N   N69       1.0  0.15489  0.83322  0.41975  1.0000
  C   C352      1.0  0.87559  0.68702  0.34618  1.0000
  C   C353      1.0  0.86151  0.68734  0.42673  1.0000
  C   C354      1.0  0.87201  0.68585  0.51753  1.0000
  H   H280      1.0  0.87268  0.66608  0.52475  1.0000
  H   H281      1.0  0.85813  0.68636  0.57019  1.0000
  H   H282      1.0  0.89347  0.70403  0.52746  1.0000
  N   N70       1.0  0.83607  0.68690  0.41981  1.0000
  C   C355      1.0  0.32741  0.19144  0.34607  1.0000
  C   C356      1.0  0.32698  0.17704  0.42670  1.0000
  C   C357      1.0  0.32842  0.18903  0.51748  1.0000
  H   H283      1.0  0.34820  0.20945  0.52479  1.0000
  H   H284      1.0  0.32785  0.17462  0.57019  1.0000
  H   H285      1.0  0.31026  0.19234  0.52722  1.0000
  N   N71       1.0  0.32740  0.15202  0.41986  1.0000
  C   C358      1.0  0.82297  0.13888  0.34612  1.0000
  C   C359      1.0  0.83738  0.15284  0.42675  1.0000
  C   C360      1.0  0.82539  0.14230  0.51753  1.0000
  H   H286      1.0  0.80497  0.14166  0.52486  1.0000
  H   H287      1.0  0.83980  0.15613  0.57023  1.0000
  H   H288      1.0  0.82208  0.12082  0.52726  1.0000
  N   N72       1.0  0.86238  0.17829  0.41988  1.0000
