data_image0
_chemical_formula_structural       C2OHCHC2OHCHC2HCH2CHCH2C2HC2NCHC3NHC2HCH2CHCH2C2HC2NCHC3NHCH3CHCHC3NC2NC2H3CHCHC3NC2NC4OHC6O2H2C6O2H2C3H2CH2CH3C2H2CH2CH2C2H2CH2CH2C2H2CH2CH2C3H2C3H2C3H2C3H2C3H3C4NC2NH3C4NC2NH2C4NC2NH2C4NC2NH2C3OHC6O2H2C6O2H2C3H2CH2CH3C2H2CH2CH2C2H2CH2CH2C2H2CH2CH2C3H2C3H2C3H2C3H2C3H3C4NC2NH3C4NC2NH2C4NC2NH2C4NC2NH2C6O2H2C6O2H2C6O2H2C2H2CH2CH2C2H2CH2CH2C2H2CH2CH2C2H2CH2CH2C2H2CH2CH2C2H2CH2CH2C3H2C3H2C3H2C3H2C3H2C3H2C4NC2NH2C4NC2NH2C4NC2NH2C4NC2NH2C4NC2NH2C4NC2NH2C6O2H2C6O2H2C6O2H2C2H2CH2CH2C2H2CH2CH2C2H2CH2CH2C2H2CH2CH2C2H2CH2CH2C2H2CH2CH2C3H2C3H2C3H2C3H2C3H2C3H2C4NC2NH2C4NC2NH2C4NC2NH2C4NC2NH2C4NC2NH2C4NC2NH2
_chemical_formula_sum              "C384 O24 H264 N48"
_cell_length_a       46.7209
_cell_length_b       46.7209
_cell_length_c       14.8962
_cell_angle_alpha    90
_cell_angle_beta     90
_cell_angle_gamma    120

_space_group_name_H-M_alt    "P 1"
_space_group_IT_number       1

loop_
  _space_group_symop_operation_xyz
  'x, y, z'

loop_
  _atom_site_type_symbol
  _atom_site_label
  _atom_site_symmetry_multiplicity
  _atom_site_fract_x
  _atom_site_fract_y
  _atom_site_fract_z
  _atom_site_occupancy
  C   C1        1.0  0.02322  0.26261  0.31338  1.0000
  C   C2        1.0  0.04332  0.29823  0.30905  1.0000
  O   O1        1.0  0.03203  0.31797  0.27635  1.0000
  H   H1        1.0  0.02858  0.31344  0.21159  1.0000
  C   C3        1.0  0.04195  0.24620  0.32698  1.0000
  H   H2        1.0  0.03076  0.22126  0.33115  1.0000
  C   C4        1.0  0.02322  0.76261  0.31338  1.0000
  C   C5        1.0  0.04332  0.79824  0.30905  1.0000
  O   O2        1.0  0.03203  0.81797  0.27635  1.0000
  H   H3        1.0  0.02858  0.81344  0.21159  1.0000
  C   C6        1.0  0.04195  0.74620  0.32698  1.0000
  H   H4        1.0  0.03076  0.72126  0.33115  1.0000
  C   C7        1.0  0.07673  0.31564  0.33918  1.0000
  C   C8        1.0  0.10790  0.24165  0.27167  1.0000
  H   H5        1.0  0.09705  0.24180  0.21224  1.0000
  C   C9        1.0  0.10233  0.25735  0.00959  1.0000
  H   H6        1.0  0.11762  0.28026  0.04628  1.0000
  H   H7        1.0  0.09826  0.23637  0.05089  1.0000
  C   C10       1.0  0.11035  0.37026  0.26900  1.0000
  H   H8        1.0  0.10065  0.36051  0.20754  1.0000
  C   C11       1.0  0.09742  0.33891  0.00122  1.0000
  H   H9        1.0  0.11268  0.34595  0.06137  1.0000
  H   H10       1.0  0.07568  0.34120  0.01434  1.0000
  C   C12       1.0  0.09220  0.29713  0.35939  1.0000
  C   C13       1.0  0.07606  0.26270  0.34773  1.0000
  H   H11       1.0  0.11701  0.30942  0.37421  1.0000
  C   C14       1.0  0.11387  0.25055  0.43182  1.0000
  C   C15       1.0  0.09558  0.24720  0.35280  1.0000
  N   N1        1.0  0.10279  0.25378  0.51344  1.0000
  C   C16       1.0  0.11887  0.25707  0.59215  1.0000
  H   H12       1.0  0.07834  0.25520  0.66319  1.0000
  C   C17       1.0  0.09697  0.35063  0.34683  1.0000
  C   C18       1.0  0.11341  0.36440  0.42917  1.0000
  C   C19       1.0  0.11535  0.35938  0.58946  1.0000
  N   N2        1.0  0.10104  0.34825  0.50801  1.0000
  H   H13       1.0  0.08932  0.31309  0.65385  1.0000
  C   C20       1.0  0.07673  0.81564  0.33918  1.0000
  C   C21       1.0  0.10790  0.74165  0.27167  1.0000
  H   H14       1.0  0.09705  0.74180  0.21224  1.0000
  C   C22       1.0  0.10233  0.75735  0.00959  1.0000
  H   H15       1.0  0.11762  0.78026  0.04628  1.0000
  H   H16       1.0  0.09826  0.73637  0.05089  1.0000
  C   C23       1.0  0.11035  0.87026  0.26900  1.0000
  H   H17       1.0  0.10065  0.86051  0.20754  1.0000
  C   C24       1.0  0.09742  0.83890  0.00122  1.0000
  H   H18       1.0  0.11268  0.84595  0.06137  1.0000
  H   H19       1.0  0.07568  0.84121  0.01434  1.0000
  C   C25       1.0  0.09220  0.79713  0.35939  1.0000
  C   C26       1.0  0.07606  0.76270  0.34773  1.0000
  H   H20       1.0  0.11701  0.80942  0.37421  1.0000
  C   C27       1.0  0.11387  0.75054  0.43182  1.0000
  C   C28       1.0  0.09558  0.74721  0.35280  1.0000
  N   N3        1.0  0.10279  0.75378  0.51344  1.0000
  C   C29       1.0  0.11887  0.75707  0.59215  1.0000
  H   H21       1.0  0.07834  0.75521  0.66319  1.0000
  C   C30       1.0  0.09697  0.85063  0.34683  1.0000
  C   C31       1.0  0.11340  0.86440  0.42917  1.0000
  C   C32       1.0  0.11535  0.85938  0.58946  1.0000
  N   N4        1.0  0.10103  0.84825  0.50801  1.0000
  H   H22       1.0  0.08932  0.81309  0.65385  1.0000
  C   C33       1.0  0.13838  0.24204  0.26822  1.0000
  H   H23       1.0  0.14809  0.24214  0.20667  1.0000
  H   H24       1.0  0.16324  0.26868  0.06044  1.0000
  H   H25       1.0  0.16759  0.23614  0.01372  1.0000
  C   C34       1.0  0.14047  0.40072  0.27209  1.0000
  H   H26       1.0  0.15137  0.41153  0.21254  1.0000
  C   C35       1.0  0.16236  0.40662  0.00972  1.0000
  H   H27       1.0  0.14556  0.41081  0.05116  1.0000
  C   C36       1.0  0.15802  0.24818  0.34597  1.0000
  C   C37       1.0  0.14434  0.25080  0.42849  1.0000
  C   C38       1.0  0.14953  0.25773  0.58877  1.0000
  N   N5        1.0  0.16058  0.25457  0.50717  1.0000
  C   C39       1.0  0.14363  0.39488  0.43217  1.0000
  C   C40       1.0  0.15847  0.41310  0.35300  1.0000
  N   N6        1.0  0.15807  0.40602  0.51364  1.0000
  C   C41       1.0  0.14538  0.39002  0.59249  1.0000
  C   C42       1.0  0.13838  0.74204  0.26822  1.0000
  H   H28       1.0  0.14809  0.74214  0.20667  1.0000
  H   H29       1.0  0.16324  0.76868  0.06044  1.0000
  H   H30       1.0  0.16759  0.73614  0.01372  1.0000
  C   C43       1.0  0.14046  0.90072  0.27209  1.0000
  H   H31       1.0  0.15137  0.91153  0.21254  1.0000
  C   C44       1.0  0.16236  0.90662  0.00972  1.0000
  H   H32       1.0  0.14556  0.91081  0.05116  1.0000
  C   C45       1.0  0.15802  0.74818  0.34597  1.0000
  C   C46       1.0  0.14434  0.75080  0.42849  1.0000
  C   C47       1.0  0.14953  0.75773  0.58877  1.0000
  N   N7        1.0  0.16058  0.75457  0.50717  1.0000
  C   C48       1.0  0.14363  0.89488  0.43217  1.0000
  C   C49       1.0  0.15846  0.91310  0.35300  1.0000
  N   N8        1.0  0.15807  0.90602  0.51364  1.0000
  C   C50       1.0  0.14538  0.89002  0.59249  1.0000
  C   C51       1.0  0.48714  0.24438  0.31327  1.0000
  C   C52       1.0  0.43355  0.19135  0.33825  1.0000
  C   C53       1.0  0.46703  0.20876  0.30868  1.0000
  O   O3        1.0  0.47835  0.18903  0.27618  1.0000
  H   H33       1.0  0.48182  0.19353  0.21140  1.0000
  C   C54       1.0  0.26428  0.24454  0.31365  1.0000
  C   C55       1.0  0.31732  0.24403  0.33887  1.0000
  C   C56       1.0  0.29990  0.26008  0.30912  1.0000
  C   C57       1.0  0.24605  0.26239  0.31359  1.0000
  C   C58       1.0  0.21043  0.24687  0.30883  1.0000
  C   C59       1.0  0.19301  0.26299  0.33800  1.0000
  O   O4        1.0  0.31962  0.29111  0.27648  1.0000
  O   O5        1.0  0.19070  0.21580  0.27650  1.0000
  H   H34       1.0  0.31508  0.29004  0.21172  1.0000
  H   H35       1.0  0.19519  0.21679  0.21173  1.0000
  C   C60       1.0  0.26408  0.02152  0.31332  1.0000
  C   C61       1.0  0.26465  0.07512  0.33834  1.0000
  C   C62       1.0  0.24857  0.04163  0.30876  1.0000
  C   C63       1.0  0.24622  0.48545  0.31335  1.0000
  C   C64       1.0  0.26176  0.46535  0.30892  1.0000
  C   C65       1.0  0.24573  0.43192  0.33888  1.0000
  O   O6        1.0  0.21752  0.03032  0.27626  1.0000
  O   O7        1.0  0.29278  0.47665  0.27626  1.0000
  H   H36       1.0  0.21856  0.02685  0.21149  1.0000
  H   H37       1.0  0.29171  0.48011  0.21149  1.0000
  C   C66       1.0  0.17008  0.26024  0.00034  1.0000
  C   C67       1.0  0.26682  0.36812  0.27159  1.0000
  C   C68       1.0  0.26652  0.39826  0.26861  1.0000
  H   H38       1.0  0.26617  0.40778  0.20713  1.0000
  H   H39       1.0  0.26645  0.35712  0.21197  1.0000
  C   C69       1.0  0.25169  0.34649  0.00934  1.0000
  H   H40       1.0  0.22879  0.33877  0.04621  1.0000
  H   H41       1.0  0.27269  0.36336  0.05062  1.0000
  C   C70       1.0  0.24863  0.41125  0.00112  1.0000
  H   H42       1.0  0.23988  0.39575  0.06078  1.0000
  H   H43       1.0  0.27280  0.43266  0.01522  1.0000
  H   H44       1.0  0.16999  0.39133  0.04638  1.0000
  C   C71       1.0  0.40231  0.26521  0.27188  1.0000
  C   C72       1.0  0.37185  0.26488  0.26880  1.0000
  H   H45       1.0  0.36203  0.26457  0.20728  1.0000
  H   H46       1.0  0.41299  0.26488  0.21231  1.0000
  C   C73       1.0  0.40846  0.24974  0.00963  1.0000
  H   H47       1.0  0.39321  0.22683  0.04636  1.0000
  H   H48       1.0  0.41259  0.27072  0.05100  1.0000
  C   C74       1.0  0.34068  0.24680  0.00110  1.0000
  H   H49       1.0  0.34753  0.23827  0.06099  1.0000
  H   H50       1.0  0.34322  0.27091  0.01480  1.0000
  C   C75       1.0  0.24331  0.13890  0.27179  1.0000
  C   C76       1.0  0.24369  0.10881  0.26844  1.0000
  H   H51       1.0  0.24378  0.09918  0.20691  1.0000
  H   H52       1.0  0.24345  0.14989  0.21234  1.0000
  C   C77       1.0  0.25919  0.16035  0.00967  1.0000
  H   H53       1.0  0.28212  0.16797  0.04627  1.0000
  H   H54       1.0  0.23823  0.14348  0.05106  1.0000
  C   C78       1.0  0.26200  0.09544  0.00053  1.0000
  H   H55       1.0  0.27033  0.11068  0.06071  1.0000
  H   H56       1.0  0.23794  0.07375  0.01375  1.0000
  C   C79       1.0  0.36974  0.10637  0.27159  1.0000
  C   C80       1.0  0.39987  0.13683  0.26837  1.0000
  H   H57       1.0  0.40936  0.14663  0.20681  1.0000
  H   H58       1.0  0.35871  0.09567  0.21207  1.0000
  C   C81       1.0  0.34838  0.10029  0.00943  1.0000
  H   H59       1.0  0.34069  0.11551  0.04621  1.0000
  H   H60       1.0  0.36528  0.09622  0.05072  1.0000
  C   C82       1.0  0.41314  0.16812  0.00063  1.0000
  H   H61       1.0  0.39776  0.16132  0.06052  1.0000
  H   H62       1.0  0.43468  0.16554  0.01439  1.0000
  C   C83       1.0  0.46843  0.26079  0.32708  1.0000
  C   C84       1.0  0.43426  0.24429  0.34707  1.0000
  C   C85       1.0  0.41807  0.20985  0.35858  1.0000
  H   H63       1.0  0.47964  0.28573  0.33153  1.0000
  H   H64       1.0  0.39324  0.19754  0.37308  1.0000
  C   C86       1.0  0.24788  0.20941  0.32721  1.0000
  C   C87       1.0  0.26440  0.19179  0.34760  1.0000
  C   C88       1.0  0.29883  0.21006  0.35921  1.0000
  H   H65       1.0  0.22295  0.19566  0.33162  1.0000
  H   H66       1.0  0.31113  0.19754  0.37384  1.0000
  C   C89       1.0  0.21150  0.29700  0.35786  1.0000
  C   C90       1.0  0.24595  0.31521  0.34678  1.0000
  C   C91       1.0  0.26246  0.29751  0.32741  1.0000
  H   H67       1.0  0.19919  0.30954  0.37216  1.0000
  H   H68       1.0  0.28740  0.31121  0.33205  1.0000
  C   C92       1.0  0.29920  0.04023  0.32709  1.0000
  C   C93       1.0  0.31687  0.07440  0.34708  1.0000
  C   C94       1.0  0.29863  0.09060  0.35854  1.0000
  H   H69       1.0  0.31293  0.02902  0.33150  1.0000
  H   H70       1.0  0.31117  0.11544  0.37292  1.0000
  C   C95       1.0  0.21176  0.41644  0.35914  1.0000
  C   C96       1.0  0.19348  0.43260  0.34759  1.0000
  C   C97       1.0  0.21110  0.46672  0.32701  1.0000
  H   H71       1.0  0.19925  0.39164  0.37399  1.0000
  H   H72       1.0  0.19735  0.47792  0.33138  1.0000
  H   H73       1.0  0.19591  0.27778  0.65259  1.0000
  C   C98       1.0  0.26050  0.41171  0.34669  1.0000
  C   C99       1.0  0.25801  0.39532  0.42892  1.0000
  C   C100      1.0  0.25832  0.36512  0.43178  1.0000
  C   C101      1.0  0.26156  0.35021  0.35260  1.0000
  N   N9        1.0  0.25514  0.35070  0.51321  1.0000
  C   C102      1.0  0.25187  0.36339  0.59214  1.0000
  C   C103      1.0  0.25115  0.39336  0.58923  1.0000
  N   N10       1.0  0.25425  0.40767  0.50781  1.0000
  H   H74       1.0  0.25387  0.32468  0.66257  1.0000
  H   H75       1.0  0.23133  0.41985  0.65340  1.0000
  H   H76       1.0  0.18422  0.43057  0.66301  1.0000
  C   C104      1.0  0.35230  0.25883  0.34675  1.0000
  C   C105      1.0  0.36616  0.25630  0.42903  1.0000
  C   C106      1.0  0.39665  0.25658  0.43207  1.0000
  C   C107      1.0  0.41484  0.25987  0.35298  1.0000
  N   N11       1.0  0.40783  0.25333  0.51354  1.0000
  C   C108      1.0  0.39182  0.25003  0.59238  1.0000
  C   C109      1.0  0.36115  0.24936  0.58933  1.0000
  N   N12       1.0  0.35001  0.25251  0.50787  1.0000
  H   H77       1.0  0.43243  0.25188  0.66296  1.0000
  H   H78       1.0  0.31482  0.22931  0.65344  1.0000
  C   C110      1.0  0.24986  0.09531  0.34618  1.0000
  C   C111      1.0  0.25249  0.11166  0.42867  1.0000
  C   C112      1.0  0.25224  0.14188  0.43198  1.0000
  C   C113      1.0  0.24888  0.15676  0.35292  1.0000
  N   N13       1.0  0.25553  0.15624  0.51356  1.0000
  C   C114      1.0  0.25884  0.14347  0.59227  1.0000
  C   C115      1.0  0.25946  0.11345  0.58895  1.0000
  N   N14       1.0  0.25627  0.09921  0.50738  1.0000
  H   H79       1.0  0.25706  0.18220  0.66321  1.0000
  H   H80       1.0  0.27964  0.08726  0.65288  1.0000
  C   C116      1.0  0.41338  0.15638  0.34630  1.0000
  C   C117      1.0  0.39704  0.14256  0.42865  1.0000
  C   C118      1.0  0.36684  0.11206  0.43175  1.0000
  C   C119      1.0  0.35187  0.09383  0.35271  1.0000
  N   N15       1.0  0.35248  0.10090  0.51329  1.0000
  C   C120      1.0  0.36522  0.11692  0.59210  1.0000
  C   C121      1.0  0.39520  0.14761  0.58893  1.0000
  N   N16       1.0  0.40945  0.15874  0.50741  1.0000
  H   H81       1.0  0.32657  0.07629  0.66286  1.0000
  H   H82       1.0  0.42155  0.19397  0.65286  1.0000
  C   C122      1.0  0.48714  0.74438  0.31327  1.0000
  C   C123      1.0  0.43355  0.69135  0.33825  1.0000
  C   C124      1.0  0.46703  0.70876  0.30868  1.0000
  O   O8        1.0  0.47835  0.68903  0.27618  1.0000
  H   H83       1.0  0.48182  0.69353  0.21140  1.0000
  C   C125      1.0  0.26428  0.74454  0.31365  1.0000
  C   C126      1.0  0.31732  0.74403  0.33887  1.0000
  C   C127      1.0  0.29991  0.76008  0.30912  1.0000
  C   C128      1.0  0.24605  0.76239  0.31359  1.0000
  C   C129      1.0  0.21043  0.74687  0.30883  1.0000
  C   C130      1.0  0.19301  0.76299  0.33800  1.0000
  O   O9        1.0  0.31962  0.79111  0.27648  1.0000
  O   O10       1.0  0.19070  0.71580  0.27650  1.0000
  H   H84       1.0  0.31508  0.79004  0.21172  1.0000
  H   H85       1.0  0.19519  0.71679  0.21173  1.0000
  C   C131      1.0  0.26408  0.52152  0.31332  1.0000
  C   C132      1.0  0.26465  0.57512  0.33834  1.0000
  C   C133      1.0  0.24857  0.54163  0.30876  1.0000
  C   C134      1.0  0.24622  0.98545  0.31335  1.0000
  C   C135      1.0  0.26176  0.96535  0.30892  1.0000
  C   C136      1.0  0.24573  0.93192  0.33888  1.0000
  O   O11       1.0  0.21752  0.53032  0.27626  1.0000
  O   O12       1.0  0.29278  0.97665  0.27626  1.0000
  H   H86       1.0  0.21856  0.52685  0.21149  1.0000
  H   H87       1.0  0.29171  0.98011  0.21149  1.0000
  C   C137      1.0  0.17008  0.76024  0.00034  1.0000
  C   C138      1.0  0.26682  0.86812  0.27159  1.0000
  C   C139      1.0  0.26652  0.89826  0.26861  1.0000
  H   H88       1.0  0.26617  0.90778  0.20713  1.0000
  H   H89       1.0  0.26645  0.85712  0.21197  1.0000
  C   C140      1.0  0.25169  0.84649  0.00934  1.0000
  H   H90       1.0  0.22879  0.83878  0.04621  1.0000
  H   H91       1.0  0.27269  0.86336  0.05062  1.0000
  C   C141      1.0  0.24863  0.91125  0.00112  1.0000
  H   H92       1.0  0.23988  0.89575  0.06078  1.0000
  H   H93       1.0  0.27280  0.93266  0.01522  1.0000
  H   H94       1.0  0.16999  0.89133  0.04638  1.0000
  C   C142      1.0  0.40231  0.76521  0.27188  1.0000
  C   C143      1.0  0.37185  0.76488  0.26880  1.0000
  H   H95       1.0  0.36203  0.76457  0.20728  1.0000
  H   H96       1.0  0.41299  0.76488  0.21231  1.0000
  C   C144      1.0  0.40845  0.74974  0.00963  1.0000
  H   H97       1.0  0.39321  0.72683  0.04636  1.0000
  H   H98       1.0  0.41259  0.77072  0.05100  1.0000
  C   C145      1.0  0.34068  0.74680  0.00110  1.0000
  H   H99       1.0  0.34753  0.73827  0.06099  1.0000
  H   H100      1.0  0.34322  0.77091  0.01480  1.0000
  C   C146      1.0  0.24331  0.63890  0.27179  1.0000
  C   C147      1.0  0.24369  0.60881  0.26844  1.0000
  H   H101      1.0  0.24378  0.59918  0.20691  1.0000
  H   H102      1.0  0.24345  0.64989  0.21234  1.0000
  C   C148      1.0  0.25919  0.66034  0.00967  1.0000
  H   H103      1.0  0.28212  0.66797  0.04627  1.0000
  H   H104      1.0  0.23823  0.64348  0.05106  1.0000
  C   C149      1.0  0.26200  0.59544  0.00053  1.0000
  H   H105      1.0  0.27033  0.61069  0.06071  1.0000
  H   H106      1.0  0.23794  0.57375  0.01375  1.0000
  C   C150      1.0  0.36974  0.60637  0.27159  1.0000
  C   C151      1.0  0.39987  0.63683  0.26837  1.0000
  H   H107      1.0  0.40936  0.64663  0.20681  1.0000
  H   H108      1.0  0.35871  0.59567  0.21207  1.0000
  C   C152      1.0  0.34838  0.60030  0.00943  1.0000
  H   H109      1.0  0.34069  0.61551  0.04621  1.0000
  H   H110      1.0  0.36528  0.59622  0.05072  1.0000
  C   C153      1.0  0.41314  0.66812  0.00063  1.0000
  H   H111      1.0  0.39776  0.66132  0.06052  1.0000
  H   H112      1.0  0.43468  0.66554  0.01439  1.0000
  C   C154      1.0  0.46843  0.76079  0.32708  1.0000
  C   C155      1.0  0.43426  0.74428  0.34707  1.0000
  C   C156      1.0  0.41807  0.70985  0.35858  1.0000
  H   H113      1.0  0.47964  0.78573  0.33153  1.0000
  H   H114      1.0  0.39324  0.69754  0.37308  1.0000
  C   C157      1.0  0.24788  0.70941  0.32721  1.0000
  C   C158      1.0  0.26440  0.69179  0.34760  1.0000
  C   C159      1.0  0.29883  0.71006  0.35921  1.0000
  H   H115      1.0  0.22294  0.69566  0.33162  1.0000
  H   H116      1.0  0.31113  0.69754  0.37384  1.0000
  C   C160      1.0  0.21150  0.79700  0.35786  1.0000
  C   C161      1.0  0.24595  0.81521  0.34678  1.0000
  C   C162      1.0  0.26246  0.79751  0.32741  1.0000
  H   H117      1.0  0.19919  0.80954  0.37216  1.0000
  H   H118      1.0  0.28740  0.81121  0.33205  1.0000
  C   C163      1.0  0.29920  0.54024  0.32709  1.0000
  C   C164      1.0  0.31687  0.57440  0.34708  1.0000
  C   C165      1.0  0.29863  0.59060  0.35854  1.0000
  H   H119      1.0  0.31293  0.52902  0.33150  1.0000
  H   H120      1.0  0.31117  0.61544  0.37292  1.0000
  C   C166      1.0  0.21176  0.91644  0.35914  1.0000
  C   C167      1.0  0.19348  0.93260  0.34759  1.0000
  C   C168      1.0  0.21110  0.96672  0.32701  1.0000
  H   H121      1.0  0.19925  0.89164  0.37399  1.0000
  H   H122      1.0  0.19735  0.97792  0.33138  1.0000
  H   H123      1.0  0.19591  0.77778  0.65259  1.0000
  C   C169      1.0  0.26051  0.91171  0.34669  1.0000
  C   C170      1.0  0.25801  0.89532  0.42892  1.0000
  C   C171      1.0  0.25832  0.86512  0.43178  1.0000
  C   C172      1.0  0.26155  0.85021  0.35260  1.0000
  N   N17       1.0  0.25514  0.85071  0.51321  1.0000
  C   C173      1.0  0.25187  0.86338  0.59214  1.0000
  C   C174      1.0  0.25115  0.89336  0.58923  1.0000
  N   N18       1.0  0.25425  0.90767  0.50781  1.0000
  H   H124      1.0  0.25387  0.82468  0.66257  1.0000
  H   H125      1.0  0.23133  0.91985  0.65340  1.0000
  H   H126      1.0  0.18422  0.93057  0.66301  1.0000
  C   C175      1.0  0.35230  0.75884  0.34675  1.0000
  C   C176      1.0  0.36616  0.75630  0.42903  1.0000
  C   C177      1.0  0.39665  0.75658  0.43207  1.0000
  C   C178      1.0  0.41484  0.75987  0.35298  1.0000
  N   N19       1.0  0.40783  0.75334  0.51354  1.0000
  C   C179      1.0  0.39182  0.75003  0.59238  1.0000
  C   C180      1.0  0.36115  0.74936  0.58933  1.0000
  N   N20       1.0  0.35001  0.75251  0.50787  1.0000
  H   H127      1.0  0.43243  0.75188  0.66296  1.0000
  H   H128      1.0  0.31482  0.72931  0.65344  1.0000
  C   C181      1.0  0.24986  0.59531  0.34618  1.0000
  C   C182      1.0  0.25249  0.61166  0.42867  1.0000
  C   C183      1.0  0.25224  0.64188  0.43198  1.0000
  C   C184      1.0  0.24888  0.65677  0.35292  1.0000
  N   N21       1.0  0.25553  0.65624  0.51356  1.0000
  C   C185      1.0  0.25884  0.64347  0.59227  1.0000
  C   C186      1.0  0.25946  0.61345  0.58895  1.0000
  N   N22       1.0  0.25627  0.59921  0.50738  1.0000
  H   H129      1.0  0.25706  0.68220  0.66321  1.0000
  H   H130      1.0  0.27964  0.58727  0.65288  1.0000
  C   C187      1.0  0.41338  0.65638  0.34630  1.0000
  C   C188      1.0  0.39704  0.64255  0.42865  1.0000
  C   C189      1.0  0.36684  0.61206  0.43175  1.0000
  C   C190      1.0  0.35187  0.59383  0.35271  1.0000
  N   N23       1.0  0.35248  0.60090  0.51329  1.0000
  C   C191      1.0  0.36522  0.61692  0.59210  1.0000
  C   C192      1.0  0.39520  0.64761  0.58893  1.0000
  N   N24       1.0  0.40945  0.65874  0.50741  1.0000
  H   H131      1.0  0.32657  0.57629  0.66286  1.0000
  H   H132      1.0  0.42155  0.69397  0.65286  1.0000
  C   C193      1.0  0.98714  0.24438  0.31327  1.0000
  C   C194      1.0  0.93355  0.19135  0.33825  1.0000
  C   C195      1.0  0.96703  0.20876  0.30868  1.0000
  C   C196      1.0  0.52323  0.26261  0.31338  1.0000
  C   C197      1.0  0.54332  0.29823  0.30905  1.0000
  C   C198      1.0  0.57673  0.31564  0.33918  1.0000
  O   O13       1.0  0.97835  0.18903  0.27618  1.0000
  O   O14       1.0  0.53203  0.31797  0.27635  1.0000
  H   H133      1.0  0.98182  0.19353  0.21140  1.0000
  H   H134      1.0  0.52858  0.31344  0.21159  1.0000
  C   C199      1.0  0.76428  0.24454  0.31365  1.0000
  C   C200      1.0  0.81732  0.24403  0.33887  1.0000
  C   C201      1.0  0.79990  0.26008  0.30912  1.0000
  C   C202      1.0  0.74605  0.26239  0.31359  1.0000
  C   C203      1.0  0.71043  0.24687  0.30883  1.0000
  C   C204      1.0  0.69300  0.26299  0.33800  1.0000
  O   O15       1.0  0.81962  0.29111  0.27648  1.0000
  O   O16       1.0  0.69070  0.21580  0.27650  1.0000
  H   H135      1.0  0.81508  0.29004  0.21172  1.0000
  H   H136      1.0  0.69519  0.21679  0.21173  1.0000
  C   C205      1.0  0.76408  0.02152  0.31332  1.0000
  C   C206      1.0  0.76465  0.07512  0.33834  1.0000
  C   C207      1.0  0.74857  0.04163  0.30876  1.0000
  C   C208      1.0  0.74622  0.48545  0.31335  1.0000
  C   C209      1.0  0.76176  0.46535  0.30892  1.0000
  C   C210      1.0  0.74573  0.43192  0.33888  1.0000
  O   O17       1.0  0.71752  0.03032  0.27626  1.0000
  O   O18       1.0  0.79278  0.47665  0.27626  1.0000
  H   H137      1.0  0.71856  0.02685  0.21149  1.0000
  H   H138      1.0  0.79171  0.48011  0.21149  1.0000
  C   C211      1.0  0.60790  0.24165  0.27167  1.0000
  C   C212      1.0  0.63838  0.24204  0.26822  1.0000
  H   H139      1.0  0.64809  0.24214  0.20667  1.0000
  H   H140      1.0  0.59705  0.24180  0.21224  1.0000
  C   C213      1.0  0.60234  0.25735  0.00959  1.0000
  H   H141      1.0  0.61762  0.28026  0.04628  1.0000
  H   H142      1.0  0.59826  0.23637  0.05089  1.0000
  C   C214      1.0  0.67007  0.26024  0.00034  1.0000
  H   H143      1.0  0.66324  0.26868  0.06044  1.0000
  H   H144      1.0  0.66759  0.23614  0.01372  1.0000
  C   C215      1.0  0.76682  0.36812  0.27159  1.0000
  C   C216      1.0  0.76652  0.39826  0.26861  1.0000
  H   H145      1.0  0.76618  0.40778  0.20713  1.0000
  H   H146      1.0  0.76645  0.35712  0.21197  1.0000
  C   C217      1.0  0.75169  0.34649  0.00934  1.0000
  H   H147      1.0  0.72879  0.33877  0.04621  1.0000
  H   H148      1.0  0.77268  0.36336  0.05062  1.0000
  C   C218      1.0  0.74863  0.41125  0.00112  1.0000
  H   H149      1.0  0.73987  0.39575  0.06078  1.0000
  H   H150      1.0  0.77280  0.43266  0.01522  1.0000
  C   C219      1.0  0.64046  0.40072  0.27209  1.0000
  C   C220      1.0  0.61035  0.37026  0.26900  1.0000
  H   H151      1.0  0.60065  0.36051  0.20754  1.0000
  H   H152      1.0  0.65137  0.41153  0.21254  1.0000
  C   C221      1.0  0.66236  0.40662  0.00972  1.0000
  H   H153      1.0  0.66999  0.39133  0.04638  1.0000
  H   H154      1.0  0.64556  0.41081  0.05116  1.0000
  C   C222      1.0  0.59742  0.33891  0.00122  1.0000
  H   H155      1.0  0.61268  0.34595  0.06137  1.0000
  H   H156      1.0  0.57568  0.34120  0.01434  1.0000
  C   C223      1.0  0.90231  0.26521  0.27188  1.0000
  C   C224      1.0  0.87185  0.26488  0.26880  1.0000
  H   H157      1.0  0.86203  0.26457  0.20728  1.0000
  H   H158      1.0  0.91299  0.26488  0.21231  1.0000
  C   C225      1.0  0.90846  0.24974  0.00963  1.0000
  H   H159      1.0  0.89321  0.22683  0.04636  1.0000
  H   H160      1.0  0.91259  0.27072  0.05100  1.0000
  C   C226      1.0  0.84068  0.24680  0.00110  1.0000
  H   H161      1.0  0.84753  0.23827  0.06099  1.0000
  H   H162      1.0  0.84322  0.27091  0.01480  1.0000
  C   C227      1.0  0.74331  0.13890  0.27179  1.0000
  C   C228      1.0  0.74369  0.10881  0.26844  1.0000
  H   H163      1.0  0.74378  0.09918  0.20691  1.0000
  H   H164      1.0  0.74345  0.14989  0.21234  1.0000
  C   C229      1.0  0.75919  0.16035  0.00967  1.0000
  H   H165      1.0  0.78212  0.16797  0.04627  1.0000
  H   H166      1.0  0.73823  0.14348  0.05106  1.0000
  C   C230      1.0  0.76200  0.09544  0.00053  1.0000
  H   H167      1.0  0.77033  0.11068  0.06071  1.0000
  H   H168      1.0  0.73794  0.07375  0.01375  1.0000
  C   C231      1.0  0.86974  0.10637  0.27159  1.0000
  C   C232      1.0  0.89987  0.13683  0.26837  1.0000
  H   H169      1.0  0.90936  0.14663  0.20681  1.0000
  H   H170      1.0  0.85871  0.09567  0.21207  1.0000
  C   C233      1.0  0.84838  0.10029  0.00943  1.0000
  H   H171      1.0  0.84069  0.11551  0.04621  1.0000
  H   H172      1.0  0.86528  0.09622  0.05072  1.0000
  C   C234      1.0  0.91315  0.16812  0.00063  1.0000
  H   H173      1.0  0.89776  0.16132  0.06052  1.0000
  H   H174      1.0  0.93468  0.16554  0.01439  1.0000
  C   C235      1.0  0.96843  0.26079  0.32708  1.0000
  C   C236      1.0  0.93426  0.24429  0.34707  1.0000
  C   C237      1.0  0.91807  0.20985  0.35858  1.0000
  H   H175      1.0  0.97964  0.28573  0.33153  1.0000
  H   H176      1.0  0.89324  0.19754  0.37308  1.0000
  C   C238      1.0  0.59220  0.29713  0.35939  1.0000
  C   C239      1.0  0.57605  0.26270  0.34773  1.0000
  C   C240      1.0  0.54195  0.24620  0.32698  1.0000
  H   H177      1.0  0.61701  0.30942  0.37421  1.0000
  H   H178      1.0  0.53076  0.22126  0.33115  1.0000
  C   C241      1.0  0.74789  0.20941  0.32721  1.0000
  C   C242      1.0  0.76440  0.19179  0.34760  1.0000
  C   C243      1.0  0.79883  0.21006  0.35921  1.0000
  H   H179      1.0  0.72294  0.19566  0.33162  1.0000
  H   H180      1.0  0.81113  0.19754  0.37384  1.0000
  C   C244      1.0  0.71150  0.29700  0.35786  1.0000
  C   C245      1.0  0.74595  0.31521  0.34678  1.0000
  C   C246      1.0  0.76246  0.29751  0.32741  1.0000
  H   H181      1.0  0.69919  0.30954  0.37216  1.0000
  H   H182      1.0  0.78740  0.31121  0.33205  1.0000
  C   C247      1.0  0.79920  0.04023  0.32709  1.0000
  C   C248      1.0  0.81687  0.07440  0.34708  1.0000
  C   C249      1.0  0.79863  0.09060  0.35854  1.0000
  H   H183      1.0  0.81293  0.02902  0.33150  1.0000
  H   H184      1.0  0.81117  0.11544  0.37292  1.0000
  C   C250      1.0  0.71176  0.41644  0.35914  1.0000
  C   C251      1.0  0.69348  0.43260  0.34759  1.0000
  C   C252      1.0  0.71110  0.46672  0.32701  1.0000
  H   H185      1.0  0.69925  0.39164  0.37399  1.0000
  H   H186      1.0  0.69735  0.47792  0.33138  1.0000
  C   C253      1.0  0.65802  0.24818  0.34597  1.0000
  C   C254      1.0  0.64434  0.25080  0.42849  1.0000
  C   C255      1.0  0.61387  0.25055  0.43182  1.0000
  C   C256      1.0  0.59558  0.24720  0.35280  1.0000
  N   N25       1.0  0.60279  0.25378  0.51344  1.0000
  C   C257      1.0  0.61887  0.25707  0.59215  1.0000
  C   C258      1.0  0.64953  0.25773  0.58877  1.0000
  N   N26       1.0  0.66058  0.25457  0.50717  1.0000
  H   H187      1.0  0.57834  0.25520  0.66319  1.0000
  H   H188      1.0  0.69591  0.27778  0.65259  1.0000
  C   C259      1.0  0.76050  0.41171  0.34669  1.0000
  C   C260      1.0  0.75801  0.39532  0.42892  1.0000
  C   C261      1.0  0.75832  0.36512  0.43178  1.0000
  C   C262      1.0  0.76156  0.35021  0.35260  1.0000
  N   N27       1.0  0.75514  0.35070  0.51321  1.0000
  C   C263      1.0  0.75187  0.36339  0.59214  1.0000
  C   C264      1.0  0.75115  0.39336  0.58923  1.0000
  N   N28       1.0  0.75425  0.40767  0.50781  1.0000
  H   H189      1.0  0.75387  0.32468  0.66257  1.0000
  H   H190      1.0  0.73133  0.41985  0.65340  1.0000
  C   C265      1.0  0.59697  0.35063  0.34683  1.0000
  C   C266      1.0  0.61340  0.36440  0.42917  1.0000
  C   C267      1.0  0.64363  0.39488  0.43217  1.0000
  C   C268      1.0  0.65847  0.41310  0.35300  1.0000
  N   N29       1.0  0.65807  0.40602  0.51364  1.0000
  C   C269      1.0  0.64538  0.39002  0.59249  1.0000
  C   C270      1.0  0.61535  0.35938  0.58946  1.0000
  N   N30       1.0  0.60103  0.34825  0.50801  1.0000
  H   H191      1.0  0.68422  0.43057  0.66301  1.0000
  H   H192      1.0  0.58933  0.31309  0.65385  1.0000
  C   C271      1.0  0.85230  0.25883  0.34675  1.0000
  C   C272      1.0  0.86616  0.25630  0.42903  1.0000
  C   C273      1.0  0.89665  0.25658  0.43207  1.0000
  C   C274      1.0  0.91484  0.25987  0.35298  1.0000
  N   N31       1.0  0.90783  0.25333  0.51354  1.0000
  C   C275      1.0  0.89182  0.25003  0.59238  1.0000
  C   C276      1.0  0.86116  0.24936  0.58933  1.0000
  N   N32       1.0  0.85001  0.25251  0.50787  1.0000
  H   H193      1.0  0.93243  0.25188  0.66296  1.0000
  H   H194      1.0  0.81482  0.22931  0.65344  1.0000
  C   C277      1.0  0.74986  0.09531  0.34618  1.0000
  C   C278      1.0  0.75249  0.11166  0.42867  1.0000
  C   C279      1.0  0.75224  0.14188  0.43198  1.0000
  C   C280      1.0  0.74888  0.15676  0.35292  1.0000
  N   N33       1.0  0.75553  0.15624  0.51356  1.0000
  C   C281      1.0  0.75884  0.14347  0.59227  1.0000
  C   C282      1.0  0.75946  0.11345  0.58895  1.0000
  N   N34       1.0  0.75627  0.09921  0.50738  1.0000
  H   H195      1.0  0.75706  0.18220  0.66321  1.0000
  H   H196      1.0  0.77964  0.08726  0.65288  1.0000
  C   C283      1.0  0.91338  0.15638  0.34630  1.0000
  C   C284      1.0  0.89704  0.14256  0.42865  1.0000
  C   C285      1.0  0.86685  0.11206  0.43175  1.0000
  C   C286      1.0  0.85187  0.09383  0.35271  1.0000
  N   N35       1.0  0.85249  0.10090  0.51329  1.0000
  C   C287      1.0  0.86523  0.11692  0.59210  1.0000
  C   C288      1.0  0.89520  0.14761  0.58893  1.0000
  N   N36       1.0  0.90945  0.15874  0.50741  1.0000
  H   H197      1.0  0.82657  0.07629  0.66286  1.0000
  H   H198      1.0  0.92155  0.19397  0.65286  1.0000
  C   C289      1.0  0.98714  0.74438  0.31327  1.0000
  C   C290      1.0  0.93355  0.69135  0.33825  1.0000
  C   C291      1.0  0.96703  0.70876  0.30868  1.0000
  C   C292      1.0  0.52322  0.76261  0.31338  1.0000
  C   C293      1.0  0.54332  0.79824  0.30905  1.0000
  C   C294      1.0  0.57674  0.81564  0.33918  1.0000
  O   O19       1.0  0.97835  0.68903  0.27618  1.0000
  O   O20       1.0  0.53203  0.81797  0.27635  1.0000
  H   H199      1.0  0.98182  0.69353  0.21140  1.0000
  H   H200      1.0  0.52858  0.81344  0.21159  1.0000
  C   C295      1.0  0.76428  0.74454  0.31365  1.0000
  C   C296      1.0  0.81732  0.74403  0.33887  1.0000
  C   C297      1.0  0.79991  0.76008  0.30912  1.0000
  C   C298      1.0  0.74605  0.76239  0.31359  1.0000
  C   C299      1.0  0.71043  0.74687  0.30883  1.0000
  C   C300      1.0  0.69301  0.76299  0.33800  1.0000
  O   O21       1.0  0.81962  0.79111  0.27648  1.0000
  O   O22       1.0  0.69070  0.71580  0.27650  1.0000
  H   H201      1.0  0.81508  0.79004  0.21172  1.0000
  H   H202      1.0  0.69519  0.71679  0.21173  1.0000
  C   C301      1.0  0.76408  0.52152  0.31332  1.0000
  C   C302      1.0  0.76465  0.57512  0.33834  1.0000
  C   C303      1.0  0.74857  0.54163  0.30876  1.0000
  C   C304      1.0  0.74622  0.98545  0.31335  1.0000
  C   C305      1.0  0.76176  0.96535  0.30892  1.0000
  C   C306      1.0  0.74573  0.93192  0.33888  1.0000
  O   O23       1.0  0.71752  0.53032  0.27626  1.0000
  O   O24       1.0  0.79278  0.97665  0.27626  1.0000
  H   H203      1.0  0.71856  0.52685  0.21149  1.0000
  H   H204      1.0  0.79171  0.98011  0.21149  1.0000
  C   C307      1.0  0.60790  0.74165  0.27167  1.0000
  C   C308      1.0  0.63838  0.74204  0.26822  1.0000
  H   H205      1.0  0.64809  0.74214  0.20667  1.0000
  H   H206      1.0  0.59705  0.74180  0.21224  1.0000
  C   C309      1.0  0.60234  0.75735  0.00959  1.0000
  H   H207      1.0  0.61762  0.78026  0.04628  1.0000
  H   H208      1.0  0.59826  0.73637  0.05089  1.0000
  C   C310      1.0  0.67008  0.76024  0.00034  1.0000
  H   H209      1.0  0.66324  0.76868  0.06044  1.0000
  H   H210      1.0  0.66759  0.73614  0.01372  1.0000
  C   C311      1.0  0.76682  0.86812  0.27159  1.0000
  C   C312      1.0  0.76652  0.89826  0.26861  1.0000
  H   H211      1.0  0.76617  0.90778  0.20713  1.0000
  H   H212      1.0  0.76645  0.85712  0.21197  1.0000
  C   C313      1.0  0.75169  0.84649  0.00934  1.0000
  H   H213      1.0  0.72879  0.83878  0.04621  1.0000
  H   H214      1.0  0.77269  0.86336  0.05062  1.0000
  C   C314      1.0  0.74863  0.91125  0.00112  1.0000
  H   H215      1.0  0.73987  0.89575  0.06078  1.0000
  H   H216      1.0  0.77280  0.93266  0.01522  1.0000
  C   C315      1.0  0.64046  0.90072  0.27209  1.0000
  C   C316      1.0  0.61035  0.87026  0.26900  1.0000
  H   H217      1.0  0.60065  0.86051  0.20754  1.0000
  H   H218      1.0  0.65137  0.91153  0.21254  1.0000
  C   C317      1.0  0.66236  0.90662  0.00972  1.0000
  H   H219      1.0  0.66999  0.89133  0.04638  1.0000
  H   H220      1.0  0.64556  0.91081  0.05116  1.0000
  C   C318      1.0  0.59742  0.83890  0.00122  1.0000
  H   H221      1.0  0.61268  0.84595  0.06137  1.0000
  H   H222      1.0  0.57568  0.84121  0.01434  1.0000
  C   C319      1.0  0.90231  0.76521  0.27188  1.0000
  C   C320      1.0  0.87185  0.76488  0.26880  1.0000
  H   H223      1.0  0.86203  0.76457  0.20728  1.0000
  H   H224      1.0  0.91299  0.76488  0.21231  1.0000
  C   C321      1.0  0.90845  0.74974  0.00963  1.0000
  H   H225      1.0  0.89321  0.72683  0.04636  1.0000
  H   H226      1.0  0.91259  0.77072  0.05100  1.0000
  C   C322      1.0  0.84068  0.74680  0.00110  1.0000
  H   H227      1.0  0.84753  0.73827  0.06099  1.0000
  H   H228      1.0  0.84322  0.77091  0.01480  1.0000
  C   C323      1.0  0.74331  0.63890  0.27179  1.0000
  C   C324      1.0  0.74369  0.60881  0.26844  1.0000
  H   H229      1.0  0.74378  0.59918  0.20691  1.0000
  H   H230      1.0  0.74345  0.64989  0.21234  1.0000
  C   C325      1.0  0.75919  0.66034  0.00967  1.0000
  H   H231      1.0  0.78212  0.66797  0.04627  1.0000
  H   H232      1.0  0.73823  0.64348  0.05106  1.0000
  C   C326      1.0  0.76200  0.59544  0.00053  1.0000
  H   H233      1.0  0.77033  0.61069  0.06071  1.0000
  H   H234      1.0  0.73794  0.57375  0.01375  1.0000
  C   C327      1.0  0.86974  0.60637  0.27159  1.0000
  C   C328      1.0  0.89987  0.63683  0.26837  1.0000
  H   H235      1.0  0.90935  0.64663  0.20681  1.0000
  H   H236      1.0  0.85871  0.59567  0.21207  1.0000
  C   C329      1.0  0.84838  0.60030  0.00943  1.0000
  H   H237      1.0  0.84069  0.61551  0.04621  1.0000
  H   H238      1.0  0.86528  0.59622  0.05072  1.0000
  C   C330      1.0  0.91314  0.66812  0.00063  1.0000
  H   H239      1.0  0.89776  0.66132  0.06052  1.0000
  H   H240      1.0  0.93468  0.66554  0.01439  1.0000
  C   C331      1.0  0.96843  0.76079  0.32708  1.0000
  C   C332      1.0  0.93426  0.74428  0.34707  1.0000
  C   C333      1.0  0.91807  0.70985  0.35858  1.0000
  H   H241      1.0  0.97964  0.78573  0.33153  1.0000
  H   H242      1.0  0.89324  0.69754  0.37308  1.0000
  C   C334      1.0  0.59220  0.79713  0.35939  1.0000
  C   C335      1.0  0.57605  0.76270  0.34773  1.0000
  C   C336      1.0  0.54195  0.74620  0.32698  1.0000
  H   H243      1.0  0.61701  0.80942  0.37421  1.0000
  H   H244      1.0  0.53076  0.72126  0.33115  1.0000
  C   C337      1.0  0.74789  0.70941  0.32721  1.0000
  C   C338      1.0  0.76440  0.69179  0.34760  1.0000
  C   C339      1.0  0.79883  0.71006  0.35921  1.0000
  H   H245      1.0  0.72294  0.69566  0.33162  1.0000
  H   H246      1.0  0.81113  0.69754  0.37384  1.0000
  C   C340      1.0  0.71150  0.79700  0.35786  1.0000
  C   C341      1.0  0.74595  0.81521  0.34678  1.0000
  C   C342      1.0  0.76246  0.79751  0.32741  1.0000
  H   H247      1.0  0.69919  0.80954  0.37216  1.0000
  H   H248      1.0  0.78740  0.81121  0.33205  1.0000
  C   C343      1.0  0.79920  0.54024  0.32709  1.0000
  C   C344      1.0  0.81687  0.57440  0.34708  1.0000
  C   C345      1.0  0.79863  0.59060  0.35854  1.0000
  H   H249      1.0  0.81293  0.52902  0.33150  1.0000
  H   H250      1.0  0.81117  0.61544  0.37292  1.0000
  C   C346      1.0  0.71175  0.91644  0.35914  1.0000
  C   C347      1.0  0.69348  0.93260  0.34759  1.0000
  C   C348      1.0  0.71109  0.96672  0.32701  1.0000
  H   H251      1.0  0.69925  0.89164  0.37399  1.0000
  H   H252      1.0  0.69735  0.97792  0.33138  1.0000
  C   C349      1.0  0.65802  0.74818  0.34597  1.0000
  C   C350      1.0  0.64434  0.75080  0.42849  1.0000
  C   C351      1.0  0.61387  0.75054  0.43182  1.0000
  C   C352      1.0  0.59558  0.74721  0.35280  1.0000
  N   N37       1.0  0.60279  0.75378  0.51344  1.0000
  C   C353      1.0  0.61887  0.75707  0.59215  1.0000
  C   C354      1.0  0.64953  0.75773  0.58877  1.0000
  N   N38       1.0  0.66058  0.75457  0.50717  1.0000
  H   H253      1.0  0.57834  0.75521  0.66319  1.0000
  H   H254      1.0  0.69591  0.77778  0.65259  1.0000
  C   C355      1.0  0.76051  0.91171  0.34669  1.0000
  C   C356      1.0  0.75801  0.89532  0.42892  1.0000
  C   C357      1.0  0.75832  0.86512  0.43178  1.0000
  C   C358      1.0  0.76156  0.85021  0.35260  1.0000
  N   N39       1.0  0.75514  0.85071  0.51321  1.0000
  C   C359      1.0  0.75187  0.86338  0.59214  1.0000
  C   C360      1.0  0.75115  0.89336  0.58923  1.0000
  N   N40       1.0  0.75425  0.90767  0.50781  1.0000
  H   H255      1.0  0.75387  0.82468  0.66257  1.0000
  H   H256      1.0  0.73133  0.91985  0.65340  1.0000
  C   C361      1.0  0.59697  0.85063  0.34683  1.0000
  C   C362      1.0  0.61340  0.86440  0.42917  1.0000
  C   C363      1.0  0.64363  0.89488  0.43217  1.0000
  C   C364      1.0  0.65846  0.91310  0.35300  1.0000
  N   N41       1.0  0.65807  0.90602  0.51364  1.0000
  C   C365      1.0  0.64538  0.89002  0.59249  1.0000
  C   C366      1.0  0.61535  0.85938  0.58946  1.0000
  N   N42       1.0  0.60103  0.84825  0.50801  1.0000
  H   H257      1.0  0.68422  0.93057  0.66301  1.0000
  H   H258      1.0  0.58932  0.81309  0.65385  1.0000
  C   C367      1.0  0.85230  0.75884  0.34675  1.0000
  C   C368      1.0  0.86616  0.75630  0.42903  1.0000
  C   C369      1.0  0.89665  0.75658  0.43207  1.0000
  C   C370      1.0  0.91484  0.75987  0.35298  1.0000
  N   N43       1.0  0.90783  0.75334  0.51354  1.0000
  C   C371      1.0  0.89182  0.75003  0.59238  1.0000
  C   C372      1.0  0.86115  0.74936  0.58933  1.0000
  N   N44       1.0  0.85001  0.75251  0.50787  1.0000
  H   H259      1.0  0.93243  0.75188  0.66296  1.0000
  H   H260      1.0  0.81482  0.72931  0.65344  1.0000
  C   C373      1.0  0.74986  0.59531  0.34618  1.0000
  C   C374      1.0  0.75249  0.61166  0.42867  1.0000
  C   C375      1.0  0.75224  0.64188  0.43198  1.0000
  C   C376      1.0  0.74887  0.65677  0.35292  1.0000
  N   N45       1.0  0.75553  0.65624  0.51356  1.0000
  C   C377      1.0  0.75884  0.64347  0.59227  1.0000
  C   C378      1.0  0.75946  0.61345  0.58895  1.0000
  N   N46       1.0  0.75627  0.59921  0.50738  1.0000
  H   H261      1.0  0.75706  0.68220  0.66321  1.0000
  H   H262      1.0  0.77964  0.58727  0.65288  1.0000
  C   C379      1.0  0.91338  0.65638  0.34630  1.0000
  C   C380      1.0  0.89704  0.64255  0.42865  1.0000
  C   C381      1.0  0.86684  0.61206  0.43175  1.0000
  C   C382      1.0  0.85187  0.59383  0.35271  1.0000
  N   N47       1.0  0.85248  0.60090  0.51329  1.0000
  C   C383      1.0  0.86522  0.61692  0.59210  1.0000
  C   C384      1.0  0.89520  0.64761  0.58893  1.0000
  N   N48       1.0  0.90945  0.65874  0.50741  1.0000
  H   H263      1.0  0.82657  0.57629  0.66286  1.0000
  H   H264      1.0  0.92155  0.69397  0.65286  1.0000
