data_image0
_chemical_formula_structural       C3OH2C3OH2C3OH2C3OH2C3OH2C3OH2C3HOHC3HOHC3HOHC3HOHC3HOHC3HOHC3HOHC3HOHC3HOHC3HOHC3HOHC3HOHC3OH2C3OH2C3OH2C3OH2C3OH2C3OH2C3HOHC3HOHC3HOHC3HOHC3HOHC3HOHC3HOHC3HOHC3HOHC3HOHC3HOHC3HOHC3OH2C3OH2C3OH2C3OH2C3OH2C3OH2C3HOHC3HOHC3HOHC3HOHC3HOHC3HOHC3OH2C3OH2C3OH2C3OH2C3OH2C3OH2CNCNCNCNCNCNCNCNCNCNCNCNCNCNCNCNCNCNCNCNCNCNCNCNCNCNCNCNCNCNCNCNCNCNCNCNCNCNCNCNCNCNCNCNCNCNCNCNCNCNCNCNCNCNCNCNCNCNCNCNCNCNCNCNCNCNCNCNCNCNCNCNCNCNCNCNCNCNCNCNCNCNCNCNCNCNCNCNCNCNCNCNCNCNCNCNCNCNCNCNCNCNCNCNCNCNCNCNC3HOHC3HOHC3HOHC3HOHC3HOHC3HOHC3OH2C3OH2C3OH2C3OH2C3OH2C3OH2C3OH2C3OH2C3OH2C3OH2C3OH2C3OH2C3HOHC3HOHC3HOHC3HOHC3HOHC3HOHC3OH2C3OH2C3OH2C3OH2C3OH2C3OH2C3OH2C3OH2C3OH2C3OH2C3OH2C3OH2C3HOHC3HOHC3HOHC3HOHC3HOHC3HOHC3OH2C3OH2C3OH2C3OH2C3OH2C3OH2C3HOHC3HOHC3HOHC3HOHC3HOHC3HOH
_chemical_formula_sum              "C432 O108 H216 N108"
_cell_length_a       67.1781
_cell_length_b       67.178
_cell_length_c       14.9082
_cell_angle_alpha    90
_cell_angle_beta     90
_cell_angle_gamma    120

_space_group_name_H-M_alt    "P 1"
_space_group_IT_number       1

loop_
  _space_group_symop_operation_xyz
  'x, y, z'

loop_
  _atom_site_type_symbol
  _atom_site_label
  _atom_site_symmetry_multiplicity
  _atom_site_fract_x
  _atom_site_fract_y
  _atom_site_fract_z
  _atom_site_occupancy
  C   C1        1.0  0.12756  0.35172  0.40467  1.0000
  C   C2        1.0  0.12737  0.33040  0.40492  1.0000
  C   C3        1.0  0.14641  0.32904  0.43929  1.0000
  O   O1        1.0  0.11024  0.31233  0.35972  1.0000
  H   H1        1.0  0.11519  0.35282  0.36866  1.0000
  H   H2        1.0  0.11488  0.31430  0.29628  1.0000
  C   C4        1.0  0.65875  0.77902  0.40440  1.0000
  C   C5        1.0  0.68011  0.80010  0.40244  1.0000
  C   C6        1.0  0.68152  0.82081  0.43329  1.0000
  O   O2        1.0  0.69809  0.80064  0.35806  1.0000
  H   H3        1.0  0.65763  0.76522  0.37086  1.0000
  H   H4        1.0  0.69605  0.80284  0.29418  1.0000
  C   C7        1.0  0.23079  0.88186  0.40395  1.0000
  C   C8        1.0  0.20975  0.88223  0.40196  1.0000
  C   C9        1.0  0.18905  0.86309  0.43368  1.0000
  O   O3        1.0  0.20923  0.89957  0.35672  1.0000
  H   H5        1.0  0.24456  0.89435  0.36962  1.0000
  H   H6        1.0  0.20693  0.89514  0.29304  1.0000
  C   C10       1.0  0.88413  0.65489  0.39672  1.0000
  C   C11       1.0  0.88451  0.67632  0.39512  1.0000
  C   C12       1.0  0.86532  0.67786  0.42647  1.0000
  O   O4        1.0  0.90194  0.69429  0.35072  1.0000
  H   H7        1.0  0.89675  0.65371  0.36294  1.0000
  H   H8        1.0  0.89761  0.69236  0.28694  1.0000
  C   C13       1.0  0.35130  0.23012  0.40393  1.0000
  C   C14       1.0  0.32997  0.20900  0.40377  1.0000
  C   C15       1.0  0.32856  0.18854  0.43776  1.0000
  O   O5        1.0  0.31194  0.20811  0.35854  1.0000
  H   H9        1.0  0.35244  0.24365  0.36824  1.0000
  H   H10       1.0  0.31390  0.20544  0.29510  1.0000
  C   C16       1.0  0.76857  0.11538  0.36231  1.0000
  C   C17       1.0  0.78766  0.11317  0.33660  1.0000
  C   C18       1.0  0.80840  0.12405  0.38633  1.0000
  O   O6        1.0  0.78626  0.10148  0.25994  1.0000
  H   H11       1.0  0.75466  0.10859  0.32035  1.0000
  H   H12       1.0  0.78905  0.11209  0.20982  1.0000
  C   C19       1.0  0.32754  0.12719  0.24465  1.0000
  C   C20       1.0  0.34958  0.13140  0.21943  1.0000
  C   C21       1.0  0.36272  0.12594  0.27855  1.0000
  H   H13       1.0  0.31934  0.13286  0.20264  1.0000
  O   O7        1.0  0.35805  0.14031  0.13660  1.0000
  H   H14       1.0  0.35797  0.15484  0.13055  1.0000
  C   C22       1.0  0.80655  0.67688  0.22782  1.0000
  C   C23       1.0  0.78886  0.65445  0.20645  1.0000
  C   C24       1.0  0.76969  0.64243  0.26433  1.0000
  H   H15       1.0  0.82086  0.68422  0.18779  1.0000
  O   O8        1.0  0.79017  0.64458  0.12824  1.0000
  H   H16       1.0  0.80458  0.64414  0.12916  1.0000
  C   C25       1.0  0.84778  0.19032  0.20070  1.0000
  C   C26       1.0  0.84669  0.21063  0.19854  1.0000
  C   C27       1.0  0.86362  0.23084  0.24249  1.0000
  H   H17       1.0  0.83441  0.17594  0.17250  1.0000
  O   O9        1.0  0.82881  0.21008  0.15249  1.0000
  H   H18       1.0  0.81457  0.19979  0.18524  1.0000
  C   C28       1.0  0.68030  0.87780  0.22998  1.0000
  C   C29       1.0  0.65790  0.87297  0.20740  1.0000
  C   C30       1.0  0.64566  0.88014  0.26406  1.0000
  H   H19       1.0  0.68778  0.87084  0.19070  1.0000
  O   O10       1.0  0.64827  0.86169  0.12911  1.0000
  H   H20       1.0  0.64760  0.84675  0.13136  1.0000
  C   C31       1.0  0.20750  0.32803  0.24781  1.0000
  C   C32       1.0  0.22540  0.35007  0.22270  1.0000
  C   C33       1.0  0.24369  0.36347  0.28276  1.0000
  H   H21       1.0  0.19390  0.31966  0.20475  1.0000
  O   O11       1.0  0.22537  0.35829  0.13889  1.0000
  H   H22       1.0  0.21077  0.35813  0.13086  1.0000
  C   C34       1.0  0.13107  0.80432  0.23181  1.0000
  C   C35       1.0  0.13561  0.78657  0.20892  1.0000
  C   C36       1.0  0.12866  0.76736  0.26641  1.0000
  H   H23       1.0  0.13787  0.81863  0.19182  1.0000
  O   O12       1.0  0.14638  0.78783  0.12966  1.0000
  H   H24       1.0  0.16130  0.80217  0.12995  1.0000
  C   C37       1.0  0.20324  0.42566  0.22370  1.0000
  C   C38       1.0  0.22133  0.42145  0.20408  1.0000
  C   C39       1.0  0.24154  0.43143  0.25737  1.0000
  H   H25       1.0  0.18823  0.41660  0.18843  1.0000
  O   O13       1.0  0.21902  0.40757  0.13322  1.0000
  H   H26       1.0  0.20578  0.39228  0.14573  1.0000
  C   C40       1.0  0.58046  0.77689  0.22621  1.0000
  C   C41       1.0  0.58456  0.79897  0.20255  1.0000
  C   C42       1.0  0.57659  0.81066  0.25818  1.0000
  H   H27       1.0  0.58803  0.76980  0.18822  1.0000
  O   O14       1.0  0.59601  0.80890  0.12483  1.0000
  H   H28       1.0  0.61100  0.80966  0.12713  1.0000
  C   C43       1.0  0.23181  0.80527  0.22631  1.0000
  C   C44       1.0  0.20968  0.78732  0.20314  1.0000
  C   C45       1.0  0.19811  0.76762  0.25870  1.0000
  H   H29       1.0  0.23879  0.81993  0.18830  1.0000
  O   O15       1.0  0.19957  0.78898  0.12617  1.0000
  H   H30       1.0  0.19862  0.80309  0.12986  1.0000
  C   C46       1.0  0.80712  0.57676  0.22158  1.0000
  C   C47       1.0  0.78913  0.58099  0.19982  1.0000
  C   C48       1.0  0.76965  0.57296  0.25652  1.0000
  H   H31       1.0  0.82169  0.58444  0.18302  1.0000
  O   O16       1.0  0.79048  0.59268  0.12297  1.0000
  H   H32       1.0  0.80483  0.60756  0.12491  1.0000
  C   C49       1.0  0.42590  0.22884  0.22449  1.0000
  C   C50       1.0  0.42156  0.20653  0.20429  1.0000
  C   C51       1.0  0.43109  0.19596  0.25821  1.0000
  H   H33       1.0  0.41715  0.23505  0.18858  1.0000
  O   O17       1.0  0.40806  0.19528  0.13214  1.0000
  H   H34       1.0  0.39281  0.19348  0.14298  1.0000
  C   C52       1.0  0.76711  0.20788  0.32459  1.0000
  C   C53       1.0  0.78660  0.22782  0.29219  1.0000
  C   C54       1.0  0.80542  0.24142  0.34939  1.0000
  H   H35       1.0  0.75469  0.19782  0.27918  1.0000
  O   O18       1.0  0.78740  0.23357  0.20399  1.0000
  H   H36       1.0  0.79060  0.22298  0.16964  1.0000
  C   C55       1.0  0.12515  0.46632  0.29586  1.0000
  C   C56       1.0  0.13812  0.45510  0.29381  1.0000
  C   C57       1.0  0.13030  0.43362  0.33813  1.0000
  O   O19       1.0  0.15858  0.46649  0.24972  1.0000
  H   H37       1.0  0.13158  0.48181  0.26382  1.0000
  H   H38       1.0  0.15586  0.45963  0.18953  1.0000
  C   C58       1.0  0.54551  0.66097  0.30164  1.0000
  C   C59       1.0  0.55651  0.68515  0.29718  1.0000
  C   C60       1.0  0.57770  0.69926  0.34257  1.0000
  O   O20       1.0  0.54516  0.69381  0.25011  1.0000
  H   H39       1.0  0.53012  0.65161  0.26922  1.0000
  H   H40       1.0  0.55264  0.69819  0.19102  1.0000
  C   C61       1.0  0.34807  0.88494  0.29920  1.0000
  C   C62       1.0  0.32388  0.87195  0.29629  1.0000
  C   C63       1.0  0.31010  0.87950  0.34132  1.0000
  O   O21       1.0  0.31492  0.85171  0.25068  1.0000
  H   H41       1.0  0.35721  0.87867  0.26673  1.0000
  H   H42       1.0  0.31056  0.85462  0.19122  1.0000
  C   C64       1.0  0.88698  0.53935  0.30640  1.0000
  C   C65       1.0  0.87399  0.55055  0.30057  1.0000
  C   C66       1.0  0.88151  0.57225  0.34263  1.0000
  O   O22       1.0  0.85374  0.53895  0.25524  1.0000
  H   H43       1.0  0.88068  0.52367  0.27609  1.0000
  H   H44       1.0  0.85669  0.54564  0.19469  1.0000
  C   C67       1.0  0.46655  0.34732  0.29936  1.0000
  C   C68       1.0  0.45512  0.32313  0.29630  1.0000
  C   C69       1.0  0.43360  0.30951  0.34039  1.0000
  O   O23       1.0  0.46637  0.31401  0.25155  1.0000
  H   H45       1.0  0.48208  0.35633  0.26758  1.0000
  H   H46       1.0  0.45944  0.30996  0.19145  1.0000
  C   C70       1.0  0.66121  0.09190  0.32522  1.0000
  C   C71       1.0  0.68537  0.10396  0.33440  1.0000
  C   C72       1.0  0.69698  0.12685  0.36714  1.0000
  O   O24       1.0  0.69711  0.09340  0.30668  1.0000
  H   H47       1.0  0.65357  0.07555  0.30007  1.0000
  H   H48       1.0  0.69539  0.08252  0.35433  1.0000
  C   C73       1.0  0.45887  0.13821  0.31047  1.0000
  C   C74       1.0  0.47150  0.12669  0.31856  1.0000
  C   C75       1.0  0.46078  0.10371  0.35021  1.0000
  H   H49       1.0  0.46714  0.15444  0.28409  1.0000
  O   O25       1.0  0.49388  0.13826  0.29180  1.0000
  H   H50       1.0  0.49391  0.13470  0.22782  1.0000
  C   C76       1.0  0.68441  0.54694  0.30431  1.0000
  C   C77       1.0  0.66027  0.53448  0.31405  1.0000
  C   C78       1.0  0.64819  0.54548  0.34486  1.0000
  H   H51       1.0  0.69218  0.53833  0.27953  1.0000
  O   O26       1.0  0.64929  0.51182  0.29132  1.0000
  H   H52       1.0  0.64540  0.51106  0.22735  1.0000
  C   C79       1.0  0.90208  0.32133  0.29214  1.0000
  C   C80       1.0  0.91541  0.34558  0.29214  1.0000
  C   C81       1.0  0.90703  0.35917  0.33247  1.0000
  H   H53       1.0  0.90821  0.31236  0.25754  1.0000
  O   O27       1.0  0.93538  0.35530  0.24446  1.0000
  H   H54       1.0  0.94683  0.35431  0.28248  1.0000
  C   C82       1.0  0.54966  0.86923  0.30005  1.0000
  C   C83       1.0  0.53687  0.88062  0.30791  1.0000
  C   C84       1.0  0.54763  0.90397  0.33519  1.0000
  H   H55       1.0  0.54116  0.85260  0.27784  1.0000
  O   O28       1.0  0.51412  0.86837  0.28691  1.0000
  H   H56       1.0  0.51299  0.87079  0.22247  1.0000
  C   C85       1.0  0.32728  0.46040  0.30876  1.0000
  C   C86       1.0  0.35146  0.47338  0.31619  1.0000
  C   C87       1.0  0.36405  0.46314  0.34905  1.0000
  H   H57       1.0  0.31910  0.46834  0.28136  1.0000
  O   O29       1.0  0.36205  0.49559  0.28747  1.0000
  H   H58       1.0  0.36535  0.49527  0.22338  1.0000
  C   C88       1.0  0.13938  0.68228  0.30187  1.0000
  C   C89       1.0  0.12797  0.65815  0.31151  1.0000
  C   C90       1.0  0.10496  0.64582  0.34288  1.0000
  H   H59       1.0  0.15574  0.69023  0.27686  1.0000
  O   O30       1.0  0.13991  0.64745  0.28833  1.0000
  H   H60       1.0  0.13669  0.64350  0.22444  1.0000
  C   C91       1.0  0.09361  0.21419  0.35053  1.0000
  C   C92       1.0  0.10629  0.23851  0.35560  1.0000
  C   C93       1.0  0.13058  0.25079  0.34511  1.0000
  H   H61       1.0  0.07624  0.20621  0.36021  1.0000
  O   O31       1.0  0.09438  0.24949  0.37409  1.0000
  H   H62       1.0  0.09103  0.25404  0.31584  1.0000
  C   C94       1.0  0.79674  0.88291  0.34904  1.0000
  C   C95       1.0  0.77239  0.87119  0.35271  1.0000
  C   C96       1.0  0.76006  0.88308  0.34036  1.0000
  H   H63       1.0  0.80473  0.87357  0.35974  1.0000
  O   O32       1.0  0.76140  0.84829  0.37115  1.0000
  H   H64       1.0  0.75709  0.84040  0.31284  1.0000
  C   C97       1.0  0.12676  0.91607  0.34893  1.0000
  C   C98       1.0  0.13857  0.90352  0.35274  1.0000
  C   C99       1.0  0.12676  0.87930  0.34022  1.0000
  H   H65       1.0  0.13602  0.93340  0.35988  1.0000
  O   O33       1.0  0.16143  0.91547  0.37167  1.0000
  H   H66       1.0  0.16941  0.91912  0.31353  1.0000
  C   C100      1.0  0.91767  0.79382  0.34798  1.0000
  C   C101      1.0  0.90530  0.76945  0.35110  1.0000
  C   C102      1.0  0.88105  0.75688  0.33990  1.0000
  H   H67       1.0  0.93506  0.80197  0.35757  1.0000
  O   O34       1.0  0.91748  0.75863  0.36763  1.0000
  H   H68       1.0  0.92103  0.75461  0.30868  1.0000
  C   C103      1.0  0.21328  0.12546  0.35145  1.0000
  C   C104      1.0  0.23761  0.13741  0.35618  1.0000
  C   C105      1.0  0.25014  0.12569  0.34526  1.0000
  H   H69       1.0  0.20510  0.13466  0.36136  1.0000
  O   O35       1.0  0.24836  0.16030  0.37467  1.0000
  H   H70       1.0  0.25279  0.16821  0.31641  1.0000
  C   C106      1.0  0.88286  0.08944  0.33691  1.0000
  C   C107      1.0  0.86948  0.10025  0.33566  1.0000
  C   C108      1.0  0.87984  0.12459  0.32873  1.0000
  H   H71       1.0  0.87435  0.07192  0.34193  1.0000
  O   O36       1.0  0.84630  0.08590  0.33997  1.0000
  H   H72       1.0  0.84082  0.08264  0.27757  1.0000
  C   C109      1.0  0.09678  0.55902  0.26070  1.0000
  C   C110      1.0  0.09614  0.53773  0.25422  1.0000
  C   C111      1.0  0.09793  0.52668  0.33226  1.0000
  O   O37       1.0  0.09214  0.52729  0.17250  1.0000
  H   H73       1.0  0.09357  0.56563  0.20427  1.0000
  H   H74       1.0  0.07554  0.52020  0.16109  1.0000
  C   C112      1.0  0.45498  0.54050  0.25567  1.0000
  C   C113      1.0  0.47647  0.56098  0.25668  1.0000
  C   C114      1.0  0.48495  0.57378  0.33700  1.0000
  O   O38       1.0  0.48955  0.56723  0.18078  1.0000
  H   H75       1.0  0.45020  0.53073  0.19854  1.0000
  H   H76       1.0  0.49683  0.55766  0.17806  1.0000
  C   C115      1.0  0.46817  0.91276  0.25494  1.0000
  C   C116      1.0  0.44760  0.91364  0.25318  1.0000
  C   C117      1.0  0.43551  0.91174  0.33360  1.0000
  O   O39       1.0  0.44054  0.91803  0.17362  1.0000
  H   H77       1.0  0.47744  0.91610  0.19688  1.0000
  H   H78       1.0  0.44989  0.93469  0.16342  1.0000
  C   C118      1.0  0.91445  0.44791  0.26182  1.0000
  C   C119      1.0  0.91507  0.46925  0.26511  1.0000
  C   C120      1.0  0.91484  0.47919  0.34865  1.0000
  O   O40       1.0  0.91776  0.48086  0.18695  1.0000
  H   H79       1.0  0.91653  0.44214  0.20093  1.0000
  H   H80       1.0  0.93430  0.48900  0.17324  1.0000
  C   C121      1.0  0.56029  0.46743  0.26407  1.0000
  C   C122      1.0  0.53888  0.44688  0.25916  1.0000
  C   C123      1.0  0.52799  0.43441  0.33810  1.0000
  O   O41       1.0  0.52814  0.44021  0.17806  1.0000
  H   H81       1.0  0.56679  0.47700  0.20696  1.0000
  H   H82       1.0  0.52109  0.44975  0.16659  1.0000
  C   C124      1.0  0.53894  0.09383  0.26121  1.0000
  C   C125      1.0  0.55944  0.09288  0.25850  1.0000
  C   C126      1.0  0.57145  0.09457  0.33877  1.0000
  O   O42       1.0  0.56642  0.08862  0.17848  1.0000
  H   H83       1.0  0.52963  0.09065  0.20332  1.0000
  H   H84       1.0  0.55720  0.07195  0.16837  1.0000
  C   C127      1.0  0.99324  0.45160  0.28917  1.0000
  C   C128      1.0  0.01739  0.46403  0.28840  1.0000
  C   C129      1.0  0.03013  0.45386  0.32086  1.0000
  H   H85       1.0  0.98474  0.45947  0.26398  1.0000
  O   O43       1.0  0.02761  0.48538  0.25078  1.0000
  H   H86       1.0  0.02718  0.49578  0.29625  1.0000
  C   C130      1.0  0.59110  0.57424  0.34303  1.0000
  C   C131      1.0  0.58034  0.58767  0.34066  1.0000
  C   C132      1.0  0.55721  0.57827  0.36912  1.0000
  H   H87       1.0  0.60758  0.58142  0.31962  1.0000
  O   O44       1.0  0.59278  0.60947  0.30810  1.0000
  H   H88       1.0  0.58935  0.60852  0.24359  1.0000
  C   C133      1.0  0.46541  0.01671  0.30495  1.0000
  C   C134      1.0  0.45354  0.99257  0.30222  1.0000
  C   C135      1.0  0.43083  0.97978  0.33651  1.0000
  H   H89       1.0  0.48157  0.02521  0.27796  1.0000
  O   O45       1.0  0.46426  0.98246  0.26040  1.0000
  H   H90       1.0  0.47525  0.98243  0.30387  1.0000
  C   C136      1.0  0.01933  0.58691  0.34257  1.0000
  C   C137      1.0  0.99510  0.57547  0.34043  1.0000
  C   C138      1.0  0.98196  0.55251  0.37175  1.0000
  H   H91       1.0  0.02821  0.60320  0.31699  1.0000
  O   O46       1.0  0.98515  0.58709  0.30516  1.0000
  H   H92       1.0  0.98255  0.58296  0.24124  1.0000
  C   C139      1.0  0.45484  0.46628  0.29977  1.0000
  C   C140      1.0  0.46657  0.45386  0.29776  1.0000
  C   C141      1.0  0.45606  0.43112  0.33217  1.0000
  H   H93       1.0  0.46292  0.48245  0.27279  1.0000
  O   O47       1.0  0.48750  0.46410  0.25660  1.0000
  H   H94       1.0  0.49858  0.47510  0.29994  1.0000
  C   C142      1.0  0.57445  0.98980  0.32281  1.0000
  C   C143      1.0  0.58727  0.01405  0.32017  1.0000
  C   C144      1.0  0.57736  0.02722  0.35007  1.0000
  H   H95       1.0  0.58195  0.98087  0.29870  1.0000
  O   O48       1.0  0.60901  0.02404  0.28662  1.0000
  H   H96       1.0  0.60781  0.02682  0.22262  1.0000
  C   C145      1.0  0.10371  0.09116  0.31883  1.0000
  C   C146      1.0  0.09106  0.10281  0.31891  1.0000
  C   C147      1.0  0.10219  0.12703  0.33102  1.0000
  O   O49       1.0  0.06809  0.08994  0.30249  1.0000
  H   H97       1.0  0.09485  0.07381  0.30798  1.0000
  H   H98       1.0  0.06078  0.08335  0.36048  1.0000
  C   C148      1.0  0.91931  0.01659  0.32002  1.0000
  C   C149      1.0  0.90797  0.99228  0.32092  1.0000
  C   C150      1.0  0.88369  0.97886  0.33035  1.0000
  O   O50       1.0  0.92120  0.98243  0.30820  1.0000
  H   H99       1.0  0.93674  0.02530  0.31131  1.0000
  H   H100      1.0  0.92712  0.98165  0.36766  1.0000
  C   C151      1.0  0.99281  0.90400  0.31903  1.0000
  C   C152      1.0  0.01709  0.91703  0.31950  1.0000
  C   C153      1.0  0.03054  0.90625  0.33045  1.0000
  O   O51       1.0  0.02683  0.94003  0.30467  1.0000
  H   H101      1.0  0.98409  0.91267  0.30911  1.0000
  H   H102      1.0  0.02743  0.94704  0.36327  1.0000
  C   C154      1.0  0.90658  0.91658  0.31982  1.0000
  C   C155      1.0  0.91925  0.90495  0.32019  1.0000
  C   C156      1.0  0.90812  0.88067  0.33061  1.0000
  O   O52       1.0  0.94230  0.91795  0.30589  1.0000
  H   H103      1.0  0.91550  0.93398  0.31035  1.0000
  H   H104      1.0  0.94927  0.92419  0.36471  1.0000
  C   C157      1.0  0.09162  0.99138  0.31952  1.0000
  C   C158      1.0  0.10283  0.01567  0.32028  1.0000
  C   C159      1.0  0.12704  0.02915  0.33139  1.0000
  O   O53       1.0  0.08956  0.02540  0.30561  1.0000
  H   H105      1.0  0.07424  0.98263  0.30951  1.0000
  H   H106      1.0  0.08320  0.02602  0.36428  1.0000
  C   C160      1.0  0.01784  0.10428  0.31643  1.0000
  C   C161      1.0  0.99359  0.09132  0.31647  1.0000
  C   C162      1.0  0.98021  0.10214  0.32818  1.0000
  O   O54       1.0  0.98387  0.06837  0.30030  1.0000
  H   H107      1.0  0.02653  0.09561  0.30587  1.0000
  H   H108      1.0  0.98336  0.06116  0.35832  1.0000
  C   C163      1.0  0.18257  0.42940  0.34582  1.0000
  N   N1        1.0  0.16714  0.43600  0.32593  1.0000
  C   C164      1.0  0.14452  0.42341  0.34904  1.0000
  N   N2        1.0  0.13714  0.40211  0.38652  1.0000
  C   C165      1.0  0.15201  0.39440  0.40685  1.0000
  N   N3        1.0  0.17426  0.40849  0.38341  1.0000
  C   C166      1.0  0.58016  0.75493  0.35216  1.0000
  N   N4        1.0  0.57412  0.73308  0.33121  1.0000
  C   C167      1.0  0.58740  0.72367  0.35239  1.0000
  N   N5        1.0  0.60879  0.73810  0.38821  1.0000
  C   C168      1.0  0.61604  0.76059  0.40855  1.0000
  N   N6        1.0  0.60121  0.76806  0.38796  1.0000
  C   C169      1.0  0.25401  0.82681  0.35135  1.0000
  N   N7        1.0  0.27596  0.84239  0.33076  1.0000
  C   C170      1.0  0.28567  0.86511  0.35190  1.0000
  N   N8        1.0  0.27149  0.87236  0.38788  1.0000
  C   C171      1.0  0.24894  0.85733  0.40839  1.0000
  N   N9        1.0  0.24115  0.83498  0.38753  1.0000
  C   C172      1.0  0.82909  0.57629  0.34605  1.0000
  N   N10       1.0  0.84453  0.56955  0.32823  1.0000
  C   C173      1.0  0.86722  0.58253  0.35003  1.0000
  N   N11       1.0  0.87456  0.60423  0.38377  1.0000
  C   C174      1.0  0.85965  0.61210  0.40143  1.0000
  N   N12       1.0  0.83735  0.59755  0.38009  1.0000
  C   C175      1.0  0.42917  0.25291  0.34723  1.0000
  N   N13       1.0  0.43584  0.27498  0.32779  1.0000
  C   C176      1.0  0.42324  0.28503  0.35061  1.0000
  N   N14       1.0  0.40183  0.27106  0.38730  1.0000
  C   C177      1.0  0.39403  0.24842  0.40708  1.0000
  N   N15       1.0  0.40816  0.24028  0.38400  1.0000
  C   C178      1.0  0.75416  0.17500  0.42251  1.0000
  N   N16       1.0  0.73226  0.16259  0.39210  1.0000
  C   C179      1.0  0.72112  0.13926  0.38487  1.0000
  N   N17       1.0  0.73365  0.12866  0.39992  1.0000
  C   C180      1.0  0.75582  0.14034  0.42949  1.0000
  N   N18       1.0  0.76541  0.16341  0.44032  1.0000
  C   C181      1.0  0.42167  0.17186  0.25807  1.0000
  N   N19       1.0  0.43302  0.16141  0.29086  1.0000
  C   C182      1.0  0.42229  0.13848  0.30934  1.0000
  N   N20       1.0  0.39895  0.12648  0.30157  1.0000
  C   C183      1.0  0.38673  0.13593  0.26811  1.0000
  N   N21       1.0  0.39859  0.15860  0.24713  1.0000
  C   C184      1.0  0.75532  0.58275  0.25350  1.0000
  N   N22       1.0  0.73349  0.57203  0.28597  1.0000
  C   C185      1.0  0.72164  0.58329  0.30118  1.0000
  N   N23       1.0  0.73348  0.60662  0.29120  1.0000
  C   C186      1.0  0.75535  0.61829  0.25874  1.0000
  N   N24       1.0  0.76564  0.60578  0.24021  1.0000
  C   C187      1.0  0.82751  0.25399  0.31236  1.0000
  N   N25       1.0  0.84304  0.27560  0.33725  1.0000
  C   C188      1.0  0.86599  0.28511  0.32180  1.0000
  N   N26       1.0  0.87349  0.27085  0.28846  1.0000
  C   C189      1.0  0.85859  0.24846  0.26506  1.0000
  N   N27       1.0  0.83600  0.24105  0.27951  1.0000
  C   C190      1.0  0.58612  0.83472  0.25255  1.0000
  N   N28       1.0  0.57528  0.84586  0.28344  1.0000
  C   C191      1.0  0.58637  0.86901  0.29729  1.0000
  N   N29       1.0  0.60973  0.88056  0.28802  1.0000
  C   C192      1.0  0.62154  0.87034  0.25723  1.0000
  N   N30       1.0  0.60918  0.84746  0.23999  1.0000
  C   C193      1.0  0.25638  0.42221  0.25831  1.0000
  N   N31       1.0  0.27823  0.43388  0.29052  1.0000
  C   C194      1.0  0.29063  0.42344  0.31029  1.0000
  N   N32       1.0  0.27942  0.40003  0.30453  1.0000
  C   C195      1.0  0.25770  0.38748  0.27142  1.0000
  N   N33       1.0  0.24673  0.39910  0.24913  1.0000
  C   C196      1.0  0.17403  0.75320  0.25394  1.0000
  N   N34       1.0  0.16296  0.73128  0.28537  1.0000
  C   C197      1.0  0.13984  0.71929  0.30004  1.0000
  N   N35       1.0  0.12827  0.73107  0.29085  1.0000
  C   C198      1.0  0.13844  0.75303  0.25930  1.0000
  N   N36       1.0  0.16127  0.76350  0.24126  1.0000
  C   C199      1.0  0.15162  0.31154  0.41702  1.0000
  N   N37       1.0  0.13701  0.28923  0.39205  1.0000
  C   C200      1.0  0.14481  0.27524  0.35905  1.0000
  N   N38       1.0  0.16794  0.28524  0.34397  1.0000
  C   C201      1.0  0.18329  0.30685  0.37056  1.0000
  N   N39       1.0  0.17435  0.31928  0.40452  1.0000
  C   C202      1.0  0.69897  0.84330  0.40822  1.0000
  N   N40       1.0  0.72151  0.85113  0.38651  1.0000
  C   C203      1.0  0.73549  0.87272  0.35160  1.0000
  N   N41       1.0  0.72532  0.88544  0.33112  1.0000
  C   C204      1.0  0.70340  0.87893  0.35396  1.0000
  N   N42       1.0  0.69096  0.85783  0.39001  1.0000
  C   C205      1.0  0.16656  0.85802  0.40846  1.0000
  N   N43       1.0  0.15877  0.87275  0.38642  1.0000
  C   C206      1.0  0.13714  0.86513  0.35181  1.0000
  N   N44       1.0  0.12434  0.84220  0.33222  1.0000
  C   C207      1.0  0.13078  0.82678  0.35565  1.0000
  N   N45       1.0  0.15192  0.83544  0.39130  1.0000
  C   C208      1.0  0.86032  0.69542  0.40234  1.0000
  N   N46       1.0  0.87491  0.71814  0.38240  1.0000
  C   C209      1.0  0.86712  0.73222  0.34970  1.0000
  N   N47       1.0  0.84420  0.72202  0.32975  1.0000
  C   C210      1.0  0.82896  0.69991  0.35052  1.0000
  N   N48       1.0  0.83776  0.68740  0.38458  1.0000
  C   C211      1.0  0.31102  0.16584  0.41538  1.0000
  N   N49       1.0  0.28862  0.15804  0.39136  1.0000
  C   C212      1.0  0.27463  0.13620  0.35860  1.0000
  N   N50       1.0  0.28468  0.12318  0.34287  1.0000
  C   C213      1.0  0.30634  0.12952  0.36848  1.0000
  N   N51       1.0  0.31882  0.15091  0.40208  1.0000
  C   C214      1.0  0.82930  0.13203  0.34026  1.0000
  N   N52       1.0  0.84407  0.12415  0.35315  1.0000
  C   C215      1.0  0.86638  0.13583  0.32446  1.0000
  N   N53       1.0  0.87435  0.15758  0.29005  1.0000
  C   C216      1.0  0.86008  0.16639  0.27605  1.0000
  N   N54       1.0  0.83802  0.15305  0.30342  1.0000
  C   C217      1.0  0.08899  0.50266  0.33103  1.0000
  N   N55       1.0  0.10145  0.49179  0.33627  1.0000
  C   C218      1.0  0.09087  0.46829  0.33676  1.0000
  N   N56       1.0  0.06752  0.45611  0.33116  1.0000
  C   C219      1.0  0.05455  0.46641  0.32535  1.0000
  N   N57       1.0  0.06586  0.48967  0.32626  1.0000
  C   C220      1.0  0.50889  0.58872  0.34611  1.0000
  N   N58       1.0  0.51988  0.61209  0.34410  1.0000
  C   C221      1.0  0.54331  0.62505  0.35168  1.0000
  N   N59       1.0  0.55529  0.61371  0.36009  1.0000
  C   C222      1.0  0.54494  0.59042  0.36243  1.0000
  N   N60       1.0  0.52173  0.57846  0.35491  1.0000
  C   C223      1.0  0.42052  0.92078  0.33696  1.0000
  N   N61       1.0  0.39715  0.90836  0.34004  1.0000
  C   C224      1.0  0.38427  0.91898  0.34339  1.0000
  N   N62       1.0  0.39556  0.94239  0.34215  1.0000
  C   C225      1.0  0.41885  0.95532  0.33812  1.0000
  N   N63       1.0  0.43074  0.94395  0.33629  1.0000
  C   C226      1.0  0.92349  0.50321  0.35412  1.0000
  N   N64       1.0  0.91082  0.51393  0.34999  1.0000
  C   C227      1.0  0.92100  0.53740  0.35511  1.0000
  N   N65       1.0  0.94431  0.54963  0.36238  1.0000
  C   C228      1.0  0.95755  0.53965  0.36610  1.0000
  N   N66       1.0  0.94660  0.51639  0.36174  1.0000
  C   C229      1.0  0.50390  0.41964  0.33829  1.0000
  N   N67       1.0  0.49261  0.39627  0.34161  1.0000
  C   C230      1.0  0.46908  0.38371  0.34277  1.0000
  N   N68       1.0  0.45728  0.39532  0.33947  1.0000
  C   C231      1.0  0.46802  0.41864  0.33526  1.0000
  N   N69       1.0  0.49128  0.43019  0.33560  1.0000
  C   C232      1.0  0.58647  0.08565  0.34061  1.0000
  N   N70       1.0  0.60975  0.09851  0.34288  1.0000
  C   C233      1.0  0.62313  0.08850  0.34565  1.0000
  N   N71       1.0  0.61228  0.06507  0.34727  1.0000
  C   C234      1.0  0.58902  0.05165  0.34594  1.0000
  N   N72       1.0  0.57661  0.06251  0.34254  1.0000
  C   C235      1.0  0.50569  0.08715  0.34743  1.0000
  N   N73       1.0  0.49561  0.10035  0.34999  1.0000
  C   C236      1.0  0.47223  0.09060  0.35199  1.0000
  N   N74       1.0  0.45943  0.06720  0.35014  1.0000
  C   C237      1.0  0.46888  0.05347  0.34733  1.0000
  N   N75       1.0  0.49213  0.06403  0.34582  1.0000
  C   C238      1.0  0.58647  0.50043  0.35323  1.0000
  N   N76       1.0  0.60976  0.51052  0.34780  1.0000
  C   C239      1.0  0.62360  0.53389  0.35190  1.0000
  N   N77       1.0  0.61301  0.54660  0.36037  1.0000
  C   C240      1.0  0.58988  0.53728  0.36618  1.0000
  N   N78       1.0  0.57708  0.51407  0.36164  1.0000
  C   C241      1.0  0.92261  0.42061  0.33629  1.0000
  N   N79       1.0  0.90966  0.39719  0.33722  1.0000
  C   C242      1.0  0.91970  0.38377  0.33216  1.0000
  N   N80       1.0  0.94303  0.39464  0.32811  1.0000
  C   C243      1.0  0.95648  0.41783  0.32762  1.0000
  N   N81       1.0  0.94575  0.43035  0.33164  1.0000
  C   C244      1.0  0.50170  0.91950  0.34020  1.0000
  N   N82       1.0  0.51221  0.90665  0.33721  1.0000
  C   C245      1.0  0.53566  0.91664  0.34014  1.0000
  N   N83       1.0  0.54803  0.94003  0.34563  1.0000
  C   C246      1.0  0.53825  0.95347  0.34941  1.0000
  N   N84       1.0  0.51502  0.94260  0.34582  1.0000
  C   C247      1.0  0.42585  0.50793  0.33903  1.0000
  N   N85       1.0  0.40256  0.49811  0.34470  1.0000
  C   C248      1.0  0.38865  0.47473  0.34868  1.0000
  N   N86       1.0  0.39902  0.46174  0.34619  1.0000
  C   C249      1.0  0.42208  0.47079  0.34102  1.0000
  N   N87       1.0  0.43503  0.49401  0.33731  1.0000
  C   C250      1.0  0.08950  0.58447  0.35218  1.0000
  N   N88       1.0  0.10227  0.60777  0.34576  1.0000
  C   C251      1.0  0.09233  0.62124  0.35060  1.0000
  N   N89       1.0  0.06904  0.61026  0.36060  1.0000
  C   C252      1.0  0.05568  0.58708  0.36733  1.0000
  N   N90       1.0  0.06648  0.57466  0.36200  1.0000
  C   C253      1.0  0.09012  0.13972  0.33077  1.0000
  N   N91       1.0  0.10151  0.16310  0.33248  1.0000
  C   C254      1.0  0.09110  0.17606  0.33289  1.0000
  N   N92       1.0  0.06765  0.16420  0.33215  1.0000
  C   C255      1.0  0.05486  0.14077  0.33052  1.0000
  N   N93       1.0  0.06679  0.12928  0.32990  1.0000
  C   C256      1.0  0.87125  0.95404  0.33050  1.0000
  N   N94       1.0  0.84785  0.94195  0.33151  1.0000
  C   C257      1.0  0.83489  0.91858  0.33212  1.0000
  N   N95       1.0  0.84682  0.90707  0.33226  1.0000
  C   C258      1.0  0.87025  0.91767  0.33135  1.0000
  N   N96       1.0  0.88175  0.94115  0.33042  1.0000
  C   C259      1.0  0.05530  0.91877  0.33044  1.0000
  N   N97       1.0  0.06759  0.90768  0.33134  1.0000
  C   C260      1.0  0.09097  0.91834  0.33177  1.0000
  N   N98       1.0  0.10227  0.94178  0.33196  1.0000
  C   C261      1.0  0.09139  0.95436  0.33119  1.0000
  N   N99       1.0  0.06794  0.94214  0.33040  1.0000
  C   C262      1.0  0.92029  0.86805  0.33067  1.0000
  N   N100      1.0  0.90905  0.84463  0.33198  1.0000
  C   C263      1.0  0.91964  0.83181  0.33263  1.0000
  N   N101      1.0  0.94309  0.84388  0.33242  1.0000
  C   C264      1.0  0.95577  0.86732  0.33124  1.0000
  N   N102      1.0  0.94365  0.87863  0.33039  1.0000
  C   C265      1.0  0.13929  0.05394  0.33163  1.0000
  N   N103      1.0  0.16268  0.06615  0.33317  1.0000
  C   C266      1.0  0.17545  0.08952  0.33397  1.0000
  N   N104      1.0  0.16339  0.10087  0.33380  1.0000
  C   C267      1.0  0.13997  0.09011  0.33246  1.0000
  N   N105      1.0  0.12860  0.06664  0.33133  1.0000
  C   C268      1.0  0.95547  0.08964  0.32805  1.0000
  N   N106      1.0  0.94312  0.10071  0.32855  1.0000
  C   C269      1.0  0.91973  0.08972  0.32926  1.0000
  N   N107      1.0  0.90877  0.06626  0.32965  1.0000
  C   C270      1.0  0.91968  0.05376  0.32936  1.0000
  N   N108      1.0  0.94308  0.06622  0.32857  1.0000
  C   C271      1.0  0.16333  0.34861  0.48590  1.0000
  C   C272      1.0  0.16412  0.36985  0.48245  1.0000
  C   C273      1.0  0.14701  0.37221  0.43555  1.0000
  H   H109      1.0  0.17672  0.34822  0.51697  1.0000
  O   O55       1.0  0.18182  0.38803  0.52583  1.0000
  H   H110      1.0  0.19611  0.39183  0.49382  1.0000
  C   C274      1.0  0.66207  0.81861  0.47939  1.0000
  C   C275      1.0  0.64084  0.79812  0.47870  1.0000
  C   C276      1.0  0.63832  0.77824  0.43463  1.0000
  H   H111      1.0  0.66258  0.83270  0.50812  1.0000
  O   O56       1.0  0.62288  0.79808  0.52206  1.0000
  H   H112      1.0  0.61891  0.80824  0.48844  1.0000
  C   C277      1.0  0.19122  0.84591  0.48041  1.0000
  C   C278      1.0  0.21165  0.84505  0.47968  1.0000
  C   C279      1.0  0.23151  0.86224  0.43488  1.0000
  H   H113      1.0  0.17714  0.83242  0.50967  1.0000
  O   O57       1.0  0.21167  0.82718  0.52357  1.0000
  H   H114      1.0  0.20138  0.81299  0.49056  1.0000
  C   C280      1.0  0.84808  0.65840  0.47257  1.0000
  C   C281      1.0  0.84721  0.63711  0.47149  1.0000
  C   C282      1.0  0.86448  0.63449  0.42711  1.0000
  H   H115      1.0  0.83458  0.65897  0.50186  1.0000
  O   O58       1.0  0.82931  0.61921  0.51520  1.0000
  H   H116      1.0  0.81515  0.61529  0.48192  1.0000
  C   C283      1.0  0.34811  0.19113  0.48437  1.0000
  C   C284      1.0  0.36935  0.21159  0.48150  1.0000
  C   C285      1.0  0.37177  0.23114  0.43500  1.0000
  H   H117      1.0  0.34768  0.17731  0.51526  1.0000
  O   O59       1.0  0.38746  0.21199  0.52516  1.0000
  H   H118      1.0  0.39131  0.20155  0.49305  1.0000
  C   C286      1.0  0.80940  0.13724  0.46182  1.0000
  C   C287      1.0  0.79148  0.14174  0.48091  1.0000
  C   C288      1.0  0.77094  0.13138  0.42940  1.0000
  H   H119      1.0  0.82462  0.14656  0.49551  1.0000
  O   O60       1.0  0.79437  0.15627  0.55007  1.0000
  H   H120      1.0  0.80725  0.17151  0.53408  1.0000
  C   C289      1.0  0.35289  0.11568  0.36210  1.0000
  C   C290      1.0  0.33256  0.11490  0.39185  1.0000
  C   C291      1.0  0.31937  0.12028  0.33306  1.0000
  O   O61       1.0  0.32609  0.10948  0.47917  1.0000
  H   H121      1.0  0.36255  0.11312  0.40882  1.0000
  H   H122      1.0  0.33576  0.12341  0.51451  1.0000
  C   C292      1.0  0.76852  0.65393  0.34209  1.0000
  C   C293      1.0  0.78780  0.67490  0.36910  1.0000
  C   C294      1.0  0.80704  0.68691  0.31176  1.0000
  O   O62       1.0  0.78802  0.68305  0.45305  1.0000
  H   H123      1.0  0.75581  0.64530  0.38842  1.0000
  H   H124      1.0  0.79214  0.67429  0.49450  1.0000
  C   C295      1.0  0.88329  0.23047  0.27540  1.0000
  C   C296      1.0  0.88403  0.20963  0.27943  1.0000
  C   C297      1.0  0.86516  0.18869  0.24819  1.0000
  O   O63       1.0  0.90134  0.20947  0.32631  1.0000
  H   H125      1.0  0.89564  0.24449  0.30907  1.0000
  H   H126      1.0  0.89669  0.20726  0.38975  1.0000
  C   C298      1.0  0.65690  0.89279  0.34216  1.0000
  C   C299      1.0  0.67780  0.89453  0.37048  1.0000
  C   C300      1.0  0.69007  0.88736  0.31422  1.0000
  O   O64       1.0  0.68569  0.90254  0.45460  1.0000
  H   H127      1.0  0.64811  0.89687  0.38774  1.0000
  H   H128      1.0  0.67687  0.88967  0.49602  1.0000
  C   C301      1.0  0.24366  0.35393  0.36752  1.0000
  C   C302      1.0  0.22399  0.33360  0.39674  1.0000
  C   C303      1.0  0.20576  0.32010  0.33689  1.0000
  O   O65       1.0  0.22250  0.32736  0.48458  1.0000
  H   H129      1.0  0.25559  0.36377  0.41481  1.0000
  H   H130      1.0  0.21812  0.33716  0.51837  1.0000
  C   C304      1.0  0.11652  0.76627  0.34563  1.0000
  C   C305      1.0  0.11514  0.78563  0.37400  1.0000
  C   C306      1.0  0.12209  0.80488  0.31695  1.0000
  O   O66       1.0  0.10767  0.78585  0.45881  1.0000
  H   H131      1.0  0.11267  0.75356  0.39171  1.0000
  H   H132      1.0  0.12076  0.78991  0.49906  1.0000
  C   C307      1.0  0.24354  0.44680  0.32657  1.0000
  C   C308      1.0  0.22417  0.44836  0.35296  1.0000
  C   C309      1.0  0.20371  0.43789  0.30163  1.0000
  O   O67       1.0  0.22502  0.45904  0.43178  1.0000
  H   H133      1.0  0.25718  0.45313  0.36982  1.0000
  H   H134      1.0  0.22199  0.44783  0.47980  1.0000
  C   C310      1.0  0.56373  0.79926  0.33572  1.0000
  C   C311      1.0  0.56272  0.77882  0.36537  1.0000
  C   C312      1.0  0.57085  0.76719  0.31048  1.0000
  O   O68       1.0  0.55464  0.77090  0.44943  1.0000
  H   H135      1.0  0.55912  0.80777  0.38056  1.0000
  H   H136      1.0  0.56724  0.78023  0.49127  1.0000
  C   C313      1.0  0.20976  0.76603  0.33521  1.0000
  C   C314      1.0  0.23029  0.78544  0.36443  1.0000
  C   C315      1.0  0.24177  0.80524  0.30980  1.0000
  O   O69       1.0  0.23842  0.78522  0.44800  1.0000
  H   H137      1.0  0.20131  0.75287  0.37993  1.0000
  H   H138      1.0  0.22926  0.78856  0.49048  1.0000
  C   C316      1.0  0.76835  0.55978  0.33281  1.0000
  C   C317      1.0  0.78781  0.55854  0.36048  1.0000
  C   C318      1.0  0.80747  0.56686  0.30483  1.0000
  O   O70       1.0  0.78785  0.55021  0.44385  1.0000
  H   H139      1.0  0.75538  0.55508  0.37848  1.0000
  H   H140      1.0  0.79138  0.56274  0.48645  1.0000
  C   C319      1.0  0.44613  0.20900  0.32877  1.0000
  C   C320      1.0  0.44774  0.22992  0.35554  1.0000
  C   C321      1.0  0.43775  0.24028  0.30352  1.0000
  O   O71       1.0  0.45804  0.23944  0.43529  1.0000
  H   H141      1.0  0.45210  0.20144  0.37241  1.0000
  H   H142      1.0  0.44657  0.23114  0.48235  1.0000
  C   C322      1.0  0.80430  0.23427  0.43937  1.0000
  C   C323      1.0  0.78654  0.21250  0.46754  1.0000
  C   C324      1.0  0.76782  0.19892  0.40973  1.0000
  O   O72       1.0  0.78709  0.20468  0.55162  1.0000
  H   H143      1.0  0.81833  0.24275  0.48036  1.0000
  H   H144      1.0  0.80189  0.20523  0.55927  1.0000
  C   C325      1.0  0.10845  0.42367  0.37982  1.0000
  C   C326      1.0  0.09503  0.43451  0.37881  1.0000
  C   C327      1.0  0.10354  0.45646  0.33859  1.0000
  H   H145      1.0  0.10220  0.40849  0.41390  1.0000
  O   O73       1.0  0.07481  0.42430  0.42486  1.0000
  H   H146      1.0  0.06357  0.41185  0.38637  1.0000
  C   C328      1.0  0.58771  0.68783  0.38739  1.0000
  C   C329      1.0  0.57705  0.66358  0.38928  1.0000
  C   C330      1.0  0.55526  0.64962  0.34837  1.0000
  H   H147      1.0  0.60267  0.69710  0.42249  1.0000
  O   O74       1.0  0.58732  0.65424  0.43912  1.0000
  H   H148      1.0  0.59967  0.65486  0.40165  1.0000
  C   C331      1.0  0.32188  0.90117  0.38440  1.0000
  C   C332      1.0  0.34614  0.91462  0.38441  1.0000
  C   C333      1.0  0.35973  0.90634  0.34364  1.0000
  H   H149      1.0  0.31285  0.90721  0.41908  1.0000
  O   O75       1.0  0.35597  0.93459  0.43205  1.0000
  H   H150      1.0  0.35499  0.94605  0.39413  1.0000
  C   C334      1.0  0.90312  0.58239  0.38619  1.0000
  C   C335      1.0  0.91650  0.57152  0.38943  1.0000
  C   C336      1.0  0.90835  0.54936  0.35123  1.0000
  H   H151      1.0  0.90915  0.59771  0.41901  1.0000
  O   O76       1.0  0.93635  0.58212  0.43784  1.0000
  H   H152      1.0  0.94790  0.59425  0.39911  1.0000
  C   C337      1.0  0.42382  0.32149  0.38271  1.0000
  C   C338      1.0  0.43488  0.34578  0.38273  1.0000
  C   C339      1.0  0.45690  0.35917  0.34295  1.0000
  H   H153      1.0  0.40862  0.31259  0.41664  1.0000
  O   O77       1.0  0.42481  0.35582  0.42944  1.0000
  H   H154      1.0  0.41258  0.35503  0.39073  1.0000
  C   C340      1.0  0.68340  0.13681  0.39036  1.0000
  C   C341      1.0  0.65926  0.12457  0.38346  1.0000
  C   C342      1.0  0.64762  0.10170  0.35049  1.0000
  H   H155      1.0  0.69091  0.15300  0.41700  1.0000
  O   O78       1.0  0.64795  0.13549  0.41218  1.0000
  H   H156      1.0  0.64384  0.13098  0.47522  1.0000
  C   C343      1.0  0.43735  0.09332  0.37556  1.0000
  C   C344      1.0  0.42457  0.10461  0.36534  1.0000
  C   C345      1.0  0.43512  0.12739  0.33137  1.0000
  O   O79       1.0  0.40214  0.09304  0.39165  1.0000
  H   H157      1.0  0.42896  0.07691  0.40020  1.0000
  H   H158      1.0  0.39352  0.08207  0.34346  1.0000
  C   C346      1.0  0.66153  0.56919  0.36623  1.0000
  C   C347      1.0  0.68558  0.58179  0.35425  1.0000
  C   C348      1.0  0.69762  0.57084  0.32252  1.0000
  O   O80       1.0  0.69666  0.60444  0.37755  1.0000
  H   H159      1.0  0.65378  0.57792  0.39002  1.0000
  H   H160      1.0  0.69440  0.61269  0.32769  1.0000
  C   C349      1.0  0.88553  0.34742  0.37614  1.0000
  C   C350      1.0  0.87259  0.32320  0.37869  1.0000
  C   C351      1.0  0.88034  0.30948  0.33436  1.0000
  O   O81       1.0  0.85218  0.31406  0.42314  1.0000
  H   H161      1.0  0.87911  0.35652  0.40791  1.0000
  H   H162      1.0  0.85477  0.30920  0.48212  1.0000
  C   C352      1.0  0.57147  0.91491  0.35503  1.0000
  C   C353      1.0  0.58437  0.90372  0.34495  1.0000
  C   C354      1.0  0.57366  0.88044  0.31673  1.0000
  O   O82       1.0  0.60712  0.91586  0.36641  1.0000
  H   H163      1.0  0.58005  0.93163  0.37622  1.0000
  H   H164      1.0  0.61500  0.92581  0.31469  1.0000
  C   C355      1.0  0.35125  0.43983  0.37659  1.0000
  C   C356      1.0  0.32717  0.42669  0.36695  1.0000
  C   C357      1.0  0.31461  0.43673  0.33154  1.0000
  O   O83       1.0  0.31662  0.40440  0.39496  1.0000
  H   H165      1.0  0.35948  0.43175  0.40216  1.0000
  H   H166      1.0  0.31904  0.39565  0.34752  1.0000
  C   C358      1.0  0.09432  0.65891  0.36451  1.0000
  C   C359      1.0  0.10550  0.68295  0.35262  1.0000
  C   C360      1.0  0.12846  0.69523  0.32069  1.0000
  O   O84       1.0  0.09375  0.69381  0.37639  1.0000
  H   H167      1.0  0.07787  0.65097  0.38861  1.0000
  H   H168      1.0  0.08320  0.69151  0.32659  1.0000
  C   C361      1.0  0.14102  0.23732  0.32708  1.0000
  C   C362      1.0  0.12850  0.21311  0.32326  1.0000
  C   C363      1.0  0.10426  0.20081  0.33503  1.0000
  O   O85       1.0  0.14081  0.20246  0.30544  1.0000
  H   H169      1.0  0.15843  0.24500  0.31922  1.0000
  H   H170      1.0  0.14743  0.20142  0.36290  1.0000
  C   C364      1.0  0.77352  0.90700  0.32264  1.0000
  C   C365      1.0  0.79776  0.91878  0.32024  1.0000
  C   C366      1.0  0.81012  0.90694  0.33333  1.0000
  O   O86       1.0  0.80841  0.94171  0.30218  1.0000
  H   H171      1.0  0.76581  0.91667  0.31378  1.0000
  H   H172      1.0  0.80921  0.94940  0.35937  1.0000
  C   C367      1.0  0.10287  0.86879  0.32185  1.0000
  C   C368      1.0  0.09102  0.88116  0.31932  1.0000
  C   C369      1.0  0.10275  0.90534  0.33284  1.0000
  O   O87       1.0  0.06810  0.86878  0.30071  1.0000
  H   H173      1.0  0.09326  0.85141  0.31267  1.0000
  H   H174      1.0  0.06036  0.86173  0.35761  1.0000
  C   C370      1.0  0.87030  0.77018  0.32426  1.0000
  C   C371      1.0  0.88251  0.79442  0.32236  1.0000
  C   C372      1.0  0.90675  0.80701  0.33395  1.0000
  O   O88       1.0  0.86992  0.80485  0.30622  1.0000
  H   H175      1.0  0.85288  0.76231  0.31637  1.0000
  H   H176      1.0  0.86348  0.80576  0.36433  1.0000
  C   C373      1.0  0.23693  0.10175  0.32728  1.0000
  C   C374      1.0  0.21273  0.08976  0.32384  1.0000
  C   C375      1.0  0.20018  0.10141  0.33593  1.0000
  O   O89       1.0  0.20234  0.06681  0.30608  1.0000
  H   H177      1.0  0.24479  0.09219  0.31913  1.0000
  H   H178      1.0  0.20147  0.05920  0.36352  1.0000
  C   C376      1.0  0.90410  0.13712  0.32109  1.0000
  C   C377      1.0  0.91753  0.12624  0.32279  1.0000
  C   C378      1.0  0.90713  0.10190  0.32977  1.0000
  O   O90       1.0  0.94066  0.13999  0.31351  1.0000
  H   H179      1.0  0.91238  0.15462  0.31485  1.0000
  H   H180      1.0  0.94675  0.14527  0.37423  1.0000
  C   C379      1.0  0.10020  0.53734  0.41632  1.0000
  C   C380      1.0  0.09979  0.55810  0.42319  1.0000
  C   C381      1.0  0.09811  0.56919  0.34508  1.0000
  H   H181      1.0  0.09954  0.52879  0.47410  1.0000
  O   O91       1.0  0.09929  0.56627  0.50637  1.0000
  H   H182      1.0  0.08323  0.55763  0.52685  1.0000
  C   C382      1.0  0.47133  0.56558  0.41530  1.0000
  C   C383      1.0  0.45013  0.54468  0.41483  1.0000
  C   C384      1.0  0.44175  0.53177  0.33470  1.0000
  H   H183      1.0  0.47791  0.57345  0.47553  1.0000
  O   O92       1.0  0.43905  0.53622  0.49429  1.0000
  H   H184      1.0  0.44614  0.52800  0.52220  1.0000
  C   C385      1.0  0.44469  0.90912  0.41519  1.0000
  C   C386      1.0  0.46575  0.90916  0.41738  1.0000
  C   C387      1.0  0.47776  0.91097  0.33685  1.0000
  H   H185      1.0  0.43742  0.90968  0.47479  1.0000
  O   O93       1.0  0.47513  0.90934  0.49865  1.0000
  H   H186      1.0  0.48306  0.92538  0.51954  1.0000
  C   C388      1.0  0.91405  0.46724  0.42788  1.0000
  C   C389      1.0  0.91410  0.44623  0.42456  1.0000
  C   C390      1.0  0.91424  0.43621  0.34110  1.0000
  H   H187      1.0  0.91579  0.47491  0.48896  1.0000
  O   O94       1.0  0.91586  0.43679  0.50297  1.0000
  H   H188      1.0  0.93227  0.44482  0.51886  1.0000
  C   C391      1.0  0.53897  0.44312  0.42144  1.0000
  C   C392      1.0  0.55990  0.46418  0.42670  1.0000
  C   C393      1.0  0.57082  0.47657  0.34769  1.0000
  H   H189      1.0  0.53057  0.43555  0.47985  1.0000
  O   O95       1.0  0.56840  0.47313  0.50923  1.0000
  H   H190      1.0  0.56005  0.48088  0.52940  1.0000
  C   C394      1.0  0.56261  0.09732  0.42091  1.0000
  C   C395      1.0  0.54164  0.09740  0.42387  1.0000
  C   C396      1.0  0.52954  0.09558  0.34367  1.0000
  H   H191      1.0  0.56999  0.09667  0.48011  1.0000
  O   O96       1.0  0.53241  0.09727  0.50543  1.0000
  H   H192      1.0  0.52432  0.08121  0.52604  1.0000
  C   C397      1.0  0.01775  0.43092  0.35230  1.0000
  C   C398      1.0  0.99352  0.41864  0.35469  1.0000
  C   C399      1.0  0.98085  0.42899  0.32355  1.0000
  O   O97       1.0  0.98313  0.39700  0.38944  1.0000
  H   H193      1.0  0.02632  0.42313  0.37736  1.0000
  H   H194      1.0  0.98033  0.39850  0.45317  1.0000
  C   C400      1.0  0.54573  0.55540  0.40151  1.0000
  C   C401      1.0  0.55626  0.54182  0.40204  1.0000
  C   C402      1.0  0.57923  0.55102  0.37172  1.0000
  O   O98       1.0  0.54389  0.52021  0.43669  1.0000
  H   H195      1.0  0.52921  0.54810  0.42465  1.0000
  H   H196      1.0  0.53312  0.51059  0.38954  1.0000
  C   C403      1.0  0.42059  0.99212  0.37172  1.0000
  C   C404      1.0  0.43271  0.01636  0.37589  1.0000
  C   C405      1.0  0.45555  0.02908  0.34295  1.0000
  O   O99       1.0  0.42178  0.02675  0.41353  1.0000
  H   H197      1.0  0.40435  0.98348  0.39789  1.0000
  H   H198      1.0  0.42648  0.02937  0.47687  1.0000
  C   C406      1.0  0.99396  0.54189  0.40647  1.0000
  C   C407      1.0  0.01812  0.55309  0.40677  1.0000
  C   C408      1.0  0.03129  0.57588  0.37378  1.0000
  O   O100      1.0  0.02805  0.54161  0.44393  1.0000
  H   H199      1.0  0.98516  0.52554  0.43163  1.0000
  H   H200      1.0  0.02703  0.53045  0.39884  1.0000
  C   C409      1.0  0.43349  0.42142  0.36687  1.0000
  C   C410      1.0  0.42193  0.43409  0.37048  1.0000
  C   C411      1.0  0.43261  0.45696  0.33731  1.0000
  O   O101      1.0  0.40059  0.42361  0.40791  1.0000
  H   H201      1.0  0.42550  0.40519  0.39328  1.0000
  H   H202      1.0  0.40273  0.42828  0.47130  1.0000
  C   C412      1.0  0.55465  0.01525  0.38392  1.0000
  C   C413      1.0  0.54171  0.99112  0.38499  1.0000
  C   C414      1.0  0.55141  0.97789  0.35346  1.0000
  O   O102      1.0  0.52032  0.98136  0.42217  1.0000
  H   H203      1.0  0.54705  0.02405  0.40866  1.0000
  H   H204      1.0  0.51014  0.98194  0.37614  1.0000
  C   C415      1.0  0.12631  0.13856  0.34440  1.0000
  C   C416      1.0  0.13888  0.12686  0.34617  1.0000
  C   C417      1.0  0.12782  0.10269  0.33252  1.0000
  H   H205      1.0  0.13520  0.15594  0.35434  1.0000
  O   O103      1.0  0.16194  0.13995  0.36013  1.0000
  H   H206      1.0  0.16423  0.14010  0.42534  1.0000
  C   C418      1.0  0.87182  0.99124  0.34034  1.0000
  C   C419      1.0  0.88319  0.01552  0.34127  1.0000
  C   C420      1.0  0.90742  0.02895  0.33018  1.0000
  H   H207      1.0  0.85437  0.98258  0.34817  1.0000
  O   O104      1.0  0.86973  0.02521  0.35155  1.0000
  H   H208      1.0  0.86886  0.02728  0.41646  1.0000
  C   C421      1.0  0.01827  0.88205  0.34218  1.0000
  C   C422      1.0  0.99399  0.86909  0.34356  1.0000
  C   C423      1.0  0.98054  0.87982  0.33122  1.0000
  H   H209      1.0  0.02700  0.87337  0.35114  1.0000
  O   O105      1.0  0.98430  0.84599  0.35567  1.0000
  H   H210      1.0  0.98225  0.84337  0.42075  1.0000
  C   C424      1.0  0.88392  0.86909  0.34188  1.0000
  C   C425      1.0  0.87131  0.88079  0.34336  1.0000
  C   C426      1.0  0.88239  0.90502  0.33152  1.0000
  H   H211      1.0  0.87499  0.85166  0.35039  1.0000
  O   O106      1.0  0.84818  0.86766  0.35503  1.0000
  H   H212      1.0  0.84549  0.86704  0.42009  1.0000
  C   C427      1.0  0.13901  0.01691  0.34301  1.0000
  C   C428      1.0  0.12774  0.99263  0.34409  1.0000
  C   C429      1.0  0.10358  0.97914  0.33154  1.0000
  H   H213      1.0  0.15642  0.02565  0.35209  1.0000
  O   O107      1.0  0.14120  0.98300  0.35613  1.0000
  H   H214      1.0  0.14173  0.98088  0.42119  1.0000
  C   C430      1.0  0.99247  0.12630  0.34102  1.0000
  C   C431      1.0  0.01674  0.13919  0.34291  1.0000
  C   C432      1.0  0.03012  0.12842  0.32991  1.0000
  H   H215      1.0  0.98374  0.13497  0.35055  1.0000
  O   O108      1.0  0.02650  0.16225  0.35626  1.0000
  H   H216      1.0  0.02853  0.16464  0.42146  1.0000
