data_image0
_chemical_formula_structural       C3HNH2C3HNO2C4HNO2CNCNCNCNC5HNO3C3H2NH2C2HNHOC4HNOC3H2NOC2HNH2CNCNC2HC3HNH2C2HNOC3HNO2C4NO3C3HNH2NHC2NH2C7H2N2O4C7H2N2O4C7H2N2O4C7H2N2O4C2HC3HNH2NH2C2HC3HNH2NH2C2HC3HNH2NH2C2HC3HNH2NH2C2HC3HNH2NH2C4HNO2C7H2N2O4C7H2N2O4C3HNO2C7H2N2O4C7H2N2O4CNCNCNCNCNCNCNCNCNCNCNCNCNCNCNCNCNCNCNCNCNCNCNCNCNCNCNCNCNCNHC2HC3HNH2NH3C2HC3HNH2NH2C2HC3HNH2NH2C2HC3HNH2NH2C7H2N2O4C7H2N2O4C7H2N2O4C7H2N2O4C7H2N2O4C2HNHC2HC3HNH2NH2C2HC3HNH2NH2C3H2NH2C2HC3HNH2NH2C2HC3HNH2NH2
_chemical_formula_sum              "C252 H144 N108 O72"
_cell_length_a       59.7723
_cell_length_b       59.7722
_cell_length_c       14.854
_cell_angle_alpha    90
_cell_angle_beta     90
_cell_angle_gamma    120

_space_group_name_H-M_alt    "P 1"
_space_group_IT_number       1

loop_
  _space_group_symop_operation_xyz
  'x, y, z'

loop_
  _atom_site_type_symbol
  _atom_site_label
  _atom_site_symmetry_multiplicity
  _atom_site_fract_x
  _atom_site_fract_y
  _atom_site_fract_z
  _atom_site_occupancy
  C   C1        1.0  0.14383  0.63798  0.32832  1.0000
  C   C2        1.0  0.13826  0.62220  0.25042  1.0000
  C   C3        1.0  0.14009  0.59952  0.25632  1.0000
  H   H1        1.0  0.13563  0.58780  0.20099  1.0000
  N   N1        1.0  0.13110  0.62798  0.17063  1.0000
  H   H2        1.0  0.12750  0.61700  0.11796  1.0000
  H   H3        1.0  0.13011  0.64359  0.16264  1.0000
  C   C4        1.0  0.02560  0.39567  0.33994  1.0000
  C   C5        1.0  0.03863  0.40961  0.26154  1.0000
  C   C6        1.0  0.06598  0.42422  0.26114  1.0000
  H   H4        1.0  0.07500  0.43520  0.20551  1.0000
  N   N2        1.0  0.02402  0.40982  0.18679  1.0000
  O   O1        1.0  0.02899  0.40106  0.11747  1.0000
  O   O2        1.0  0.02819  0.43221  0.17026  1.0000
  C   C7        1.0  0.07987  0.66308  0.34941  1.0000
  C   C8        1.0  0.06862  0.67706  0.31205  1.0000
  C   C9        1.0  0.04132  0.66607  0.31206  1.0000
  C   C10       1.0  0.02460  0.64139  0.34886  1.0000
  H   H5        1.0  0.03354  0.67611  0.28246  1.0000
  N   N3        1.0  0.08469  0.70130  0.27096  1.0000
  O   O3        1.0  0.07973  0.70096  0.18857  1.0000
  O   O4        1.0  0.08247  0.71893  0.30851  1.0000
  C   C11       1.0  0.10723  0.44562  0.33836  1.0000
  N   N4        1.0  0.12820  0.44226  0.34063  1.0000
  C   C12       1.0  0.13538  0.49117  0.34458  1.0000
  N   N5        1.0  0.11145  0.47008  0.34040  1.0000
  C   C13       1.0  0.10701  0.67153  0.34435  1.0000
  N   N6        1.0  0.12668  0.69672  0.34485  1.0000
  C   C14       1.0  0.13873  0.65861  0.33214  1.0000
  N   N7        1.0  0.11389  0.65306  0.33756  1.0000
  C   C15       1.0  0.13858  0.51653  0.34691  1.0000
  C   C16       1.0  0.11982  0.52163  0.38588  1.0000
  C   C17       1.0  0.12351  0.54690  0.38240  1.0000
  C   C18       1.0  0.14544  0.56749  0.34130  1.0000
  C   C19       1.0  0.14676  0.59196  0.33746  1.0000
  H   H6        1.0  0.10968  0.55017  0.40999  1.0000
  N   N8        1.0  0.09782  0.50178  0.43027  1.0000
  O   O5        1.0  0.14198  0.59616  0.55706  1.0000
  O   O6        1.0  0.07713  0.49761  0.39354  1.0000
  O   O7        1.0  0.09724  0.50680  0.51212  1.0000
  C   C20       1.0  0.08094  0.42553  0.33695  1.0000
  C   C21       1.0  0.06790  0.41132  0.41554  1.0000
  C   C22       1.0  0.04048  0.39645  0.41517  1.0000
  H   H7        1.0  0.03104  0.38712  0.47289  1.0000
  H   H8        1.0  0.02050  0.43157  0.42372  1.0000
  N   N9        1.0  0.08067  0.41246  0.49283  1.0000
  H   H9        1.0  0.07144  0.40289  0.54635  1.0000
  H   H10       1.0  0.09938  0.42244  0.49697  1.0000
  C   C23       1.0  0.03560  0.62735  0.38786  1.0000
  C   C24       1.0  0.06283  0.63858  0.38792  1.0000
  H   H11       1.0  0.07040  0.62818  0.41615  1.0000
  N   N10       1.0  0.02103  0.60325  0.42338  1.0000
  H   H12       1.0  0.02897  0.59388  0.44891  1.0000
  O   O8        1.0  0.14676  0.39634  0.31951  1.0000
  C   C25       1.0  0.17572  0.46009  0.34468  1.0000
  C   C26       1.0  0.17616  0.43786  0.31256  1.0000
  C   C27       1.0  0.19957  0.43713  0.31331  1.0000
  C   C28       1.0  0.22300  0.45799  0.34531  1.0000
  H   H13       1.0  0.19951  0.42113  0.28828  1.0000
  N   N11       1.0  0.15344  0.41683  0.27649  1.0000
  O   O9        1.0  0.15611  0.41312  0.19487  1.0000
  C   C29       1.0  0.22019  0.77814  0.33945  1.0000
  C   C30       1.0  0.21369  0.76135  0.26451  1.0000
  C   C31       1.0  0.19046  0.73717  0.26592  1.0000
  H   H14       1.0  0.18641  0.72508  0.21189  1.0000
  H   H15       1.0  0.23145  0.82487  0.28834  1.0000
  N   N12       1.0  0.23086  0.76887  0.19042  1.0000
  O   O10       1.0  0.22022  0.77028  0.11938  1.0000
  C   C32       1.0  0.16454  0.56279  0.30332  1.0000
  C   C33       1.0  0.16078  0.53743  0.30744  1.0000
  H   H16       1.0  0.17438  0.53405  0.27862  1.0000
  N   N13       1.0  0.18632  0.58177  0.26360  1.0000
  H   H17       1.0  0.19931  0.57828  0.23857  1.0000
  H   H18       1.0  0.18997  0.59953  0.26084  1.0000
  C   C34       1.0  0.15297  0.46275  0.34338  1.0000
  N   N14       1.0  0.15566  0.48684  0.34513  1.0000
  C   C35       1.0  0.15210  0.70314  0.33958  1.0000
  N   N15       1.0  0.15770  0.68372  0.33371  1.0000
  C   C36       1.0  0.22292  0.48032  0.37793  1.0000
  C   C37       1.0  0.19944  0.48081  0.37710  1.0000
  H   H19       1.0  0.19980  0.49701  0.40147  1.0000
  C   C38       1.0  0.17322  0.72907  0.33990  1.0000
  C   C39       1.0  0.17958  0.74606  0.41497  1.0000
  C   C40       1.0  0.20289  0.77029  0.41307  1.0000
  H   H20       1.0  0.20788  0.78216  0.46814  1.0000
  N   N16       1.0  0.16478  0.73950  0.49064  1.0000
  H   H21       1.0  0.16966  0.75117  0.54189  1.0000
  H   H22       1.0  0.14905  0.72292  0.49680  1.0000
  C   C41       1.0  0.15222  0.60770  0.41490  1.0000
  C   C42       1.0  0.15094  0.63067  0.40907  1.0000
  H   H23       1.0  0.15414  0.64152  0.46610  1.0000
  N   N17       1.0  0.15827  0.59984  0.49693  1.0000
  O   O11       1.0  0.18031  0.61629  0.52472  1.0000
  C   C43       1.0  0.24624  0.45660  0.33946  1.0000
  C   C44       1.0  0.26303  0.46690  0.26455  1.0000
  C   C45       1.0  0.28721  0.46786  0.26595  1.0000
  H   H24       1.0  0.29930  0.47591  0.21194  1.0000
  N   N18       1.0  0.25552  0.47657  0.19047  1.0000
  O   O12       1.0  0.25411  0.46453  0.11941  1.0000
  O   O13       1.0  0.27100  0.50021  0.17804  1.0000
  C   C46       1.0  0.29420  0.84865  0.34469  1.0000
  C   C47       1.0  0.27153  0.84821  0.31261  1.0000
  C   C48       1.0  0.24739  0.82481  0.31335  1.0000
  C   C49       1.0  0.24481  0.80137  0.34529  1.0000
  N   N19       1.0  0.27322  0.87094  0.27659  1.0000
  O   O14       1.0  0.26684  0.86828  0.19498  1.0000
  O   O15       1.0  0.23901  0.75338  0.17794  1.0000
  O   O16       1.0  0.25941  0.87761  0.31966  1.0000
  C   C50       1.0  0.29530  0.45870  0.33992  1.0000
  C   C51       1.0  0.27831  0.44805  0.41496  1.0000
  C   C52       1.0  0.25407  0.44714  0.41305  1.0000
  H   H25       1.0  0.24220  0.44025  0.46811  1.0000
  N   N20       1.0  0.24463  0.50138  0.40958  1.0000
  H   H26       1.0  0.24426  0.51653  0.43159  1.0000
  H   H27       1.0  0.26118  0.50202  0.41197  1.0000
  N   N21       1.0  0.28486  0.43980  0.49061  1.0000
  H   H28       1.0  0.27319  0.43301  0.54185  1.0000
  C   C53       1.0  0.26722  0.80144  0.37789  1.0000
  C   C54       1.0  0.29120  0.82493  0.37708  1.0000
  N   N22       1.0  0.26657  0.77973  0.40952  1.0000
  H   H29       1.0  0.28209  0.78010  0.43150  1.0000
  H   H30       1.0  0.25065  0.76318  0.41188  1.0000
  C   C55       1.0  0.56427  0.73017  0.34465  1.0000
  C   C56       1.0  0.58651  0.75285  0.31258  1.0000
  C   C57       1.0  0.58723  0.77698  0.31332  1.0000
  C   C58       1.0  0.56637  0.77955  0.34530  1.0000
  C   C59       1.0  0.56777  0.80418  0.33949  1.0000
  C   C60       1.0  0.55751  0.81070  0.26451  1.0000
  C   C61       1.0  0.55658  0.83393  0.26589  1.0000
  H   H31       1.0  0.54854  0.83799  0.21185  1.0000
  H   H32       1.0  0.60324  0.79293  0.28836  1.0000
  N   N23       1.0  0.54785  0.79352  0.19040  1.0000
  N   N24       1.0  0.60755  0.75116  0.27656  1.0000
  O   O17       1.0  0.55993  0.80417  0.11939  1.0000
  O   O18       1.0  0.61127  0.75755  0.19495  1.0000
  O   O19       1.0  0.52423  0.78539  0.17786  1.0000
  O   O20       1.0  0.62803  0.76498  0.31964  1.0000
  C   C62       1.0  0.84706  0.56584  0.34463  1.0000
  C   C63       1.0  0.84663  0.58808  0.31262  1.0000
  C   C64       1.0  0.82321  0.58880  0.31336  1.0000
  C   C65       1.0  0.79978  0.56793  0.34529  1.0000
  C   C66       1.0  0.77655  0.56933  0.33948  1.0000
  C   C67       1.0  0.75977  0.55907  0.26451  1.0000
  C   C68       1.0  0.73560  0.55814  0.26589  1.0000
  H   H33       1.0  0.72351  0.55011  0.21186  1.0000
  H   H34       1.0  0.82328  0.60481  0.28844  1.0000
  N   N25       1.0  0.76729  0.54941  0.19040  1.0000
  N   N26       1.0  0.86935  0.60913  0.27666  1.0000
  O   O21       1.0  0.76872  0.56149  0.11939  1.0000
  O   O22       1.0  0.86670  0.61287  0.19506  1.0000
  O   O23       1.0  0.75179  0.52578  0.17786  1.0000
  O   O24       1.0  0.87601  0.62960  0.31979  1.0000
  C   C69       1.0  0.45852  0.29576  0.34468  1.0000
  C   C70       1.0  0.43628  0.27310  0.31256  1.0000
  C   C71       1.0  0.43555  0.24895  0.31331  1.0000
  C   C72       1.0  0.45641  0.24638  0.34530  1.0000
  C   C73       1.0  0.45502  0.22176  0.33946  1.0000
  C   C74       1.0  0.46531  0.21526  0.26453  1.0000
  C   C75       1.0  0.46626  0.19203  0.26594  1.0000
  H   H35       1.0  0.47431  0.18798  0.21192  1.0000
  H   H36       1.0  0.41955  0.23302  0.28828  1.0000
  N   N27       1.0  0.47498  0.23244  0.19045  1.0000
  N   N28       1.0  0.41525  0.27479  0.27650  1.0000
  O   O25       1.0  0.46293  0.22180  0.11940  1.0000
  O   O26       1.0  0.41154  0.26841  0.19488  1.0000
  O   O27       1.0  0.49861  0.24059  0.17800  1.0000
  O   O28       1.0  0.39476  0.26097  0.31952  1.0000
  C   C76       1.0  0.72859  0.17730  0.34466  1.0000
  C   C77       1.0  0.75126  0.17773  0.31260  1.0000
  C   C78       1.0  0.77540  0.20115  0.31334  1.0000
  C   C79       1.0  0.77796  0.22458  0.34531  1.0000
  C   C80       1.0  0.80259  0.24781  0.33949  1.0000
  C   C81       1.0  0.80910  0.26460  0.26455  1.0000
  C   C82       1.0  0.83233  0.28876  0.26592  1.0000
  H   H37       1.0  0.83638  0.30086  0.21191  1.0000
  H   H38       1.0  0.79134  0.20108  0.28839  1.0000
  N   N29       1.0  0.79191  0.25709  0.19047  1.0000
  N   N30       1.0  0.74958  0.15501  0.27659  1.0000
  O   O29       1.0  0.80255  0.25567  0.11942  1.0000
  O   O30       1.0  0.75597  0.15767  0.19498  1.0000
  O   O31       1.0  0.78378  0.27259  0.17800  1.0000
  O   O32       1.0  0.76340  0.14835  0.31968  1.0000
  C   C83       1.0  0.46160  0.61628  0.30328  1.0000
  C   C84       1.0  0.48696  0.63789  0.30742  1.0000
  H   H39       1.0  0.49034  0.65487  0.27859  1.0000
  C   C85       1.0  0.38639  0.52041  0.32813  1.0000
  C   C86       1.0  0.40220  0.53059  0.25031  1.0000
  C   C87       1.0  0.42488  0.55510  0.25623  1.0000
  H   H40       1.0  0.43664  0.56235  0.20096  1.0000
  N   N31       1.0  0.44262  0.61908  0.26356  1.0000
  H   H41       1.0  0.44612  0.63556  0.23845  1.0000
  H   H42       1.0  0.42487  0.60497  0.26068  1.0000
  N   N32       1.0  0.39646  0.51764  0.17057  1.0000
  H   H43       1.0  0.40746  0.52500  0.11795  1.0000
  H   H44       1.0  0.38084  0.50104  0.16257  1.0000
  C   C88       1.0  0.40807  0.85982  0.30331  1.0000
  C   C89       1.0  0.38648  0.86358  0.30744  1.0000
  H   H45       1.0  0.36950  0.84999  0.27860  1.0000
  C   C90       1.0  0.50398  0.88053  0.32829  1.0000
  C   C91       1.0  0.49377  0.88612  0.25040  1.0000
  C   C92       1.0  0.46926  0.88428  0.25632  1.0000
  H   H46       1.0  0.46199  0.88874  0.20101  1.0000
  N   N33       1.0  0.40527  0.83805  0.26354  1.0000
  H   H47       1.0  0.38879  0.82506  0.23849  1.0000
  H   H48       1.0  0.41937  0.83439  0.26076  1.0000
  N   N34       1.0  0.50670  0.89329  0.17062  1.0000
  H   H49       1.0  0.49932  0.89689  0.11797  1.0000
  H   H50       1.0  0.52331  0.89429  0.16261  1.0000
  C   C93       1.0  0.85829  0.46317  0.30330  1.0000
  C   C94       1.0  0.86204  0.48853  0.30744  1.0000
  H   H51       1.0  0.84844  0.49191  0.27862  1.0000
  C   C95       1.0  0.87893  0.38795  0.32815  1.0000
  C   C96       1.0  0.88456  0.40375  0.25031  1.0000
  C   C97       1.0  0.88273  0.42644  0.25622  1.0000
  H   H52       1.0  0.88722  0.43818  0.20093  1.0000
  N   N35       1.0  0.83650  0.44419  0.26360  1.0000
  H   H53       1.0  0.82352  0.44769  0.23851  1.0000
  H   H54       1.0  0.83286  0.42644  0.26074  1.0000
  N   N36       1.0  0.89174  0.39800  0.17055  1.0000
  H   H55       1.0  0.89537  0.40899  0.11791  1.0000
  H   H56       1.0  0.89272  0.38237  0.16255  1.0000
  C   C98       1.0  0.56122  0.40964  0.30334  1.0000
  C   C99       1.0  0.53586  0.38805  0.30745  1.0000
  H   H57       1.0  0.53248  0.37107  0.27863  1.0000
  C   C100      1.0  0.63641  0.50554  0.32835  1.0000
  C   C101      1.0  0.62064  0.49534  0.25044  1.0000
  C   C102      1.0  0.59795  0.47082  0.25634  1.0000
  H   H58       1.0  0.58623  0.46356  0.20101  1.0000
  N   N37       1.0  0.58020  0.40684  0.26363  1.0000
  H   H59       1.0  0.57670  0.39036  0.23860  1.0000
  H   H60       1.0  0.59796  0.42095  0.26087  1.0000
  N   N38       1.0  0.62641  0.50826  0.17065  1.0000
  H   H61       1.0  0.61544  0.50089  0.11798  1.0000
  H   H62       1.0  0.64203  0.52487  0.16266  1.0000
  C   C103      1.0  0.61469  0.16607  0.30328  1.0000
  C   C104      1.0  0.63630  0.16232  0.30742  1.0000
  H   H63       1.0  0.65328  0.17592  0.27859  1.0000
  C   C105      1.0  0.51881  0.14540  0.32813  1.0000
  C   C106      1.0  0.52899  0.13976  0.25031  1.0000
  C   C107      1.0  0.55351  0.14160  0.25623  1.0000
  H   H64       1.0  0.56076  0.13709  0.20096  1.0000
  N   N39       1.0  0.61749  0.18785  0.26355  1.0000
  H   H65       1.0  0.63397  0.20083  0.23844  1.0000
  H   H66       1.0  0.60338  0.19149  0.26068  1.0000
  N   N40       1.0  0.51605  0.13256  0.17057  1.0000
  H   H67       1.0  0.52341  0.12892  0.11795  1.0000
  H   H68       1.0  0.49944  0.13157  0.16257  1.0000
  C   C108      1.0  0.94292  0.36286  0.34949  1.0000
  C   C109      1.0  0.95417  0.34890  0.31201  1.0000
  C   C110      1.0  0.98147  0.35990  0.31201  1.0000
  C   C111      1.0  0.99819  0.38457  0.34883  1.0000
  H   H69       1.0  0.98926  0.34987  0.28231  1.0000
  N   N41       1.0  0.93810  0.32467  0.27084  1.0000
  O   O33       1.0  0.94306  0.32504  0.18845  1.0000
  O   O34       1.0  0.94033  0.30704  0.30829  1.0000
  C   C112      1.0  0.66150  0.59461  0.34938  1.0000
  C   C113      1.0  0.67549  0.61984  0.31206  1.0000
  C   C114      1.0  0.66450  0.63615  0.31207  1.0000
  C   C115      1.0  0.63981  0.62819  0.34882  1.0000
  C   C116      1.0  0.62873  0.64451  0.33997  1.0000
  C   C117      1.0  0.61474  0.64357  0.26164  1.0000
  C   C118      1.0  0.60015  0.65633  0.26118  1.0000
  H   H70       1.0  0.58911  0.65430  0.20567  1.0000
  H   H71       1.0  0.67454  0.65398  0.28250  1.0000
  N   N42       1.0  0.61447  0.62868  0.18698  1.0000
  N   N43       1.0  0.69973  0.62801  0.27102  1.0000
  O   O35       1.0  0.62319  0.64236  0.11753  1.0000
  O   O36       1.0  0.69940  0.63264  0.18863  1.0000
  O   O37       1.0  0.59206  0.61046  0.17066  1.0000
  O   O38       1.0  0.71735  0.64786  0.30862  1.0000
  C   C119      1.0  0.42973  0.08143  0.34950  1.0000
  C   C120      1.0  0.40452  0.07018  0.31201  1.0000
  C   C121      1.0  0.38822  0.04288  0.31202  1.0000
  C   C122      1.0  0.39617  0.02616  0.34886  1.0000
  C   C123      1.0  0.37987  0.99875  0.33995  1.0000
  C   C124      1.0  0.38082  0.98572  0.26162  1.0000
  C   C125      1.0  0.36809  0.95837  0.26123  1.0000
  H   H72       1.0  0.37009  0.94935  0.20567  1.0000
  H   H73       1.0  0.37041  0.03510  0.28230  1.0000
  N   N44       1.0  0.39568  0.00034  0.18693  1.0000
  N   N45       1.0  0.39637  0.08625  0.27081  1.0000
  O   O39       1.0  0.38198  0.99535  0.11752  1.0000
  O   O40       1.0  0.39179  0.08129  0.18841  1.0000
  O   O41       1.0  0.41391  0.99617  0.17057  1.0000
  O   O42       1.0  0.37650  0.08402  0.30825  1.0000
  C   C126      1.0  0.99719  0.63030  0.34001  1.0000
  C   C127      1.0  0.98415  0.61629  0.26173  1.0000
  C   C128      1.0  0.95679  0.60171  0.26129  1.0000
  H   H74       1.0  0.94778  0.59065  0.20581  1.0000
  N   N46       1.0  0.99875  0.61599  0.18711  1.0000
  O   O43       1.0  0.99380  0.62469  0.11759  1.0000
  O   O44       1.0  0.99456  0.59357  0.17090  1.0000
  C   C129      1.0  0.36128  0.43133  0.34950  1.0000
  C   C130      1.0  0.34732  0.40612  0.31201  1.0000
  C   C131      1.0  0.35832  0.38981  0.31201  1.0000
  C   C132      1.0  0.38299  0.39777  0.34885  1.0000
  C   C133      1.0  0.39409  0.38146  0.33995  1.0000
  C   C134      1.0  0.40804  0.38238  0.26156  1.0000
  C   C135      1.0  0.42266  0.36965  0.26116  1.0000
  H   H75       1.0  0.43364  0.37161  0.20553  1.0000
  H   H76       1.0  0.34829  0.37201  0.28230  1.0000
  N   N47       1.0  0.40826  0.39721  0.18683  1.0000
  N   N48       1.0  0.32310  0.39797  0.27081  1.0000
  O   O45       1.0  0.39951  0.38349  0.11748  1.0000
  O   O46       1.0  0.32348  0.39338  0.18842  1.0000
  O   O47       1.0  0.43065  0.41544  0.17034  1.0000
  O   O48       1.0  0.30546  0.37810  0.30825  1.0000
  C   C136      1.0  0.59304  0.94451  0.34935  1.0000
  C   C137      1.0  0.61828  0.95576  0.31206  1.0000
  C   C138      1.0  0.63459  0.98305  0.31208  1.0000
  C   C139      1.0  0.62662  0.99978  0.34881  1.0000
  C   C140      1.0  0.64294  0.02718  0.33996  1.0000
  C   C141      1.0  0.64199  0.04022  0.26163  1.0000
  C   C142      1.0  0.65475  0.06757  0.26118  1.0000
  H   H77       1.0  0.65272  0.07659  0.20567  1.0000
  H   H78       1.0  0.65241  0.99084  0.28252  1.0000
  N   N49       1.0  0.62710  0.02561  0.18697  1.0000
  N   N50       1.0  0.62645  0.93968  0.27103  1.0000
  O   O49       1.0  0.64079  0.03057  0.11752  1.0000
  O   O50       1.0  0.63108  0.94464  0.18865  1.0000
  O   O51       1.0  0.60888  0.02979  0.17066  1.0000
  O   O52       1.0  0.64629  0.94191  0.30866  1.0000
  C   C143      1.0  0.57877  0.67617  0.33841  1.0000
  N   N51       1.0  0.58212  0.70050  0.34065  1.0000
  C   C144      1.0  0.56163  0.70477  0.34337  1.0000
  N   N52       1.0  0.53754  0.68337  0.34511  1.0000
  C   C145      1.0  0.53322  0.65875  0.34457  1.0000
  N   N53       1.0  0.55431  0.65592  0.34044  1.0000
  C   C146      1.0  0.34823  0.91714  0.33854  1.0000
  N   N54       1.0  0.32389  0.89617  0.34072  1.0000
  C   C147      1.0  0.31960  0.87139  0.34343  1.0000
  N   N55       1.0  0.34100  0.86870  0.34518  1.0000
  C   C148      1.0  0.36562  0.88899  0.34466  1.0000
  N   N56       1.0  0.36847  0.91292  0.34054  1.0000
  C   C149      1.0  0.91557  0.58035  0.33848  1.0000
  N   N57       1.0  0.89458  0.58369  0.34068  1.0000
  C   C150      1.0  0.86982  0.56320  0.34337  1.0000
  N   N58       1.0  0.86715  0.53911  0.34510  1.0000
  C   C151      1.0  0.88745  0.53479  0.34457  1.0000
  N   N59       1.0  0.91137  0.55589  0.34048  1.0000
  C   C152      1.0  0.44405  0.34979  0.33836  1.0000
  N   N60       1.0  0.44069  0.32545  0.34063  1.0000
  C   C153      1.0  0.46117  0.32117  0.34338  1.0000
  N   N61       1.0  0.48526  0.34256  0.34514  1.0000
  C   C154      1.0  0.48960  0.36719  0.34459  1.0000
  N   N62       1.0  0.46851  0.37003  0.34042  1.0000
  C   C155      1.0  0.67458  0.10879  0.33842  1.0000
  N   N63       1.0  0.69891  0.12978  0.34065  1.0000
  C   C156      1.0  0.70319  0.15454  0.34338  1.0000
  N   N64       1.0  0.68178  0.15722  0.34512  1.0000
  C   C157      1.0  0.65716  0.13692  0.34457  1.0000
  N   N65       1.0  0.65433  0.11300  0.34044  1.0000
  C   C158      1.0  0.44844  0.10858  0.34438  1.0000
  N   N66       1.0  0.44292  0.12825  0.34490  1.0000
  C   C159      1.0  0.46192  0.15366  0.33959  1.0000
  N   N67       1.0  0.48694  0.15926  0.33363  1.0000
  C   C160      1.0  0.49308  0.14029  0.33204  1.0000
  N   N68       1.0  0.47378  0.11545  0.33752  1.0000
  C   C161      1.0  0.66995  0.57591  0.34434  1.0000
  N   N69       1.0  0.69514  0.58144  0.34483  1.0000
  C   C162      1.0  0.70156  0.56244  0.33958  1.0000
  N   N70       1.0  0.68215  0.53742  0.33372  1.0000
  C   C163      1.0  0.65704  0.53127  0.33216  1.0000
  N   N71       1.0  0.65149  0.55057  0.33758  1.0000
  C   C164      1.0  0.91577  0.35442  0.34438  1.0000
  N   N72       1.0  0.89611  0.32922  0.34489  1.0000
  C   C165      1.0  0.87069  0.32280  0.33957  1.0000
  N   N73       1.0  0.86509  0.34221  0.33363  1.0000
  C   C166      1.0  0.88405  0.36733  0.33205  1.0000
  N   N74       1.0  0.90889  0.37288  0.33754  1.0000
  C   C167      1.0  0.57434  0.91736  0.34430  1.0000
  N   N75       1.0  0.57987  0.89770  0.34481  1.0000
  C   C168      1.0  0.56088  0.87228  0.33956  1.0000
  N   N76       1.0  0.53586  0.86667  0.33367  1.0000
  C   C169      1.0  0.52971  0.88563  0.33206  1.0000
  N   N77       1.0  0.54900  0.91048  0.33750  1.0000
  C   C170      1.0  0.35285  0.45004  0.34438  1.0000
  N   N78       1.0  0.32765  0.44451  0.34491  1.0000
  C   C171      1.0  0.32124  0.46352  0.33960  1.0000
  N   N79       1.0  0.34066  0.48853  0.33364  1.0000
  C   C172      1.0  0.36576  0.49467  0.33204  1.0000
  N   N80       1.0  0.37131  0.47537  0.33752  1.0000
  H   H79       1.0  0.30144  0.44066  0.49679  1.0000
  C   C173      1.0  0.54403  0.75713  0.37787  1.0000
  C   C174      1.0  0.54355  0.73316  0.37703  1.0000
  H   H80       1.0  0.52734  0.71732  0.40138  1.0000
  C   C175      1.0  0.56572  0.85118  0.33987  1.0000
  C   C176      1.0  0.57628  0.84478  0.41504  1.0000
  C   C177      1.0  0.57720  0.82146  0.41314  1.0000
  H   H81       1.0  0.58403  0.81644  0.46828  1.0000
  N   N81       1.0  0.52297  0.75779  0.40950  1.0000
  H   H82       1.0  0.50782  0.74226  0.43144  1.0000
  H   H83       1.0  0.52233  0.77370  0.41185  1.0000
  N   N82       1.0  0.58448  0.85956  0.49075  1.0000
  H   H84       1.0  0.59123  0.85466  0.54206  1.0000
  H   H85       1.0  0.58364  0.87530  0.49688  1.0000
  H   H86       1.0  0.30704  0.82456  0.40144  1.0000
  C   C178      1.0  0.79986  0.54559  0.37780  1.0000
  C   C179      1.0  0.82335  0.54510  0.37695  1.0000
  H   H87       1.0  0.82298  0.52890  0.40127  1.0000
  C   C180      1.0  0.72750  0.56729  0.33988  1.0000
  C   C181      1.0  0.74447  0.57784  0.41504  1.0000
  C   C182      1.0  0.76870  0.57876  0.41313  1.0000
  H   H88       1.0  0.78055  0.58559  0.46827  1.0000
  N   N83       1.0  0.77814  0.52452  0.40938  1.0000
  H   H89       1.0  0.77851  0.50936  0.43129  1.0000
  H   H90       1.0  0.76159  0.52388  0.41174  1.0000
  N   N84       1.0  0.73789  0.58605  0.49076  1.0000
  H   H91       1.0  0.74954  0.59280  0.54207  1.0000
  H   H92       1.0  0.72132  0.58521  0.49689  1.0000
  C   C183      1.0  0.47874  0.26879  0.37792  1.0000
  C   C184      1.0  0.47924  0.29277  0.37709  1.0000
  H   H93       1.0  0.49544  0.30860  0.40147  1.0000
  C   C185      1.0  0.45711  0.17478  0.33991  1.0000
  C   C186      1.0  0.44647  0.18114  0.41496  1.0000
  C   C187      1.0  0.44556  0.20446  0.41306  1.0000
  H   H94       1.0  0.43867  0.20944  0.46813  1.0000
  N   N85       1.0  0.49980  0.26814  0.40957  1.0000
  H   H95       1.0  0.51495  0.28365  0.43157  1.0000
  H   H96       1.0  0.50043  0.25222  0.41195  1.0000
  N   N86       1.0  0.43822  0.16633  0.49063  1.0000
  H   H97       1.0  0.43144  0.17122  0.54187  1.0000
  H   H98       1.0  0.43908  0.15061  0.49679  1.0000
  C   C188      1.0  0.75555  0.22450  0.37786  1.0000
  C   C189      1.0  0.73157  0.20101  0.37702  1.0000
  H   H99       1.0  0.71573  0.20137  0.40136  1.0000
  C   C190      1.0  0.84959  0.29686  0.33988  1.0000
  C   C191      1.0  0.84320  0.27989  0.41501  1.0000
  C   C192      1.0  0.81989  0.25565  0.41311  1.0000
  H   H100      1.0  0.81488  0.24380  0.46822  1.0000
  N   N87       1.0  0.75620  0.24621  0.40948  1.0000
  H   H101      1.0  0.74067  0.24584  0.43142  1.0000
  H   H102      1.0  0.77211  0.26276  0.41185  1.0000
  N   N88       1.0  0.85799  0.28645  0.49070  1.0000
  H   H103      1.0  0.85310  0.27480  0.54199  1.0000
  H   H104      1.0  0.87372  0.30303  0.49684  1.0000
  C   C193      1.0  0.50786  0.63658  0.34688  1.0000
  C   C194      1.0  0.50276  0.61273  0.38583  1.0000
  C   C195      1.0  0.47749  0.59114  0.38233  1.0000
  C   C196      1.0  0.45691  0.59249  0.34126  1.0000
  C   C197      1.0  0.43244  0.56934  0.33737  1.0000
  C   C198      1.0  0.41667  0.55907  0.41475  1.0000
  C   C199      1.0  0.39368  0.53484  0.40886  1.0000
  H   H105      1.0  0.38284  0.52718  0.46591  1.0000
  H   H106      1.0  0.47422  0.57404  0.40991  1.0000
  N   N89       1.0  0.42453  0.57297  0.49679  1.0000
  N   N90       1.0  0.52261  0.61057  0.43021  1.0000
  O   O53       1.0  0.42817  0.56034  0.55695  1.0000
  O   O54       1.0  0.52679  0.59406  0.39346  1.0000
  O   O55       1.0  0.40809  0.57860  0.52452  1.0000
  O   O56       1.0  0.51759  0.60497  0.51206  1.0000
  C   C200      1.0  0.38778  0.88578  0.34698  1.0000
  C   C201      1.0  0.41163  0.90453  0.38597  1.0000
  C   C202      1.0  0.43322  0.90084  0.38247  1.0000
  C   C203      1.0  0.43187  0.87892  0.34132  1.0000
  C   C204      1.0  0.45502  0.87759  0.33746  1.0000
  C   C205      1.0  0.46530  0.87211  0.41486  1.0000
  C   C206      1.0  0.48955  0.87339  0.40901  1.0000
  H   H107      1.0  0.49720  0.87019  0.46602  1.0000
  H   H108      1.0  0.45031  0.91466  0.41008  1.0000
  N   N91       1.0  0.45138  0.86604  0.49688  1.0000
  N   N92       1.0  0.41379  0.92652  0.43041  1.0000
  O   O57       1.0  0.46399  0.88232  0.55705  1.0000
  O   O58       1.0  0.43031  0.94722  0.39372  1.0000
  O   O59       1.0  0.44579  0.84399  0.52461  1.0000
  O   O60       1.0  0.41938  0.92708  0.51226  1.0000
  C   C207      1.0  0.88425  0.50943  0.34687  1.0000
  C   C208      1.0  0.90301  0.50434  0.38579  1.0000
  C   C209      1.0  0.89933  0.47906  0.38229  1.0000
  C   C210      1.0  0.87739  0.45848  0.34125  1.0000
  C   C211      1.0  0.87607  0.43401  0.33738  1.0000
  C   C212      1.0  0.87059  0.41825  0.41478  1.0000
  C   C213      1.0  0.87181  0.39525  0.40889  1.0000
  H   H109      1.0  0.86865  0.38442  0.46595  1.0000
  H   H110      1.0  0.91316  0.47579  0.40986  1.0000
  N   N93       1.0  0.86455  0.42612  0.49683  1.0000
  N   N94       1.0  0.92502  0.52418  0.43014  1.0000
  O   O61       1.0  0.88083  0.42976  0.55695  1.0000
  O   O62       1.0  0.94570  0.52836  0.39337  1.0000
  O   O63       1.0  0.84250  0.40969  0.52460  1.0000
  O   O64       1.0  0.92561  0.51917  0.51199  1.0000
  C   C214      1.0  0.51496  0.38935  0.34693  1.0000
  C   C215      1.0  0.52006  0.41320  0.38590  1.0000
  C   C216      1.0  0.54533  0.43479  0.38242  1.0000
  C   C217      1.0  0.56592  0.43344  0.34132  1.0000
  C   C218      1.0  0.59039  0.45659  0.33749  1.0000
  C   C219      1.0  0.60613  0.46687  0.41493  1.0000
  C   C220      1.0  0.62910  0.49112  0.40910  1.0000
  H   H111      1.0  0.63994  0.49878  0.46614  1.0000
  H   H112      1.0  0.54860  0.45189  0.41000  1.0000
  N   N95       1.0  0.59826  0.45296  0.49696  1.0000
  N   N96       1.0  0.50021  0.41536  0.43028  1.0000
  O   O65       1.0  0.59459  0.46558  0.55708  1.0000
  O   O66       1.0  0.49604  0.43187  0.39356  1.0000
  O   O67       1.0  0.61471  0.44737  0.52476  1.0000
  O   O68       1.0  0.50523  0.42095  0.51214  1.0000
  C   C221      1.0  0.63500  0.14012  0.34689  1.0000
  C   C222      1.0  0.61114  0.12136  0.38583  1.0000
  C   C223      1.0  0.58955  0.12504  0.38233  1.0000
  C   C224      1.0  0.59089  0.14697  0.34126  1.0000
  C   C225      1.0  0.56774  0.14828  0.33737  1.0000
  C   C226      1.0  0.55747  0.15378  0.41475  1.0000
  C   C227      1.0  0.53324  0.15254  0.40886  1.0000
  H   H113      1.0  0.52558  0.15572  0.46590  1.0000
  H   H114      1.0  0.57246  0.11121  0.40991  1.0000
  N   N97       1.0  0.57138  0.15983  0.49679  1.0000
  N   N98       1.0  0.60899  0.09935  0.43022  1.0000
  O   O69       1.0  0.55875  0.14357  0.55695  1.0000
  O   O70       1.0  0.59248  0.07867  0.39347  1.0000
  O   O71       1.0  0.57700  0.18189  0.52450  1.0000
  O   O72       1.0  0.60339  0.09877  0.51206  1.0000
  C   C228      1.0  0.98718  0.39860  0.38788  1.0000
  C   C229      1.0  0.95996  0.38736  0.38797  1.0000
  H   H115      1.0  0.95238  0.39776  0.41623  1.0000
  N   N99       1.0  0.00175  0.42271  0.42336  1.0000
  H   H116      1.0  0.99381  0.43208  0.44886  1.0000
  C   C230      1.0  0.62576  0.60315  0.38777  1.0000
  C   C231      1.0  0.63699  0.58715  0.38784  1.0000
  H   H117      1.0  0.62658  0.56916  0.41603  1.0000
  C   C232      1.0  0.59889  0.67000  0.33701  1.0000
  C   C233      1.0  0.61312  0.67120  0.41556  1.0000
  C   C234      1.0  0.62800  0.65867  0.41513  1.0000
  H   H118      1.0  0.63734  0.65856  0.47283  1.0000
  N   N100      1.0  0.60165  0.59360  0.42324  1.0000
  H   H119      1.0  0.59228  0.57630  0.44873  1.0000
  H   H120      1.0  0.59282  0.60352  0.42370  1.0000
  N   N101      1.0  0.61200  0.68286  0.49281  1.0000
  H   H121      1.0  0.62159  0.68322  0.54630  1.0000
  H   H122      1.0  0.60201  0.69157  0.49695  1.0000
  C   C235      1.0  0.42120  0.03717  0.38793  1.0000
  C   C236      1.0  0.43720  0.06440  0.38801  1.0000
  H   H123      1.0  0.45517  0.07198  0.41630  1.0000
  C   C237      1.0  0.35443  0.94343  0.33705  1.0000
  C   C238      1.0  0.35318  0.95646  0.41557  1.0000
  C   C239      1.0  0.36573  0.98387  0.41514  1.0000
  H   H124      1.0  0.36580  0.99332  0.47281  1.0000
  N   N102      1.0  0.43074  0.02261  0.42346  1.0000
  H   H125      1.0  0.44804  0.03054  0.44899  1.0000
  H   H126      1.0  0.42085  0.00386  0.42386  1.0000
  N   N103      1.0  0.34151  0.94369  0.49281  1.0000
  H   H127      1.0  0.34113  0.95291  0.54627  1.0000
  H   H128      1.0  0.33280  0.92498  0.49696  1.0000
  C   C240      1.0  0.94185  0.60047  0.33707  1.0000
  C   C241      1.0  0.95490  0.61472  0.41558  1.0000
  C   C242      1.0  0.98231  0.62960  0.41514  1.0000
  H   H129      1.0  0.99176  0.63895  0.47283  1.0000
  H   H130      1.0  0.00228  0.59441  0.42386  1.0000
  N   N104      1.0  0.94213  0.61362  0.49281  1.0000
  H   H131      1.0  0.95135  0.62322  0.54628  1.0000
  H   H132      1.0  0.92341  0.60364  0.49695  1.0000
  C   C243      1.0  0.39702  0.42280  0.38792  1.0000
  C   C244      1.0  0.38578  0.43879  0.38801  1.0000
  H   H133      1.0  0.39617  0.45677  0.41629  1.0000
  C   C245      1.0  0.42396  0.35598  0.33696  1.0000
  C   C246      1.0  0.40973  0.35480  0.41554  1.0000
  C   C247      1.0  0.39486  0.36735  0.41516  1.0000
  H   H134      1.0  0.38552  0.36745  0.47287  1.0000
  N   N105      1.0  0.42112  0.43235  0.42343  1.0000
  H   H135      1.0  0.43049  0.44965  0.44895  1.0000
  H   H136      1.0  0.42998  0.42245  0.42380  1.0000
  N   N106      1.0  0.41086  0.34316  0.49281  1.0000
  H   H137      1.0  0.40129  0.34282  0.54632  1.0000
  H   H138      1.0  0.42085  0.33444  0.49694  1.0000
  C   C248      1.0  0.60157  0.98878  0.38774  1.0000
  C   C249      1.0  0.58557  0.96155  0.38780  1.0000
  H   H139      1.0  0.56759  0.95398  0.41598  1.0000
  C   C250      1.0  0.66842  0.08251  0.33701  1.0000
  C   C251      1.0  0.66963  0.06948  0.41556  1.0000
  C   C252      1.0  0.65709  0.04206  0.41512  1.0000
  H   H140      1.0  0.65699  0.03262  0.47282  1.0000
  N   N107      1.0  0.59203  0.00335  0.42320  1.0000
  H   H141      1.0  0.57472  0.99541  0.44868  1.0000
  H   H142      1.0  0.60194  0.02209  0.42367  1.0000
  N   N108      1.0  0.68128  0.08225  0.49281  1.0000
  H   H143      1.0  0.68164  0.07303  0.54629  1.0000
  H   H144      1.0  0.68999  0.10096  0.49695  1.0000
