data_image0
_chemical_formula_structural       C3HOHC3HOHC3HOHC3HOHC3OH2C3OH2C3HOHC3HOHC3OH2C3OH2C3HOHC3HOHC3HOHC3HOHC3OH2C3OH2C3OH2C3OH2C6H3C6H3C6H3C6H3C6H3C6H3C6H3C6H3C6H3C6H3C6H3C6H3C3OH2C3OH2C3OH2C3OH2C3HOHC3HOHC3OH2C3OH2C3HOHC3HOHC3OH2C3OH2C3OH2C3OH2C3HOHC3HOHC3HOHC3HOHC3HOHC3HOHC3HOHC3HOHC3OH2C3OH2C3HOHC3HOHC3OH2C3OH2C3HOHC3HOHC3HOHC3HOHC3OH2C3OH2C3OH2C3OH2C6H3C6H3C6H3C6H3C6H3C6H3C6H3C6H3C6H3C6H3C6H3C6H3C3OH2C3OH2C3OH2C3OH2C3HOHC3HOHC3OH2C3OH2C3HOHC3HOHC3OH2C3OH2C3OH2C3OH2C3HOHC3HOHC3HOHC3HOH
_chemical_formula_sum              "C360 H216 O72"
_cell_length_a       43.1042
_cell_length_b       55.8831
_cell_length_c       14.9259
_cell_angle_alpha    90
_cell_angle_beta     90
_cell_angle_gamma    90

_space_group_name_H-M_alt    "P 1"
_space_group_IT_number       1

loop_
  _space_group_symop_operation_xyz
  'x, y, z'

loop_
  _atom_site_type_symbol
  _atom_site_label
  _atom_site_symmetry_multiplicity
  _atom_site_fract_x
  _atom_site_fract_y
  _atom_site_fract_z
  _atom_site_occupancy
  C   C1        1.0  0.23544  0.15167  0.31161  1.0000
  C   C2        1.0  0.26833  0.15165  0.31007  1.0000
  C   C3        1.0  0.28537  0.16951  0.35683  1.0000
  H   H1        1.0  0.22396  0.14016  0.26981  1.0000
  O   O1        1.0  0.28248  0.13606  0.25308  1.0000
  H   H2        1.0  0.28553  0.14468  0.19628  1.0000
  C   C4        1.0  0.26872  0.82012  0.26358  1.0000
  C   C5        1.0  0.23621  0.81947  0.26321  1.0000
  C   C6        1.0  0.21895  0.83518  0.31888  1.0000
  H   H3        1.0  0.28006  0.80862  0.22130  1.0000
  O   O2        1.0  0.22192  0.80505  0.20163  1.0000
  H   H4        1.0  0.22802  0.78840  0.21405  1.0000
  C   C7        1.0  0.48581  0.65093  0.31727  1.0000
  C   C8        1.0  0.01870  0.65096  0.31587  1.0000
  C   C9        1.0  0.03565  0.66843  0.36484  1.0000
  H   H5        1.0  0.47450  0.63992  0.27330  1.0000
  O   O3        1.0  0.03297  0.63604  0.25664  1.0000
  H   H6        1.0  0.03564  0.64517  0.20080  1.0000
  C   C10       1.0  0.01855  0.32168  0.25271  1.0000
  C   C11       1.0  0.48600  0.32134  0.25179  1.0000
  C   C12       1.0  0.46881  0.33654  0.30972  1.0000
  H   H7        1.0  0.02987  0.31039  0.20962  1.0000
  O   O4        1.0  0.47154  0.30758  0.18847  1.0000
  H   H8        1.0  0.47777  0.29081  0.19782  1.0000
  C   C13       1.0  0.08640  0.10090  0.31227  1.0000
  C   C14       1.0  0.11133  0.11742  0.30651  1.0000
  C   C15       1.0  0.10931  0.14044  0.34706  1.0000
  O   O5        1.0  0.13545  0.11138  0.25211  1.0000
  H   H9        1.0  0.08775  0.08557  0.27498  1.0000
  H   H10       1.0  0.13133  0.11891  0.19372  1.0000
  C   C16       1.0  0.44664  0.87694  0.27353  1.0000
  C   C17       1.0  0.42310  0.85957  0.27561  1.0000
  C   C18       1.0  0.39587  0.86324  0.32738  1.0000
  O   O6        1.0  0.42553  0.84099  0.21640  1.0000
  H   H11       1.0  0.46498  0.87374  0.23160  1.0000
  H   H12       1.0  0.44392  0.83154  0.23317  1.0000
  C   C19       1.0  0.39232  0.11907  0.30954  1.0000
  C   C20       1.0  0.41666  0.10196  0.30889  1.0000
  C   C21       1.0  0.44531  0.10672  0.35266  1.0000
  H   H13       1.0  0.37315  0.11562  0.27123  1.0000
  O   O7        1.0  0.41261  0.08221  0.25687  1.0000
  H   H14       1.0  0.42189  0.08593  0.19829  1.0000
  C   C22       1.0  0.08312  0.86021  0.27392  1.0000
  C   C23       1.0  0.05834  0.87648  0.26845  1.0000
  C   C24       1.0  0.05876  0.89833  0.31754  1.0000
  H   H15       1.0  0.08180  0.84511  0.23518  1.0000
  O   O8        1.0  0.03571  0.87183  0.20650  1.0000
  H   H16       1.0  0.02593  0.85645  0.22196  1.0000
  C   C25       1.0  0.30858  0.62715  0.25437  1.0000
  C   C26       1.0  0.33267  0.64417  0.25475  1.0000
  C   C27       1.0  0.35993  0.64043  0.30657  1.0000
  O   O9        1.0  0.33055  0.66272  0.19532  1.0000
  H   H17       1.0  0.28992  0.63053  0.21385  1.0000
  H   H18       1.0  0.31202  0.67217  0.21081  1.0000
  C   C28       1.0  0.19887  0.37613  0.28309  1.0000
  C   C29       1.0  0.17497  0.35902  0.28067  1.0000
  C   C30       1.0  0.14640  0.36315  0.32577  1.0000
  O   O10       1.0  0.17870  0.34020  0.22312  1.0000
  H   H19       1.0  0.21834  0.37256  0.24606  1.0000
  H   H20       1.0  0.19645  0.33066  0.24434  1.0000
  C   C31       1.0  0.14263  0.61877  0.31331  1.0000
  C   C32       1.0  0.16707  0.60181  0.30935  1.0000
  C   C33       1.0  0.19667  0.60702  0.34668  1.0000
  H   H21       1.0  0.12270  0.61493  0.27900  1.0000
  O   O11       1.0  0.16202  0.58174  0.25978  1.0000
  H   H22       1.0  0.16993  0.58514  0.19927  1.0000
  C   C34       1.0  0.36246  0.38724  0.32490  1.0000
  C   C35       1.0  0.33787  0.40409  0.32426  1.0000
  C   C36       1.0  0.30948  0.39914  0.36908  1.0000
  H   H23       1.0  0.38108  0.39070  0.28446  1.0000
  O   O12       1.0  0.34119  0.42349  0.26990  1.0000
  H   H24       1.0  0.33202  0.41911  0.21179  1.0000
  C   C37       1.0  0.14624  0.24301  0.26707  1.0000
  C   C38       1.0  0.13887  0.26758  0.26708  1.0000
  C   C39       1.0  0.11867  0.27709  0.33302  1.0000
  H   H25       1.0  0.16095  0.23667  0.21867  1.0000
  O   O13       1.0  0.15161  0.28160  0.20216  1.0000
  H   H26       1.0  0.13584  0.28311  0.15491  1.0000
  C   C40       1.0  0.35911  0.76147  0.26729  1.0000
  C   C41       1.0  0.36675  0.73694  0.26628  1.0000
  C   C42       1.0  0.38494  0.72693  0.33601  1.0000
  H   H27       1.0  0.34603  0.76819  0.21580  1.0000
  O   O14       1.0  0.35642  0.72356  0.19608  1.0000
  H   H28       1.0  0.37375  0.72257  0.15338  1.0000
  C   C43       1.0  0.39522  0.26250  0.27202  1.0000
  C   C44       1.0  0.38764  0.23796  0.27187  1.0000
  C   C45       1.0  0.36941  0.22817  0.34178  1.0000
  O   O15       1.0  0.39814  0.22424  0.20285  1.0000
  H   H29       1.0  0.40828  0.26904  0.22017  1.0000
  H   H30       1.0  0.38108  0.22336  0.15923  1.0000
  C   C46       1.0  0.10590  0.74362  0.28017  1.0000
  C   C47       1.0  0.11350  0.76817  0.27926  1.0000
  C   C48       1.0  0.13381  0.77778  0.34478  1.0000
  O   O16       1.0  0.10113  0.78198  0.21313  1.0000
  H   H31       1.0  0.09128  0.73716  0.23178  1.0000
  H   H32       1.0  0.11699  0.78303  0.16593  1.0000
  C   C49       1.0  0.01981  0.98963  0.27614  1.0000
  C   C50       1.0  0.01964  0.01490  0.27334  1.0000
  C   C51       1.0  0.00204  0.02832  0.33611  1.0000
  O   O17       1.0  0.03663  0.02579  0.20814  1.0000
  H   H33       1.0  0.03235  0.98062  0.22863  1.0000
  H   H34       1.0  0.02198  0.02991  0.16004  1.0000
  C   C52       1.0  0.26911  0.48884  0.27602  1.0000
  C   C53       1.0  0.26902  0.51407  0.27006  1.0000
  C   C54       1.0  0.25212  0.52818  0.33251  1.0000
  O   O18       1.0  0.28543  0.52414  0.20183  1.0000
  H   H35       1.0  0.28140  0.47930  0.22942  1.0000
  H   H36       1.0  0.27024  0.52834  0.15525  1.0000
  C   C55       1.0  0.14324  0.20263  0.33309  1.0000
  C   C56       1.0  0.17501  0.19714  0.33765  1.0000
  C   C57       1.0  0.18628  0.17337  0.34403  1.0000
  C   C58       1.0  0.16434  0.15451  0.33736  1.0000
  C   C59       1.0  0.13187  0.15902  0.33854  1.0000
  C   C60       1.0  0.12215  0.18338  0.33602  1.0000
  H   H37       1.0  0.17202  0.13734  0.34576  1.0000
  H   H38       1.0  0.09901  0.18735  0.33153  1.0000
  H   H39       1.0  0.19045  0.21105  0.33548  1.0000
  C   C61       1.0  0.36054  0.80145  0.33659  1.0000
  C   C62       1.0  0.32894  0.80741  0.33192  1.0000
  C   C63       1.0  0.31814  0.83139  0.33100  1.0000
  C   C64       1.0  0.34065  0.84985  0.33840  1.0000
  C   C65       1.0  0.37301  0.84485  0.33548  1.0000
  C   C66       1.0  0.38211  0.82037  0.33817  1.0000
  H   H40       1.0  0.33346  0.86718  0.33161  1.0000
  H   H41       1.0  0.40509  0.81601  0.34275  1.0000
  H   H42       1.0  0.31325  0.79363  0.33345  1.0000
  C   C67       1.0  0.36023  0.20361  0.34198  1.0000
  C   C68       1.0  0.32862  0.19765  0.34666  1.0000
  C   C69       1.0  0.31782  0.17367  0.34733  1.0000
  C   C70       1.0  0.34034  0.15522  0.34028  1.0000
  C   C71       1.0  0.37270  0.16020  0.34342  1.0000
  C   C72       1.0  0.38179  0.18467  0.34062  1.0000
  H   H43       1.0  0.33313  0.13788  0.34700  1.0000
  H   H44       1.0  0.40478  0.18903  0.33593  1.0000
  H   H45       1.0  0.31292  0.21142  0.34482  1.0000
  C   C73       1.0  0.14352  0.80226  0.34242  1.0000
  C   C74       1.0  0.17531  0.80774  0.33806  1.0000
  C   C75       1.0  0.18659  0.83150  0.33163  1.0000
  C   C76       1.0  0.16465  0.85037  0.33778  1.0000
  C   C77       1.0  0.13219  0.84586  0.33614  1.0000
  C   C78       1.0  0.12245  0.82151  0.33893  1.0000
  H   H46       1.0  0.17239  0.86750  0.32900  1.0000
  H   H47       1.0  0.09930  0.81755  0.34329  1.0000
  H   H48       1.0  0.19074  0.79383  0.34065  1.0000
  C   C79       1.0  0.39431  0.70232  0.33508  1.0000
  C   C80       1.0  0.42568  0.69637  0.34785  1.0000
  C   C81       1.0  0.43658  0.67247  0.35090  1.0000
  C   C82       1.0  0.41462  0.65411  0.33348  1.0000
  C   C83       1.0  0.38257  0.65890  0.31864  1.0000
  C   C84       1.0  0.37326  0.68333  0.32187  1.0000
  H   H49       1.0  0.42222  0.63679  0.33261  1.0000
  H   H50       1.0  0.35022  0.68761  0.32047  1.0000
  H   H51       1.0  0.44129  0.71016  0.35024  1.0000
  C   C85       1.0  0.10974  0.30170  0.33229  1.0000
  C   C86       1.0  0.07828  0.30791  0.32456  1.0000
  C   C87       1.0  0.06793  0.33200  0.32283  1.0000
  C   C88       1.0  0.09072  0.35023  0.33098  1.0000
  C   C89       1.0  0.12305  0.34500  0.33063  1.0000
  C   C90       1.0  0.13160  0.32043  0.33445  1.0000
  H   H52       1.0  0.08376  0.36762  0.32426  1.0000
  H   H53       1.0  0.15435  0.31581  0.34345  1.0000
  H   H54       1.0  0.06239  0.29427  0.32292  1.0000
  C   C91       1.0  0.10981  0.70321  0.34557  1.0000
  C   C92       1.0  0.07832  0.69701  0.35284  1.0000
  C   C93       1.0  0.06797  0.67292  0.35442  1.0000
  C   C94       1.0  0.09076  0.65468  0.34676  1.0000
  C   C95       1.0  0.12310  0.65990  0.34768  1.0000
  C   C96       1.0  0.13167  0.68447  0.34388  1.0000
  H   H55       1.0  0.08376  0.63730  0.35337  1.0000
  H   H56       1.0  0.15442  0.68908  0.33509  1.0000
  H   H57       1.0  0.06243  0.71065  0.35415  1.0000
  C   C97       1.0  0.39422  0.30271  0.34076  1.0000
  C   C98       1.0  0.42560  0.30862  0.32783  1.0000
  C   C99       1.0  0.43654  0.33252  0.32429  1.0000
  C   C100      1.0  0.41460  0.35093  0.34113  1.0000
  C   C101      1.0  0.38256  0.34618  0.35626  1.0000
  C   C102      1.0  0.37321  0.32175  0.35355  1.0000
  H   H58       1.0  0.42221  0.36824  0.34163  1.0000
  H   H59       1.0  0.35015  0.31751  0.35539  1.0000
  H   H60       1.0  0.44119  0.29482  0.32573  1.0000
  C   C103      1.0  0.03097  0.09231  0.34939  1.0000
  C   C104      1.0  0.50187  0.10395  0.34716  1.0000
  C   C105      1.0  0.47271  0.09231  0.34641  1.0000
  C   C106      1.0  0.47357  0.06703  0.33891  1.0000
  C   C107      1.0  0.00196  0.05405  0.33650  1.0000
  C   C108      1.0  0.03030  0.06708  0.34011  1.0000
  H   H61       1.0  0.45315  0.05773  0.33973  1.0000
  H   H62       1.0  0.05076  0.05784  0.34331  1.0000
  H   H63       1.0  0.50194  0.12212  0.33873  1.0000
  C   C109      1.0  0.47314  0.91263  0.33091  1.0000
  C   C110      1.0  0.00229  0.90099  0.32908  1.0000
  C   C111      1.0  0.03137  0.91263  0.32580  1.0000
  C   C112      1.0  0.03072  0.93787  0.33492  1.0000
  C   C113      1.0  0.50241  0.95091  0.33983  1.0000
  C   C114      1.0  0.47402  0.93791  0.33866  1.0000
  H   H64       1.0  0.05123  0.94707  0.33341  1.0000
  H   H65       1.0  0.45361  0.94721  0.33604  1.0000
  H   H66       1.0  0.00240  0.88282  0.33749  1.0000
  C   C115      1.0  0.28170  0.59208  0.31662  1.0000
  C   C116      1.0  0.25289  0.60411  0.32392  1.0000
  C   C117      1.0  0.22386  0.59261  0.33570  1.0000
  C   C118      1.0  0.22423  0.56724  0.33404  1.0000
  C   C119      1.0  0.25232  0.55395  0.32973  1.0000
  C   C120      1.0  0.28072  0.56681  0.32413  1.0000
  H   H67       1.0  0.20379  0.55820  0.34197  1.0000
  H   H68       1.0  0.30102  0.55743  0.31987  1.0000
  H   H69       1.0  0.25307  0.62239  0.32158  1.0000
  C   C121      1.0  0.22381  0.41230  0.34236  1.0000
  C   C122      1.0  0.25292  0.40087  0.35341  1.0000
  C   C123      1.0  0.28174  0.41297  0.35939  1.0000
  C   C124      1.0  0.28068  0.43823  0.35112  1.0000
  C   C125      1.0  0.25217  0.45093  0.34614  1.0000
  C   C126      1.0  0.22406  0.43766  0.34360  1.0000
  H   H70       1.0  0.30084  0.44775  0.35682  1.0000
  H   H71       1.0  0.20369  0.44669  0.33403  1.0000
  H   H72       1.0  0.25318  0.38260  0.35613  1.0000
  C   C127      1.0  0.26822  0.18485  0.41380  1.0000
  C   C128      1.0  0.23571  0.18542  0.41362  1.0000
  C   C129      1.0  0.21861  0.16971  0.35745  1.0000
  O   O19       1.0  0.22123  0.19974  0.47513  1.0000
  H   H73       1.0  0.27943  0.19635  0.45635  1.0000
  H   H74       1.0  0.22731  0.21642  0.46309  1.0000
  C   C130      1.0  0.23562  0.85332  0.36473  1.0000
  C   C131      1.0  0.26851  0.85338  0.36703  1.0000
  C   C132      1.0  0.28570  0.83550  0.32082  1.0000
  O   O20       1.0  0.28248  0.86902  0.42414  1.0000
  H   H75       1.0  0.22403  0.86481  0.40633  1.0000
  H   H76       1.0  0.28538  0.86045  0.48112  1.0000
  C   C133      1.0  0.01847  0.68318  0.42385  1.0000
  C   C134      1.0  0.48592  0.68351  0.42431  1.0000
  C   C135      1.0  0.46882  0.66841  0.36575  1.0000
  O   O21       1.0  0.47135  0.69715  0.48778  1.0000
  H   H77       1.0  0.02972  0.69442  0.46729  1.0000
  H   H78       1.0  0.47759  0.71394  0.47894  1.0000
  C   C136      1.0  0.48571  0.35411  0.35803  1.0000
  C   C137      1.0  0.01860  0.35404  0.36008  1.0000
  C   C138      1.0  0.03563  0.33649  0.31171  1.0000
  O   O22       1.0  0.03274  0.36902  0.41932  1.0000
  H   H79       1.0  0.47434  0.36514  0.40177  1.0000
  H   H80       1.0  0.03529  0.35996  0.47536  1.0000
  C   C139      1.0  0.08287  0.14468  0.40094  1.0000
  C   C140      1.0  0.05808  0.12842  0.40658  1.0000
  C   C141      1.0  0.05837  0.10661  0.35727  1.0000
  H   H81       1.0  0.08163  0.15973  0.43995  1.0000
  O   O23       1.0  0.03561  0.13301  0.46906  1.0000
  H   H82       1.0  0.02579  0.14841  0.45399  1.0000
  C   C142      1.0  0.39281  0.88594  0.36944  1.0000
  C   C143      1.0  0.41719  0.90302  0.36970  1.0000
  C   C144      1.0  0.44571  0.89824  0.32525  1.0000
  H   H83       1.0  0.37372  0.88941  0.40804  1.0000
  O   O24       1.0  0.41333  0.92277  0.42187  1.0000
  H   H84       1.0  0.42285  0.91906  0.48015  1.0000
  C   C145      1.0  0.44641  0.12804  0.40424  1.0000
  C   C146      1.0  0.42290  0.14544  0.40256  1.0000
  C   C147      1.0  0.39554  0.14179  0.35134  1.0000
  O   O25       1.0  0.42551  0.16404  0.46160  1.0000
  H   H85       1.0  0.46487  0.13124  0.44573  1.0000
  H   H86       1.0  0.44389  0.17346  0.44444  1.0000
  C   C148      1.0  0.08689  0.90408  0.36189  1.0000
  C   C149      1.0  0.11179  0.88753  0.36758  1.0000
  C   C150      1.0  0.10965  0.86446  0.32743  1.0000
  O   O26       1.0  0.13597  0.89362  0.42164  1.0000
  H   H87       1.0  0.08829  0.91942  0.39906  1.0000
  H   H88       1.0  0.13192  0.88616  0.48019  1.0000
  C   C151      1.0  0.36255  0.61779  0.34943  1.0000
  C   C152      1.0  0.33795  0.60096  0.35041  1.0000
  C   C153      1.0  0.30938  0.60597  0.30662  1.0000
  H   H89       1.0  0.38130  0.61427  0.38927  1.0000
  O   O27       1.0  0.34151  0.58148  0.40426  1.0000
  H   H90       1.0  0.33246  0.58574  0.46265  1.0000
  C   C154      1.0  0.14262  0.38610  0.36535  1.0000
  C   C155      1.0  0.16707  0.40307  0.36926  1.0000
  C   C156      1.0  0.19665  0.39784  0.33183  1.0000
  H   H91       1.0  0.12268  0.38996  0.39958  1.0000
  O   O28       1.0  0.16206  0.42317  0.41873  1.0000
  H   H92       1.0  0.17010  0.41982  0.47914  1.0000
  C   C157      1.0  0.19890  0.62872  0.39546  1.0000
  C   C158      1.0  0.17500  0.64585  0.39788  1.0000
  C   C159      1.0  0.14643  0.64173  0.35278  1.0000
  O   O29       1.0  0.17876  0.66468  0.45534  1.0000
  H   H93       1.0  0.21840  0.63230  0.43235  1.0000
  H   H94       1.0  0.19652  0.67420  0.43409  1.0000
  C   C160      1.0  0.30888  0.37807  0.42199  1.0000
  C   C161      1.0  0.33294  0.36104  0.42121  1.0000
  C   C162      1.0  0.35998  0.36468  0.36839  1.0000
  O   O30       1.0  0.33105  0.34259  0.48112  1.0000
  H   H95       1.0  0.29037  0.37477  0.46319  1.0000
  H   H96       1.0  0.31247  0.33311  0.46639  1.0000
  C   C163      1.0  0.10578  0.26120  0.39681  1.0000
  C   C164      1.0  0.11329  0.23664  0.39705  1.0000
  C   C165      1.0  0.13356  0.22711  0.33122  1.0000
  O   O31       1.0  0.10089  0.22272  0.46283  1.0000
  H   H97       1.0  0.09116  0.26760  0.44534  1.0000
  H   H98       1.0  0.11676  0.22156  0.50999  1.0000
  C   C166      1.0  0.39539  0.74239  0.40501  1.0000
  C   C167      1.0  0.38788  0.76694  0.40581  1.0000
  C   C168      1.0  0.36970  0.77689  0.33610  1.0000
  O   O32       1.0  0.39838  0.78052  0.47522  1.0000
  H   H99       1.0  0.40840  0.73572  0.45671  1.0000
  H   H100      1.0  0.38133  0.78129  0.51890  1.0000
  C   C169      1.0  0.35883  0.24374  0.41011  1.0000
  C   C170      1.0  0.36655  0.26826  0.41049  1.0000
  C   C171      1.0  0.38479  0.27812  0.34054  1.0000
  H   H101      1.0  0.34572  0.23714  0.46175  1.0000
  O   O33       1.0  0.35624  0.28179  0.48030  1.0000
  H   H102      1.0  0.37357  0.28285  0.52296  1.0000
  C   C172      1.0  0.14644  0.76198  0.40936  1.0000
  C   C173      1.0  0.13899  0.73742  0.41001  1.0000
  C   C174      1.0  0.11874  0.72783  0.34436  1.0000
  H   H103      1.0  0.16117  0.76838  0.45760  1.0000
  O   O34       1.0  0.15170  0.72350  0.47530  1.0000
  H   H104      1.0  0.13591  0.72210  0.52257  1.0000
  C   C175      1.0  0.98463  0.01537  0.40034  1.0000
  C   C176      1.0  0.98483  0.99010  0.40320  1.0000
  C   C177      1.0  0.00239  0.97666  0.34035  1.0000
  H   H105      1.0  0.97206  0.02440  0.44775  1.0000
  O   O35       1.0  0.96787  0.97925  0.46858  1.0000
  H   H106      1.0  0.98258  0.97497  0.51632  1.0000
  C   C178      1.0  0.23486  0.51585  0.39882  1.0000
  C   C179      1.0  0.23468  0.49060  0.40424  1.0000
  C   C180      1.0  0.25186  0.47659  0.34238  1.0000
  H   H107      1.0  0.22267  0.52531  0.44584  1.0000
  O   O36       1.0  0.21782  0.48029  0.47104  1.0000
  H   H108      1.0  0.23256  0.47664  0.51945  1.0000
  C   C181      1.0  0.73544  0.15167  0.31161  1.0000
  C   C182      1.0  0.76833  0.15165  0.31007  1.0000
  C   C183      1.0  0.78537  0.16951  0.35683  1.0000
  H   H109      1.0  0.72396  0.14016  0.26981  1.0000
  O   O37       1.0  0.78248  0.13606  0.25308  1.0000
  H   H110      1.0  0.78553  0.14468  0.19628  1.0000
  C   C184      1.0  0.76872  0.82012  0.26358  1.0000
  C   C185      1.0  0.73621  0.81947  0.26321  1.0000
  C   C186      1.0  0.71895  0.83518  0.31888  1.0000
  H   H111      1.0  0.78006  0.80862  0.22130  1.0000
  O   O38       1.0  0.72193  0.80505  0.20163  1.0000
  H   H112      1.0  0.72802  0.78840  0.21405  1.0000
  C   C187      1.0  0.98581  0.65093  0.31727  1.0000
  C   C188      1.0  0.51870  0.65096  0.31587  1.0000
  C   C189      1.0  0.53565  0.66843  0.36484  1.0000
  H   H113      1.0  0.97450  0.63992  0.27330  1.0000
  O   O39       1.0  0.53297  0.63604  0.25664  1.0000
  H   H114      1.0  0.53564  0.64517  0.20080  1.0000
  C   C190      1.0  0.51855  0.32168  0.25271  1.0000
  C   C191      1.0  0.98600  0.32134  0.25179  1.0000
  C   C192      1.0  0.96881  0.33654  0.30972  1.0000
  H   H115      1.0  0.52987  0.31039  0.20962  1.0000
  O   O40       1.0  0.97154  0.30758  0.18847  1.0000
  H   H116      1.0  0.97777  0.29081  0.19782  1.0000
  C   C193      1.0  0.58640  0.10090  0.31227  1.0000
  C   C194      1.0  0.61133  0.11742  0.30651  1.0000
  C   C195      1.0  0.60931  0.14044  0.34706  1.0000
  O   O41       1.0  0.63545  0.11138  0.25211  1.0000
  H   H117      1.0  0.58774  0.08557  0.27498  1.0000
  H   H118      1.0  0.63133  0.11891  0.19372  1.0000
  C   C196      1.0  0.94664  0.87694  0.27353  1.0000
  C   C197      1.0  0.92310  0.85957  0.27561  1.0000
  C   C198      1.0  0.89587  0.86324  0.32738  1.0000
  O   O42       1.0  0.92553  0.84099  0.21640  1.0000
  H   H119      1.0  0.96498  0.87374  0.23160  1.0000
  H   H120      1.0  0.94392  0.83154  0.23317  1.0000
  C   C199      1.0  0.89232  0.11907  0.30954  1.0000
  C   C200      1.0  0.91666  0.10196  0.30889  1.0000
  C   C201      1.0  0.94531  0.10672  0.35266  1.0000
  H   H121      1.0  0.87315  0.11562  0.27123  1.0000
  O   O43       1.0  0.91261  0.08221  0.25687  1.0000
  H   H122      1.0  0.92189  0.08593  0.19829  1.0000
  C   C202      1.0  0.58312  0.86021  0.27392  1.0000
  C   C203      1.0  0.55834  0.87648  0.26845  1.0000
  C   C204      1.0  0.55876  0.89833  0.31754  1.0000
  H   H123      1.0  0.58179  0.84511  0.23518  1.0000
  O   O44       1.0  0.53571  0.87183  0.20650  1.0000
  H   H124      1.0  0.52593  0.85645  0.22196  1.0000
  C   C205      1.0  0.80859  0.62715  0.25437  1.0000
  C   C206      1.0  0.83267  0.64417  0.25475  1.0000
  C   C207      1.0  0.85993  0.64043  0.30657  1.0000
  O   O45       1.0  0.83055  0.66272  0.19532  1.0000
  H   H125      1.0  0.78992  0.63053  0.21385  1.0000
  H   H126      1.0  0.81202  0.67217  0.21081  1.0000
  C   C208      1.0  0.69887  0.37613  0.28309  1.0000
  C   C209      1.0  0.67497  0.35902  0.28067  1.0000
  C   C210      1.0  0.64640  0.36315  0.32577  1.0000
  O   O46       1.0  0.67870  0.34020  0.22312  1.0000
  H   H127      1.0  0.71834  0.37256  0.24606  1.0000
  H   H128      1.0  0.69644  0.33066  0.24434  1.0000
  C   C211      1.0  0.64262  0.61877  0.31331  1.0000
  C   C212      1.0  0.66707  0.60181  0.30935  1.0000
  C   C213      1.0  0.69667  0.60702  0.34668  1.0000
  H   H129      1.0  0.62270  0.61493  0.27900  1.0000
  O   O47       1.0  0.66202  0.58174  0.25978  1.0000
  H   H130      1.0  0.66993  0.58514  0.19927  1.0000
  C   C214      1.0  0.86246  0.38724  0.32490  1.0000
  C   C215      1.0  0.83787  0.40409  0.32426  1.0000
  C   C216      1.0  0.80948  0.39914  0.36908  1.0000
  H   H131      1.0  0.88108  0.39070  0.28446  1.0000
  O   O48       1.0  0.84119  0.42349  0.26990  1.0000
  H   H132      1.0  0.83202  0.41911  0.21179  1.0000
  C   C217      1.0  0.64624  0.24301  0.26707  1.0000
  C   C218      1.0  0.63887  0.26758  0.26708  1.0000
  C   C219      1.0  0.61867  0.27709  0.33302  1.0000
  H   H133      1.0  0.66095  0.23667  0.21867  1.0000
  O   O49       1.0  0.65161  0.28160  0.20216  1.0000
  H   H134      1.0  0.63583  0.28311  0.15491  1.0000
  C   C220      1.0  0.85911  0.76147  0.26729  1.0000
  C   C221      1.0  0.86675  0.73694  0.26628  1.0000
  C   C222      1.0  0.88494  0.72693  0.33601  1.0000
  H   H135      1.0  0.84603  0.76819  0.21580  1.0000
  O   O50       1.0  0.85642  0.72356  0.19608  1.0000
  H   H136      1.0  0.87375  0.72257  0.15338  1.0000
  C   C223      1.0  0.89522  0.26250  0.27202  1.0000
  C   C224      1.0  0.88764  0.23796  0.27187  1.0000
  C   C225      1.0  0.86941  0.22817  0.34178  1.0000
  O   O51       1.0  0.89814  0.22424  0.20285  1.0000
  H   H137      1.0  0.90828  0.26904  0.22017  1.0000
  H   H138      1.0  0.88108  0.22336  0.15923  1.0000
  C   C226      1.0  0.60590  0.74362  0.28017  1.0000
  C   C227      1.0  0.61350  0.76817  0.27926  1.0000
  C   C228      1.0  0.63381  0.77778  0.34478  1.0000
  O   O52       1.0  0.60113  0.78198  0.21313  1.0000
  H   H139      1.0  0.59128  0.73716  0.23178  1.0000
  H   H140      1.0  0.61699  0.78303  0.16593  1.0000
  C   C229      1.0  0.51981  0.98963  0.27614  1.0000
  C   C230      1.0  0.51964  0.01490  0.27334  1.0000
  C   C231      1.0  0.50204  0.02832  0.33611  1.0000
  O   O53       1.0  0.53663  0.02579  0.20814  1.0000
  H   H141      1.0  0.53235  0.98062  0.22863  1.0000
  H   H142      1.0  0.52198  0.02991  0.16004  1.0000
  C   C232      1.0  0.76911  0.48884  0.27602  1.0000
  C   C233      1.0  0.76902  0.51407  0.27006  1.0000
  C   C234      1.0  0.75212  0.52818  0.33251  1.0000
  O   O54       1.0  0.78543  0.52414  0.20183  1.0000
  H   H143      1.0  0.78140  0.47930  0.22942  1.0000
  H   H144      1.0  0.77024  0.52834  0.15525  1.0000
  C   C235      1.0  0.64324  0.20263  0.33309  1.0000
  C   C236      1.0  0.67501  0.19714  0.33765  1.0000
  C   C237      1.0  0.68628  0.17337  0.34403  1.0000
  C   C238      1.0  0.66434  0.15451  0.33736  1.0000
  C   C239      1.0  0.63187  0.15902  0.33854  1.0000
  C   C240      1.0  0.62215  0.18338  0.33602  1.0000
  H   H145      1.0  0.67202  0.13734  0.34576  1.0000
  H   H146      1.0  0.59901  0.18735  0.33153  1.0000
  H   H147      1.0  0.69045  0.21105  0.33548  1.0000
  C   C241      1.0  0.86054  0.80145  0.33659  1.0000
  C   C242      1.0  0.82893  0.80741  0.33192  1.0000
  C   C243      1.0  0.81814  0.83139  0.33100  1.0000
  C   C244      1.0  0.84065  0.84985  0.33840  1.0000
  C   C245      1.0  0.87301  0.84485  0.33548  1.0000
  C   C246      1.0  0.88211  0.82037  0.33817  1.0000
  H   H148      1.0  0.83346  0.86718  0.33161  1.0000
  H   H149      1.0  0.90509  0.81601  0.34275  1.0000
  H   H150      1.0  0.81325  0.79363  0.33345  1.0000
  C   C247      1.0  0.86023  0.20361  0.34198  1.0000
  C   C248      1.0  0.82861  0.19765  0.34666  1.0000
  C   C249      1.0  0.81782  0.17367  0.34733  1.0000
  C   C250      1.0  0.84034  0.15522  0.34028  1.0000
  C   C251      1.0  0.87270  0.16020  0.34342  1.0000
  C   C252      1.0  0.88179  0.18467  0.34062  1.0000
  H   H151      1.0  0.83313  0.13788  0.34700  1.0000
  H   H152      1.0  0.90478  0.18903  0.33593  1.0000
  H   H153      1.0  0.81292  0.21142  0.34482  1.0000
  C   C253      1.0  0.64352  0.80226  0.34242  1.0000
  C   C254      1.0  0.67531  0.80774  0.33806  1.0000
  C   C255      1.0  0.68659  0.83150  0.33163  1.0000
  C   C256      1.0  0.66465  0.85037  0.33778  1.0000
  C   C257      1.0  0.63219  0.84586  0.33614  1.0000
  C   C258      1.0  0.62245  0.82151  0.33893  1.0000
  H   H154      1.0  0.67240  0.86750  0.32900  1.0000
  H   H155      1.0  0.59930  0.81755  0.34329  1.0000
  H   H156      1.0  0.69074  0.79383  0.34065  1.0000
  C   C259      1.0  0.89431  0.70232  0.33508  1.0000
  C   C260      1.0  0.92568  0.69637  0.34785  1.0000
  C   C261      1.0  0.93658  0.67247  0.35090  1.0000
  C   C262      1.0  0.91462  0.65411  0.33348  1.0000
  C   C263      1.0  0.88257  0.65890  0.31864  1.0000
  C   C264      1.0  0.87326  0.68333  0.32187  1.0000
  H   H157      1.0  0.92222  0.63679  0.33261  1.0000
  H   H158      1.0  0.85022  0.68761  0.32047  1.0000
  H   H159      1.0  0.94129  0.71016  0.35024  1.0000
  C   C265      1.0  0.60974  0.30170  0.33229  1.0000
  C   C266      1.0  0.57828  0.30791  0.32456  1.0000
  C   C267      1.0  0.56793  0.33200  0.32283  1.0000
  C   C268      1.0  0.59072  0.35023  0.33098  1.0000
  C   C269      1.0  0.62305  0.34500  0.33063  1.0000
  C   C270      1.0  0.63160  0.32043  0.33445  1.0000
  H   H160      1.0  0.58376  0.36762  0.32426  1.0000
  H   H161      1.0  0.65435  0.31581  0.34345  1.0000
  H   H162      1.0  0.56239  0.29427  0.32292  1.0000
  C   C271      1.0  0.60981  0.70321  0.34557  1.0000
  C   C272      1.0  0.57832  0.69701  0.35284  1.0000
  C   C273      1.0  0.56797  0.67292  0.35442  1.0000
  C   C274      1.0  0.59076  0.65468  0.34676  1.0000
  C   C275      1.0  0.62310  0.65990  0.34768  1.0000
  C   C276      1.0  0.63167  0.68447  0.34388  1.0000
  H   H163      1.0  0.58376  0.63730  0.35337  1.0000
  H   H164      1.0  0.65442  0.68908  0.33509  1.0000
  H   H165      1.0  0.56243  0.71065  0.35415  1.0000
  C   C277      1.0  0.89422  0.30271  0.34076  1.0000
  C   C278      1.0  0.92560  0.30862  0.32783  1.0000
  C   C279      1.0  0.93654  0.33252  0.32429  1.0000
  C   C280      1.0  0.91460  0.35093  0.34113  1.0000
  C   C281      1.0  0.88256  0.34618  0.35626  1.0000
  C   C282      1.0  0.87321  0.32175  0.35355  1.0000
  H   H166      1.0  0.92221  0.36824  0.34163  1.0000
  H   H167      1.0  0.85015  0.31751  0.35539  1.0000
  H   H168      1.0  0.94119  0.29481  0.32573  1.0000
  C   C283      1.0  0.53097  0.09231  0.34939  1.0000
  C   C284      1.0  0.00187  0.10395  0.34716  1.0000
  C   C285      1.0  0.97271  0.09231  0.34641  1.0000
  C   C286      1.0  0.97357  0.06703  0.33891  1.0000
  C   C287      1.0  0.50196  0.05405  0.33650  1.0000
  C   C288      1.0  0.53030  0.06708  0.34011  1.0000
  H   H169      1.0  0.95315  0.05773  0.33973  1.0000
  H   H170      1.0  0.55076  0.05784  0.34331  1.0000
  H   H171      1.0  0.00194  0.12212  0.33873  1.0000
  C   C289      1.0  0.97314  0.91263  0.33091  1.0000
  C   C290      1.0  0.50229  0.90099  0.32908  1.0000
  C   C291      1.0  0.53137  0.91263  0.32580  1.0000
  C   C292      1.0  0.53072  0.93787  0.33492  1.0000
  C   C293      1.0  0.00241  0.95091  0.33983  1.0000
  C   C294      1.0  0.97402  0.93791  0.33866  1.0000
  H   H172      1.0  0.55123  0.94707  0.33341  1.0000
  H   H173      1.0  0.95361  0.94721  0.33604  1.0000
  H   H174      1.0  0.50240  0.88282  0.33749  1.0000
  C   C295      1.0  0.78170  0.59208  0.31662  1.0000
  C   C296      1.0  0.75289  0.60411  0.32392  1.0000
  C   C297      1.0  0.72386  0.59261  0.33570  1.0000
  C   C298      1.0  0.72422  0.56724  0.33404  1.0000
  C   C299      1.0  0.75232  0.55395  0.32973  1.0000
  C   C300      1.0  0.78072  0.56681  0.32413  1.0000
  H   H175      1.0  0.70379  0.55820  0.34197  1.0000
  H   H176      1.0  0.80102  0.55743  0.31987  1.0000
  H   H177      1.0  0.75308  0.62239  0.32158  1.0000
  C   C301      1.0  0.72381  0.41230  0.34236  1.0000
  C   C302      1.0  0.75292  0.40087  0.35341  1.0000
  C   C303      1.0  0.78174  0.41297  0.35939  1.0000
  C   C304      1.0  0.78068  0.43823  0.35112  1.0000
  C   C305      1.0  0.75217  0.45093  0.34614  1.0000
  C   C306      1.0  0.72406  0.43766  0.34360  1.0000
  H   H178      1.0  0.80085  0.44775  0.35682  1.0000
  H   H179      1.0  0.70369  0.44669  0.33403  1.0000
  H   H180      1.0  0.75318  0.38260  0.35613  1.0000
  C   C307      1.0  0.76822  0.18485  0.41380  1.0000
  C   C308      1.0  0.73571  0.18542  0.41362  1.0000
  C   C309      1.0  0.71861  0.16971  0.35745  1.0000
  O   O55       1.0  0.72123  0.19974  0.47513  1.0000
  H   H181      1.0  0.77943  0.19635  0.45635  1.0000
  H   H182      1.0  0.72731  0.21642  0.46309  1.0000
  C   C310      1.0  0.73562  0.85332  0.36473  1.0000
  C   C311      1.0  0.76851  0.85338  0.36703  1.0000
  C   C312      1.0  0.78570  0.83550  0.32082  1.0000
  O   O56       1.0  0.78248  0.86902  0.42414  1.0000
  H   H183      1.0  0.72403  0.86481  0.40633  1.0000
  H   H184      1.0  0.78538  0.86045  0.48112  1.0000
  C   C313      1.0  0.51847  0.68318  0.42385  1.0000
  C   C314      1.0  0.98592  0.68351  0.42431  1.0000
  C   C315      1.0  0.96882  0.66841  0.36575  1.0000
  O   O57       1.0  0.97135  0.69715  0.48778  1.0000
  H   H185      1.0  0.52972  0.69442  0.46729  1.0000
  H   H186      1.0  0.97759  0.71394  0.47894  1.0000
  C   C316      1.0  0.98571  0.35411  0.35803  1.0000
  C   C317      1.0  0.51860  0.35404  0.36008  1.0000
  C   C318      1.0  0.53563  0.33649  0.31171  1.0000
  O   O58       1.0  0.53274  0.36902  0.41932  1.0000
  H   H187      1.0  0.97434  0.36514  0.40177  1.0000
  H   H188      1.0  0.53529  0.35996  0.47536  1.0000
  C   C319      1.0  0.58286  0.14468  0.40094  1.0000
  C   C320      1.0  0.55808  0.12842  0.40658  1.0000
  C   C321      1.0  0.55837  0.10661  0.35727  1.0000
  H   H189      1.0  0.58163  0.15973  0.43995  1.0000
  O   O59       1.0  0.53561  0.13301  0.46906  1.0000
  H   H190      1.0  0.52579  0.14841  0.45399  1.0000
  C   C322      1.0  0.89281  0.88594  0.36944  1.0000
  C   C323      1.0  0.91719  0.90302  0.36970  1.0000
  C   C324      1.0  0.94571  0.89824  0.32525  1.0000
  H   H191      1.0  0.87372  0.88941  0.40804  1.0000
  O   O60       1.0  0.91333  0.92277  0.42187  1.0000
  H   H192      1.0  0.92285  0.91906  0.48015  1.0000
  C   C325      1.0  0.94641  0.12804  0.40424  1.0000
  C   C326      1.0  0.92290  0.14544  0.40256  1.0000
  C   C327      1.0  0.89554  0.14179  0.35134  1.0000
  O   O61       1.0  0.92552  0.16404  0.46160  1.0000
  H   H193      1.0  0.96487  0.13124  0.44573  1.0000
  H   H194      1.0  0.94389  0.17346  0.44444  1.0000
  C   C328      1.0  0.58689  0.90408  0.36189  1.0000
  C   C329      1.0  0.61179  0.88753  0.36758  1.0000
  C   C330      1.0  0.60965  0.86446  0.32743  1.0000
  O   O62       1.0  0.63597  0.89362  0.42164  1.0000
  H   H195      1.0  0.58829  0.91942  0.39906  1.0000
  H   H196      1.0  0.63192  0.88616  0.48019  1.0000
  C   C331      1.0  0.86255  0.61779  0.34943  1.0000
  C   C332      1.0  0.83795  0.60096  0.35041  1.0000
  C   C333      1.0  0.80938  0.60597  0.30662  1.0000
  H   H197      1.0  0.88130  0.61427  0.38927  1.0000
  O   O63       1.0  0.84151  0.58148  0.40426  1.0000
  H   H198      1.0  0.83246  0.58574  0.46265  1.0000
  C   C334      1.0  0.64262  0.38610  0.36535  1.0000
  C   C335      1.0  0.66707  0.40307  0.36926  1.0000
  C   C336      1.0  0.69665  0.39784  0.33183  1.0000
  H   H199      1.0  0.62268  0.38996  0.39958  1.0000
  O   O64       1.0  0.66206  0.42317  0.41873  1.0000
  H   H200      1.0  0.67010  0.41982  0.47914  1.0000
  C   C337      1.0  0.69890  0.62872  0.39546  1.0000
  C   C338      1.0  0.67500  0.64585  0.39788  1.0000
  C   C339      1.0  0.64643  0.64173  0.35278  1.0000
  O   O65       1.0  0.67876  0.66468  0.45534  1.0000
  H   H201      1.0  0.71840  0.63230  0.43235  1.0000
  H   H202      1.0  0.69652  0.67420  0.43409  1.0000
  C   C340      1.0  0.80888  0.37807  0.42200  1.0000
  C   C341      1.0  0.83294  0.36104  0.42121  1.0000
  C   C342      1.0  0.85998  0.36468  0.36839  1.0000
  O   O66       1.0  0.83105  0.34259  0.48112  1.0000
  H   H203      1.0  0.79037  0.37477  0.46319  1.0000
  H   H204      1.0  0.81247  0.33311  0.46639  1.0000
  C   C343      1.0  0.60578  0.26120  0.39681  1.0000
  C   C344      1.0  0.61329  0.23664  0.39705  1.0000
  C   C345      1.0  0.63356  0.22711  0.33122  1.0000
  O   O67       1.0  0.60089  0.22272  0.46283  1.0000
  H   H205      1.0  0.59117  0.26760  0.44534  1.0000
  H   H206      1.0  0.61676  0.22156  0.50999  1.0000
  C   C346      1.0  0.89539  0.74239  0.40501  1.0000
  C   C347      1.0  0.88788  0.76694  0.40581  1.0000
  C   C348      1.0  0.86970  0.77689  0.33610  1.0000
  O   O68       1.0  0.89838  0.78052  0.47522  1.0000
  H   H207      1.0  0.90840  0.73572  0.45671  1.0000
  H   H208      1.0  0.88133  0.78129  0.51890  1.0000
  C   C349      1.0  0.85883  0.24374  0.41011  1.0000
  C   C350      1.0  0.86655  0.26826  0.41049  1.0000
  C   C351      1.0  0.88479  0.27812  0.34054  1.0000
  H   H209      1.0  0.84572  0.23714  0.46175  1.0000
  O   O69       1.0  0.85624  0.28179  0.48030  1.0000
  H   H210      1.0  0.87357  0.28285  0.52296  1.0000
  C   C352      1.0  0.64644  0.76198  0.40936  1.0000
  C   C353      1.0  0.63899  0.73742  0.41001  1.0000
  C   C354      1.0  0.61875  0.72783  0.34436  1.0000
  H   H211      1.0  0.66117  0.76838  0.45760  1.0000
  O   O70       1.0  0.65170  0.72350  0.47530  1.0000
  H   H212      1.0  0.63591  0.72210  0.52257  1.0000
  C   C355      1.0  0.48463  0.01537  0.40034  1.0000
  C   C356      1.0  0.48483  0.99010  0.40320  1.0000
  C   C357      1.0  0.50239  0.97666  0.34035  1.0000
  H   H213      1.0  0.47206  0.02440  0.44775  1.0000
  O   O71       1.0  0.46787  0.97925  0.46858  1.0000
  H   H214      1.0  0.48258  0.97497  0.51632  1.0000
  C   C358      1.0  0.73486  0.51585  0.39882  1.0000
  C   C359      1.0  0.73468  0.49060  0.40424  1.0000
  C   C360      1.0  0.75186  0.47659  0.34238  1.0000
  H   H215      1.0  0.72267  0.52531  0.44584  1.0000
  O   O72       1.0  0.71782  0.48029  0.47104  1.0000
  H   H216      1.0  0.73256  0.47664  0.51945  1.0000
