data_image0
_chemical_formula_structural       C3HCH3C3HCH3C3HCH3C3HCH3C3HCH3C3HCH3C3HCH3C3HCH3C3HCH3C3HCH3C3HCH3C3HCH3C3HCH3C3HCH3C3HCH3C3HCH3C3HCH3C3HCH3CNCNCNCNCNCNCNCNCNCNCNCNCNCNCNCNCNCNCNCNCNCNCNCNCNCNCNCNCNCNCNCNCNCNCNCNC3HCH3C3HCH3C3HCH3C3HCH3C3HCH3C3HCH3C3HCH3C3HCH3C3HCH3C3HCH3C3HCH3C3HCH3C3HCH3C3HCH3C3HCH3C3HCH3C3HCH3C3HCH3C3HCH3C3HCH3C3HCH3C3HCH3C3HCH3C3HCH3C3HCH3C3HCH3C3HCH3C3HCH3C3HCH3C3HCH3C3HCH3C3HCH3C3HCH3C3HCH3C3HCH3C3HCH3CNCNCNCNCNCNCNCNCNCNCNCNCNCNCNCNCNCNCNCNCNCNCNCNCNCNCNCNCNCNCNCNCNCNCNCNC3HCH3C3HCH3C3HCH3C3HCH3C3HCH3C3HCH3C3HCH3C3HCH3C3HCH3C3HCH3C3HCH3C3HCH3C3HCH3C3HCH3C3HCH3C3HCH3C3HCH3C3HCH3
_chemical_formula_sum              "C360 H288 N72"
_cell_length_a       42.4884
_cell_length_b       55.0845
_cell_length_c       14.873
_cell_angle_alpha    90
_cell_angle_beta     90
_cell_angle_gamma    90

_space_group_name_H-M_alt    "P 1"
_space_group_IT_number       1

loop_
  _space_group_symop_operation_xyz
  'x, y, z'

loop_
  _atom_site_type_symbol
  _atom_site_label
  _atom_site_symmetry_multiplicity
  _atom_site_fract_x
  _atom_site_fract_y
  _atom_site_fract_z
  _atom_site_occupancy
  C   C1        1.0  0.22128  0.17436  0.32893  1.0000
  C   C2        1.0  0.27204  0.19261  0.28339  1.0000
  C   C3        1.0  0.23901  0.19330  0.29008  1.0000
  H   H1        1.0  0.22743  0.20759  0.26088  1.0000
  C   C4        1.0  0.28638  0.21110  0.22188  1.0000
  H   H2        1.0  0.30607  0.20325  0.18491  1.0000
  H   H3        1.0  0.29446  0.22675  0.26049  1.0000
  H   H4        1.0  0.26984  0.21768  0.17115  1.0000
  C   C5        1.0  0.28716  0.83398  0.32777  1.0000
  C   C6        1.0  0.23628  0.81616  0.28158  1.0000
  C   C7        1.0  0.26926  0.81516  0.28882  1.0000
  H   H5        1.0  0.28069  0.80079  0.25963  1.0000
  C   C8        1.0  0.22178  0.79789  0.21947  1.0000
  H   H6        1.0  0.20174  0.80573  0.18400  1.0000
  H   H7        1.0  0.21415  0.78198  0.25738  1.0000
  H   H8        1.0  0.23813  0.79177  0.16746  1.0000
  C   C9        1.0  0.47103  0.67430  0.32611  1.0000
  C   C10       1.0  0.02214  0.69222  0.28232  1.0000
  C   C11       1.0  0.48915  0.69337  0.28964  1.0000
  H   H9        1.0  0.47793  0.70805  0.26194  1.0000
  C   C12       1.0  0.03671  0.71095  0.22227  1.0000
  H   H10       1.0  0.05875  0.70459  0.19296  1.0000
  H   H11       1.0  0.04101  0.72758  0.26025  1.0000
  H   H12       1.0  0.02142  0.71534  0.16545  1.0000
  C   C13       1.0  0.03742  0.33405  0.32521  1.0000
  C   C14       1.0  0.48617  0.31657  0.28090  1.0000
  C   C15       1.0  0.01913  0.31514  0.28838  1.0000
  H   H13       1.0  0.03020  0.30046  0.26019  1.0000
  C   C16       1.0  0.47142  0.29811  0.22009  1.0000
  H   H14       1.0  0.44906  0.30439  0.19261  1.0000
  H   H15       1.0  0.46769  0.28118  0.25677  1.0000
  H   H16       1.0  0.48640  0.29429  0.16203  1.0000
  C   C17       1.0  0.06038  0.12878  0.29548  1.0000
  C   C18       1.0  0.08478  0.14604  0.29108  1.0000
  C   C19       1.0  0.11273  0.14247  0.34355  1.0000
  H   H17       1.0  0.04033  0.13214  0.25936  1.0000
  C   C20       1.0  0.08028  0.16613  0.22425  1.0000
  H   H18       1.0  0.06210  0.16219  0.17438  1.0000
  H   H19       1.0  0.10197  0.16924  0.18663  1.0000
  H   H20       1.0  0.07339  0.18278  0.25870  1.0000
  C   C21       1.0  0.44976  0.87838  0.30162  1.0000
  C   C22       1.0  0.42551  0.86105  0.29512  1.0000
  C   C23       1.0  0.39599  0.86551  0.33898  1.0000
  H   H21       1.0  0.47069  0.87443  0.27086  1.0000
  C   C24       1.0  0.43209  0.83991  0.23430  1.0000
  H   H22       1.0  0.45186  0.84301  0.18873  1.0000
  H   H23       1.0  0.41173  0.83623  0.19170  1.0000
  H   H24       1.0  0.43772  0.82385  0.27405  1.0000
  C   C25       1.0  0.45243  0.10883  0.34423  1.0000
  C   C26       1.0  0.43141  0.14962  0.30413  1.0000
  C   C27       1.0  0.45620  0.13264  0.31052  1.0000
  H   H25       1.0  0.47785  0.13778  0.28720  1.0000
  C   C28       1.0  0.43878  0.17204  0.25113  1.0000
  H   H26       1.0  0.42005  0.17534  0.20251  1.0000
  H   H27       1.0  0.46055  0.17075  0.21230  1.0000
  H   H28       1.0  0.44130  0.18761  0.29581  1.0000
  C   C29       1.0  0.05644  0.90022  0.34630  1.0000
  C   C30       1.0  0.07750  0.85956  0.30458  1.0000
  C   C31       1.0  0.05273  0.87651  0.31156  1.0000
  H   H29       1.0  0.03113  0.87142  0.28776  1.0000
  C   C32       1.0  0.07020  0.83732  0.25044  1.0000
  H   H30       1.0  0.08906  0.83413  0.20212  1.0000
  H   H31       1.0  0.04855  0.83878  0.21115  1.0000
  H   H32       1.0  0.06750  0.82162  0.29440  1.0000
  C   C33       1.0  0.30868  0.62992  0.29838  1.0000
  C   C34       1.0  0.33303  0.64720  0.29248  1.0000
  C   C35       1.0  0.36215  0.64291  0.33860  1.0000
  H   H33       1.0  0.28799  0.63374  0.26608  1.0000
  C   C36       1.0  0.32707  0.66810  0.23009  1.0000
  H   H34       1.0  0.30783  0.66476  0.18294  1.0000
  H   H35       1.0  0.34788  0.67172  0.18919  1.0000
  H   H36       1.0  0.32094  0.68427  0.26860  1.0000
  C   C37       1.0  0.20052  0.37779  0.30173  1.0000
  C   C38       1.0  0.17632  0.36041  0.29508  1.0000
  C   C39       1.0  0.14649  0.36506  0.33697  1.0000
  H   H37       1.0  0.22165  0.37369  0.27243  1.0000
  C   C40       1.0  0.18339  0.33895  0.23627  1.0000
  H   H38       1.0  0.20353  0.34180  0.19181  1.0000
  H   H39       1.0  0.16338  0.33502  0.19259  1.0000
  H   H40       1.0  0.18869  0.32312  0.27762  1.0000
  C   C41       1.0  0.20156  0.60859  0.34745  1.0000
  C   C42       1.0  0.18013  0.64941  0.30951  1.0000
  C   C43       1.0  0.20493  0.63238  0.31309  1.0000
  H   H41       1.0  0.22627  0.63752  0.28755  1.0000
  C   C44       1.0  0.18698  0.67221  0.25794  1.0000
  H   H42       1.0  0.16749  0.67647  0.21279  1.0000
  H   H43       1.0  0.20795  0.67090  0.21571  1.0000
  H   H44       1.0  0.19076  0.68728  0.30430  1.0000
  C   C45       1.0  0.30695  0.40023  0.34885  1.0000
  C   C46       1.0  0.32849  0.35946  0.31040  1.0000
  C   C47       1.0  0.30363  0.37641  0.31462  1.0000
  H   H45       1.0  0.28225  0.37118  0.28961  1.0000
  C   C48       1.0  0.32159  0.33667  0.25880  1.0000
  H   H46       1.0  0.34106  0.33239  0.21361  1.0000
  H   H47       1.0  0.30062  0.33801  0.21657  1.0000
  H   H48       1.0  0.31778  0.32160  0.30514  1.0000
  C   C49       1.0  0.12272  0.27912  0.33697  1.0000
  C   C50       1.0  0.13280  0.24123  0.25414  1.0000
  C   C51       1.0  0.12626  0.26641  0.25549  1.0000
  H   H49       1.0  0.12393  0.27566  0.19602  1.0000
  C   C52       1.0  0.13651  0.22974  0.16395  1.0000
  H   H50       1.0  0.14077  0.21025  0.16679  1.0000
  H   H51       1.0  0.15628  0.23807  0.12866  1.0000
  H   H52       1.0  0.11516  0.23256  0.12442  1.0000
  C   C53       1.0  0.38534  0.72882  0.33681  1.0000
  C   C54       1.0  0.37769  0.76712  0.25439  1.0000
  C   C55       1.0  0.38445  0.74198  0.25570  1.0000
  H   H53       1.0  0.38863  0.73303  0.19642  1.0000
  C   C56       1.0  0.37625  0.77897  0.16434  1.0000
  H   H54       1.0  0.37117  0.79834  0.16724  1.0000
  H   H55       1.0  0.35788  0.77042  0.12390  1.0000
  H   H56       1.0  0.39877  0.77677  0.12995  1.0000
  C   C57       1.0  0.38773  0.26724  0.27865  1.0000
  C   C58       1.0  0.38116  0.24206  0.27483  1.0000
  C   C59       1.0  0.37358  0.22935  0.35566  1.0000
  H   H57       1.0  0.39377  0.27631  0.22104  1.0000
  C   C60       1.0  0.38240  0.22975  0.18568  1.0000
  H   H58       1.0  0.38758  0.24218  0.13043  1.0000
  H   H59       1.0  0.35988  0.22114  0.17112  1.0000
  H   H60       1.0  0.40072  0.21595  0.18642  1.0000
  C   C61       1.0  0.12029  0.74183  0.27863  1.0000
  C   C62       1.0  0.12690  0.76701  0.27482  1.0000
  C   C63       1.0  0.13492  0.77964  0.35547  1.0000
  H   H61       1.0  0.11395  0.73281  0.22115  1.0000
  C   C64       1.0  0.12526  0.77938  0.18585  1.0000
  H   H62       1.0  0.11989  0.76698  0.13065  1.0000
  H   H63       1.0  0.14770  0.78804  0.17062  1.0000
  H   H64       1.0  0.10690  0.79314  0.18737  1.0000
  C   C65       1.0  0.00328  0.99133  0.30699  1.0000
  C   C66       1.0  0.00437  0.01702  0.30495  1.0000
  C   C67       1.0  0.00494  0.03027  0.38754  1.0000
  H   H65       1.0  0.00297  0.98182  0.24775  1.0000
  C   C68       1.0  0.00493  0.02941  0.21569  1.0000
  H   H66       1.0  0.00448  0.01672  0.15929  1.0000
  H   H67       1.0  0.02628  0.04029  0.20951  1.0000
  H   H68       1.0  0.48448  0.04127  0.20923  1.0000
  C   C69       1.0  0.25315  0.49128  0.30578  1.0000
  C   C70       1.0  0.25433  0.51699  0.30382  1.0000
  C   C71       1.0  0.25508  0.53022  0.38642  1.0000
  H   H69       1.0  0.25272  0.48180  0.24650  1.0000
  C   C72       1.0  0.25477  0.52940  0.21462  1.0000
  H   H70       1.0  0.25419  0.51673  0.15817  1.0000
  H   H71       1.0  0.27614  0.54026  0.20823  1.0000
  H   H72       1.0  0.23435  0.54130  0.20850  1.0000
  C   C73       1.0  0.18819  0.17664  0.33589  1.0000
  N   N1        1.0  0.16740  0.15780  0.34440  1.0000
  C   C74       1.0  0.13550  0.16146  0.34678  1.0000
  N   N2        1.0  0.12534  0.18497  0.34516  1.0000
  C   C75       1.0  0.14515  0.20407  0.33900  1.0000
  N   N3        1.0  0.17613  0.19944  0.33299  1.0000
  C   C76       1.0  0.32019  0.83147  0.33481  1.0000
  N   N4        1.0  0.34117  0.85020  0.34175  1.0000
  C   C77       1.0  0.37306  0.84654  0.34259  1.0000
  N   N5        1.0  0.38287  0.82293  0.34252  1.0000
  C   C78       1.0  0.36293  0.80387  0.33852  1.0000
  N   N6        1.0  0.33199  0.80859  0.33289  1.0000
  C   C79       1.0  0.32261  0.17588  0.33658  1.0000
  N   N7        1.0  0.34468  0.15769  0.33827  1.0000
  C   C80       1.0  0.37657  0.16190  0.34202  1.0000
  N   N8        1.0  0.38521  0.18574  0.34901  1.0000
  C   C81       1.0  0.36464  0.20448  0.35172  1.0000
  N   N9        1.0  0.33393  0.19886  0.34485  1.0000
  C   C82       1.0  0.18599  0.83303  0.33561  1.0000
  N   N10       1.0  0.16403  0.85129  0.33802  1.0000
  C   C83       1.0  0.13216  0.84713  0.34251  1.0000
  N   N11       1.0  0.12342  0.82330  0.34945  1.0000
  C   C84       1.0  0.14392  0.80450  0.35147  1.0000
  N   N12       1.0  0.17462  0.81007  0.34393  1.0000
  C   C85       1.0  0.43798  0.67685  0.33320  1.0000
  N   N13       1.0  0.41697  0.65814  0.34071  1.0000
  C   C86       1.0  0.38509  0.66185  0.34236  1.0000
  N   N14       1.0  0.37525  0.68545  0.34232  1.0000
  C   C87       1.0  0.39522  0.70449  0.33736  1.0000
  N   N15       1.0  0.42615  0.69973  0.33116  1.0000
  C   C88       1.0  0.07043  0.33128  0.33212  1.0000
  N   N16       1.0  0.09159  0.34991  0.33878  1.0000
  C   C89       1.0  0.12345  0.34614  0.34023  1.0000
  N   N17       1.0  0.13303  0.32248  0.34085  1.0000
  C   C90       1.0  0.11296  0.30349  0.33678  1.0000
  N   N18       1.0  0.08205  0.30834  0.33082  1.0000
  C   C91       1.0  0.07203  0.67514  0.33847  1.0000
  N   N19       1.0  0.09412  0.65701  0.34306  1.0000
  C   C92       1.0  0.12580  0.66144  0.35178  1.0000
  N   N20       1.0  0.13429  0.68526  0.36082  1.0000
  C   C93       1.0  0.11355  0.70386  0.36149  1.0000
  N   N21       1.0  0.08311  0.69814  0.34841  1.0000
  C   C94       1.0  0.43656  0.33372  0.33824  1.0000
  N   N22       1.0  0.41456  0.35190  0.34287  1.0000
  C   C95       1.0  0.38288  0.34752  0.35190  1.0000
  N   N23       1.0  0.37434  0.32372  0.36118  1.0000
  C   C96       1.0  0.39503  0.30508  0.36174  1.0000
  N   N24       1.0  0.42547  0.31073  0.34842  1.0000
  C   C97       1.0  0.03563  0.09190  0.35369  1.0000
  N   N25       1.0  0.03425  0.06785  0.37530  1.0000
  C   C98       1.0  0.00597  0.05612  0.38446  1.0000
  N   N26       1.0  0.47860  0.06895  0.37356  1.0000
  C   C99       1.0  0.47880  0.09312  0.35348  1.0000
  N   N27       1.0  0.00759  0.10315  0.34366  1.0000
  C   C100      1.0  0.47306  0.91636  0.35581  1.0000
  N   N28       1.0  0.47399  0.94052  0.37618  1.0000
  C   C101      1.0  0.50205  0.95253  0.38618  1.0000
  N   N29       1.0  0.02970  0.94003  0.37558  1.0000
  C   C102      1.0  0.02997  0.91582  0.35609  1.0000
  N   N30       1.0  0.50137  0.90551  0.34678  1.0000
  C   C103      1.0  0.28493  0.59224  0.35356  1.0000
  N   N31       1.0  0.28394  0.56808  0.37378  1.0000
  C   C104      1.0  0.25584  0.55610  0.38351  1.0000
  N   N32       1.0  0.22826  0.56876  0.37434  1.0000
  C   C105      1.0  0.22808  0.59297  0.35505  1.0000
  N   N33       1.0  0.25668  0.60325  0.34492  1.0000
  C   C106      1.0  0.22344  0.41609  0.35445  1.0000
  N   N34       1.0  0.22416  0.44031  0.37412  1.0000
  C   C107      1.0  0.25211  0.45245  0.38487  1.0000
  N   N35       1.0  0.27985  0.43998  0.37584  1.0000
  C   C108      1.0  0.28034  0.41574  0.35684  1.0000
  N   N36       1.0  0.25185  0.40531  0.34667  1.0000
  C   C109      1.0  0.23801  0.15384  0.35881  1.0000
  C   C110      1.0  0.27148  0.15337  0.36104  1.0000
  C   C111      1.0  0.28930  0.17343  0.32634  1.0000
  H   H73       1.0  0.22550  0.13983  0.38665  1.0000
  C   C112      1.0  0.28639  0.13230  0.40637  1.0000
  H   H74       1.0  0.26951  0.12007  0.43830  1.0000
  H   H75       1.0  0.30246  0.13852  0.45873  1.0000
  H   H76       1.0  0.29899  0.12185  0.35607  1.0000
  C   C113      1.0  0.27070  0.85469  0.35708  1.0000
  C   C114      1.0  0.23725  0.85540  0.35917  1.0000
  C   C115      1.0  0.21925  0.83542  0.32467  1.0000
  H   H77       1.0  0.28337  0.86862  0.38482  1.0000
  C   C116      1.0  0.22256  0.87664  0.40400  1.0000
  H   H78       1.0  0.23956  0.88889  0.43526  1.0000
  H   H79       1.0  0.20655  0.87060  0.45680  1.0000
  H   H80       1.0  0.20992  0.88701  0.35353  1.0000
  C   C117      1.0  0.48733  0.65321  0.35252  1.0000
  C   C118      1.0  0.02077  0.65228  0.35458  1.0000
  C   C119      1.0  0.03895  0.67261  0.32383  1.0000
  H   H81       1.0  0.47453  0.63902  0.37785  1.0000
  C   C120      1.0  0.03529  0.63026  0.39434  1.0000
  H   H82       1.0  0.01816  0.61730  0.42076  1.0000
  H   H83       1.0  0.05077  0.63528  0.44983  1.0000
  H   H84       1.0  0.04850  0.62102  0.34193  1.0000
  C   C121      1.0  0.02138  0.35521  0.35216  1.0000
  C   C122      1.0  0.48795  0.35632  0.35455  1.0000
  C   C123      1.0  0.46960  0.33617  0.32313  1.0000
  H   H85       1.0  0.03433  0.36926  0.37794  1.0000
  C   C124      1.0  0.47364  0.37826  0.39564  1.0000
  H   H86       1.0  0.49092  0.39101  0.42265  1.0000
  H   H87       1.0  0.45816  0.37309  0.45096  1.0000
  H   H88       1.0  0.46046  0.38778  0.34391  1.0000
  C   C125      1.0  0.06270  0.10681  0.34401  1.0000
  C   C126      1.0  0.11646  0.11954  0.38841  1.0000
  C   C127      1.0  0.09202  0.10182  0.38439  1.0000
  H   H89       1.0  0.09416  0.08612  0.42085  1.0000
  C   C128      1.0  0.14301  0.11373  0.45054  1.0000
  H   H90       1.0  0.15632  0.12960  0.47169  1.0000
  H   H91       1.0  0.15898  0.10100  0.41776  1.0000
  H   H92       1.0  0.13425  0.10540  0.51236  1.0000
  C   C129      1.0  0.44636  0.90105  0.34516  1.0000
  C   C130      1.0  0.39111  0.88923  0.37693  1.0000
  C   C131      1.0  0.41605  0.90657  0.37775  1.0000
  H   H93       1.0  0.41290  0.92291  0.40928  1.0000
  C   C132      1.0  0.36140  0.89606  0.42404  1.0000
  H   H94       1.0  0.35610  0.88280  0.47647  1.0000
  H   H95       1.0  0.34205  0.89666  0.37596  1.0000
  H   H96       1.0  0.36256  0.91385  0.45630  1.0000
  C   C133      1.0  0.42165  0.10219  0.36876  1.0000
  C   C134      1.0  0.39612  0.11895  0.36720  1.0000
  C   C135      1.0  0.40067  0.14362  0.33795  1.0000
  H   H97       1.0  0.41815  0.08494  0.39246  1.0000
  C   C136      1.0  0.36552  0.10973  0.40121  1.0000
  H   H98       1.0  0.36672  0.09142  0.42926  1.0000
  H   H99       1.0  0.34915  0.10910  0.34511  1.0000
  H   H100      1.0  0.35667  0.12157  0.45427  1.0000
  C   C137      1.0  0.08723  0.90685  0.37082  1.0000
  C   C138      1.0  0.11275  0.89009  0.36872  1.0000
  C   C139      1.0  0.10818  0.86548  0.33881  1.0000
  H   H101      1.0  0.09070  0.92405  0.39508  1.0000
  C   C140      1.0  0.14337  0.89920  0.40296  1.0000
  H   H102      1.0  0.14219  0.91744  0.43158  1.0000
  H   H103      1.0  0.15974  0.89995  0.34687  1.0000
  H   H104      1.0  0.15223  0.88723  0.45560  1.0000
  C   C141      1.0  0.31175  0.60744  0.34336  1.0000
  C   C142      1.0  0.36667  0.61941  0.37865  1.0000
  C   C143      1.0  0.34176  0.60205  0.37848  1.0000
  H   H105      1.0  0.34459  0.58590  0.41160  1.0000
  C   C144      1.0  0.39578  0.61304  0.42951  1.0000
  H   H106      1.0  0.40039  0.62674  0.48093  1.0000
  H   H107      1.0  0.41574  0.61210  0.38357  1.0000
  H   H108      1.0  0.39423  0.59552  0.46361  1.0000
  C   C145      1.0  0.19684  0.40067  0.34353  1.0000
  C   C146      1.0  0.14141  0.38895  0.37331  1.0000
  C   C147      1.0  0.16634  0.40629  0.37438  1.0000
  H   H109      1.0  0.16299  0.42278  0.40468  1.0000
  C   C148      1.0  0.11142  0.39603  0.41841  1.0000
  H   H110      1.0  0.10571  0.38301  0.47130  1.0000
  H   H111      1.0  0.09239  0.39649  0.36924  1.0000
  H   H112      1.0  0.11242  0.41395  0.44972  1.0000
  C   C149      1.0  0.17114  0.60194  0.37549  1.0000
  C   C150      1.0  0.14567  0.61873  0.37693  1.0000
  C   C151      1.0  0.14990  0.64330  0.34645  1.0000
  H   H113      1.0  0.16800  0.58477  0.40029  1.0000
  C   C152      1.0  0.11578  0.60991  0.41720  1.0000
  H   H114      1.0  0.11778  0.59209  0.44895  1.0000
  H   H115      1.0  0.09845  0.60830  0.36394  1.0000
  H   H116      1.0  0.10759  0.62251  0.46878  1.0000
  C   C153      1.0  0.33746  0.40701  0.37567  1.0000
  C   C154      1.0  0.36305  0.39031  0.37623  1.0000
  C   C155      1.0  0.35878  0.36567  0.34655  1.0000
  H   H117      1.0  0.34062  0.42423  0.39999  1.0000
  C   C156      1.0  0.39319  0.39933  0.41429  1.0000
  H   H118      1.0  0.39141  0.41734  0.44468  1.0000
  H   H119      1.0  0.41021  0.40061  0.36005  1.0000
  H   H120      1.0  0.40166  0.38702  0.46644  1.0000
  C   C157      1.0  0.12460  0.26628  0.41860  1.0000
  C   C158      1.0  0.13108  0.24111  0.42034  1.0000
  C   C159      1.0  0.13510  0.22849  0.33740  1.0000
  H   H121      1.0  0.12110  0.27547  0.47768  1.0000
  C   C160      1.0  0.13356  0.22859  0.50898  1.0000
  H   H122      1.0  0.12959  0.24078  0.56576  1.0000
  H   H123      1.0  0.15701  0.22076  0.51661  1.0000
  H   H124      1.0  0.11612  0.21409  0.51285  1.0000
  C   C161      1.0  0.38063  0.74117  0.41851  1.0000
  C   C162      1.0  0.37417  0.76635  0.42036  1.0000
  C   C163      1.0  0.37280  0.77942  0.33764  1.0000
  H   H125      1.0  0.38228  0.73168  0.47758  1.0000
  C   C164      1.0  0.36920  0.77846  0.50893  1.0000
  H   H126      1.0  0.37165  0.76602  0.56567  1.0000
  H   H127      1.0  0.34559  0.78623  0.51176  1.0000
  H   H128      1.0  0.38643  0.79297  0.51760  1.0000
  C   C165      1.0  0.38589  0.28039  0.35973  1.0000
  C   C166      1.0  0.37172  0.24248  0.43832  1.0000
  C   C167      1.0  0.37789  0.26779  0.43883  1.0000
  H   H129      1.0  0.37722  0.27717  0.49835  1.0000
  C   C168      1.0  0.36403  0.23117  0.52671  1.0000
  H   H130      1.0  0.36033  0.21162  0.52314  1.0000
  H   H131      1.0  0.34261  0.23934  0.55372  1.0000
  H   H132      1.0  0.38326  0.23437  0.57396  1.0000
  C   C169      1.0  0.12258  0.72858  0.35940  1.0000
  C   C170      1.0  0.13725  0.76641  0.43785  1.0000
  C   C171      1.0  0.13108  0.74110  0.43827  1.0000
  H   H133      1.0  0.13212  0.73166  0.49761  1.0000
  C   C172      1.0  0.14547  0.77762  0.52601  1.0000
  H   H134      1.0  0.14912  0.79718  0.52258  1.0000
  H   H135      1.0  0.16705  0.76944  0.55182  1.0000
  H   H136      1.0  0.12653  0.77436  0.57417  1.0000
  C   C173      1.0  0.00268  0.97828  0.38846  1.0000
  C   C174      1.0  0.00434  0.01727  0.47061  1.0000
  C   C175      1.0  0.00326  0.99150  0.46957  1.0000
  H   H137      1.0  0.00293  0.98213  0.52909  1.0000
  C   C176      1.0  0.00478  0.02922  0.56045  1.0000
  H   H138      1.0  0.00558  0.04897  0.55698  1.0000
  H   H139      1.0  0.02540  0.02319  0.59810  1.0000
  H   H140      1.0  0.48366  0.02419  0.59792  1.0000
  C   C177      1.0  0.25265  0.47820  0.38719  1.0000
  C   C178      1.0  0.25458  0.51719  0.46943  1.0000
  C   C179      1.0  0.25348  0.49141  0.46831  1.0000
  H   H141      1.0  0.25325  0.48203  0.52781  1.0000
  C   C180      1.0  0.25517  0.52911  0.55932  1.0000
  H   H142      1.0  0.25605  0.54886  0.55594  1.0000
  H   H143      1.0  0.27581  0.52302  0.59675  1.0000
  H   H144      1.0  0.23408  0.52412  0.59697  1.0000
  C   C181      1.0  0.72128  0.17436  0.32893  1.0000
  C   C182      1.0  0.77204  0.19261  0.28339  1.0000
  C   C183      1.0  0.73901  0.19330  0.29008  1.0000
  H   H145      1.0  0.72743  0.20759  0.26088  1.0000
  C   C184      1.0  0.78638  0.21110  0.22188  1.0000
  H   H146      1.0  0.80607  0.20325  0.18491  1.0000
  H   H147      1.0  0.79446  0.22675  0.26049  1.0000
  H   H148      1.0  0.76984  0.21768  0.17115  1.0000
  C   C185      1.0  0.78716  0.83398  0.32777  1.0000
  C   C186      1.0  0.73628  0.81616  0.28158  1.0000
  C   C187      1.0  0.76926  0.81516  0.28882  1.0000
  H   H149      1.0  0.78069  0.80079  0.25963  1.0000
  C   C188      1.0  0.72178  0.79789  0.21947  1.0000
  H   H150      1.0  0.70174  0.80573  0.18400  1.0000
  H   H151      1.0  0.71415  0.78198  0.25738  1.0000
  H   H152      1.0  0.73813  0.79177  0.16746  1.0000
  C   C189      1.0  0.97103  0.67430  0.32611  1.0000
  C   C190      1.0  0.52214  0.69222  0.28232  1.0000
  C   C191      1.0  0.98915  0.69337  0.28964  1.0000
  H   H153      1.0  0.97793  0.70805  0.26194  1.0000
  C   C192      1.0  0.53671  0.71095  0.22227  1.0000
  H   H154      1.0  0.55875  0.70459  0.19296  1.0000
  H   H155      1.0  0.54101  0.72758  0.26025  1.0000
  H   H156      1.0  0.52142  0.71534  0.16545  1.0000
  C   C193      1.0  0.53742  0.33405  0.32521  1.0000
  C   C194      1.0  0.98617  0.31657  0.28089  1.0000
  C   C195      1.0  0.51913  0.31514  0.28839  1.0000
  H   H157      1.0  0.53020  0.30046  0.26020  1.0000
  C   C196      1.0  0.97142  0.29811  0.22008  1.0000
  H   H158      1.0  0.94906  0.30439  0.19261  1.0000
  H   H159      1.0  0.96769  0.28119  0.25676  1.0000
  H   H160      1.0  0.98640  0.29429  0.16203  1.0000
  C   C197      1.0  0.56038  0.12878  0.29548  1.0000
  C   C198      1.0  0.58478  0.14604  0.29108  1.0000
  C   C199      1.0  0.61273  0.14247  0.34355  1.0000
  H   H161      1.0  0.54033  0.13214  0.25936  1.0000
  C   C200      1.0  0.58028  0.16613  0.22425  1.0000
  H   H162      1.0  0.56210  0.16219  0.17438  1.0000
  H   H163      1.0  0.60197  0.16924  0.18663  1.0000
  H   H164      1.0  0.57339  0.18278  0.25870  1.0000
  C   C201      1.0  0.94976  0.87838  0.30162  1.0000
  C   C202      1.0  0.92551  0.86105  0.29512  1.0000
  C   C203      1.0  0.89599  0.86551  0.33898  1.0000
  H   H165      1.0  0.97069  0.87443  0.27086  1.0000
  C   C204      1.0  0.93209  0.83992  0.23430  1.0000
  H   H166      1.0  0.95186  0.84301  0.18873  1.0000
  H   H167      1.0  0.91173  0.83624  0.19170  1.0000
  H   H168      1.0  0.93772  0.82385  0.27405  1.0000
  C   C205      1.0  0.95243  0.10883  0.34423  1.0000
  C   C206      1.0  0.93141  0.14962  0.30413  1.0000
  C   C207      1.0  0.95620  0.13264  0.31052  1.0000
  H   H169      1.0  0.97785  0.13778  0.28720  1.0000
  C   C208      1.0  0.93878  0.17204  0.25113  1.0000
  H   H170      1.0  0.92005  0.17534  0.20251  1.0000
  H   H171      1.0  0.96055  0.17075  0.21230  1.0000
  H   H172      1.0  0.94130  0.18761  0.29581  1.0000
  C   C209      1.0  0.55644  0.90022  0.34630  1.0000
  C   C210      1.0  0.57750  0.85956  0.30458  1.0000
  C   C211      1.0  0.55273  0.87651  0.31156  1.0000
  H   H173      1.0  0.53113  0.87142  0.28776  1.0000
  C   C212      1.0  0.57020  0.83732  0.25044  1.0000
  H   H174      1.0  0.58906  0.83413  0.20212  1.0000
  H   H175      1.0  0.54855  0.83878  0.21115  1.0000
  H   H176      1.0  0.56750  0.82162  0.29440  1.0000
  C   C213      1.0  0.80868  0.62992  0.29838  1.0000
  C   C214      1.0  0.83302  0.64720  0.29248  1.0000
  C   C215      1.0  0.86215  0.64291  0.33859  1.0000
  H   H177      1.0  0.78799  0.63374  0.26608  1.0000
  C   C216      1.0  0.82707  0.66810  0.23009  1.0000
  H   H178      1.0  0.80783  0.66476  0.18294  1.0000
  H   H179      1.0  0.84788  0.67172  0.18919  1.0000
  H   H180      1.0  0.82094  0.68427  0.26860  1.0000
  C   C217      1.0  0.70052  0.37779  0.30173  1.0000
  C   C218      1.0  0.67632  0.36041  0.29508  1.0000
  C   C219      1.0  0.64649  0.36506  0.33697  1.0000
  H   H181      1.0  0.72165  0.37369  0.27242  1.0000
  C   C220      1.0  0.68339  0.33895  0.23627  1.0000
  H   H182      1.0  0.70352  0.34180  0.19180  1.0000
  H   H183      1.0  0.66338  0.33502  0.19259  1.0000
  H   H184      1.0  0.68869  0.32312  0.27761  1.0000
  C   C221      1.0  0.70156  0.60859  0.34745  1.0000
  C   C222      1.0  0.68013  0.64941  0.30951  1.0000
  C   C223      1.0  0.70493  0.63238  0.31309  1.0000
  H   H185      1.0  0.72627  0.63752  0.28755  1.0000
  C   C224      1.0  0.68698  0.67221  0.25794  1.0000
  H   H186      1.0  0.66749  0.67647  0.21279  1.0000
  H   H187      1.0  0.70795  0.67090  0.21571  1.0000
  H   H188      1.0  0.69076  0.68728  0.30430  1.0000
  C   C225      1.0  0.80695  0.40023  0.34885  1.0000
  C   C226      1.0  0.82849  0.35946  0.31040  1.0000
  C   C227      1.0  0.80363  0.37641  0.31462  1.0000
  H   H189      1.0  0.78225  0.37118  0.28961  1.0000
  C   C228      1.0  0.82159  0.33667  0.25881  1.0000
  H   H190      1.0  0.84106  0.33239  0.21361  1.0000
  H   H191      1.0  0.80061  0.33801  0.21657  1.0000
  H   H192      1.0  0.81778  0.32161  0.30515  1.0000
  C   C229      1.0  0.62272  0.27912  0.33697  1.0000
  C   C230      1.0  0.63280  0.24123  0.25414  1.0000
  C   C231      1.0  0.62626  0.26641  0.25549  1.0000
  H   H193      1.0  0.62394  0.27566  0.19603  1.0000
  C   C232      1.0  0.63651  0.22974  0.16395  1.0000
  H   H194      1.0  0.64077  0.21025  0.16679  1.0000
  H   H195      1.0  0.65628  0.23807  0.12866  1.0000
  H   H196      1.0  0.61516  0.23256  0.12442  1.0000
  C   C233      1.0  0.88534  0.72882  0.33681  1.0000
  C   C234      1.0  0.87769  0.76712  0.25439  1.0000
  C   C235      1.0  0.88445  0.74198  0.25570  1.0000
  H   H197      1.0  0.88863  0.73303  0.19642  1.0000
  C   C236      1.0  0.87625  0.77897  0.16434  1.0000
  H   H198      1.0  0.87117  0.79834  0.16724  1.0000
  H   H199      1.0  0.85788  0.77042  0.12390  1.0000
  H   H200      1.0  0.89877  0.77677  0.12995  1.0000
  C   C237      1.0  0.88773  0.26724  0.27865  1.0000
  C   C238      1.0  0.88116  0.24206  0.27483  1.0000
  C   C239      1.0  0.87358  0.22935  0.35566  1.0000
  H   H201      1.0  0.89377  0.27631  0.22103  1.0000
  C   C240      1.0  0.88240  0.22975  0.18567  1.0000
  H   H202      1.0  0.88758  0.24218  0.13043  1.0000
  H   H203      1.0  0.85987  0.22114  0.17112  1.0000
  H   H204      1.0  0.90072  0.21595  0.18642  1.0000
  C   C241      1.0  0.62029  0.74183  0.27863  1.0000
  C   C242      1.0  0.62690  0.76701  0.27482  1.0000
  C   C243      1.0  0.63492  0.77964  0.35547  1.0000
  H   H205      1.0  0.61395  0.73281  0.22115  1.0000
  C   C244      1.0  0.62526  0.77938  0.18585  1.0000
  H   H206      1.0  0.61989  0.76698  0.13065  1.0000
  H   H207      1.0  0.64770  0.78804  0.17062  1.0000
  H   H208      1.0  0.60690  0.79314  0.18737  1.0000
  C   C245      1.0  0.50328  0.99133  0.30699  1.0000
  C   C246      1.0  0.50437  0.01702  0.30495  1.0000
  C   C247      1.0  0.50494  0.03027  0.38754  1.0000
  H   H209      1.0  0.50296  0.98182  0.24775  1.0000
  C   C248      1.0  0.50493  0.02941  0.21569  1.0000
  H   H210      1.0  0.50448  0.01672  0.15929  1.0000
  H   H211      1.0  0.52628  0.04029  0.20951  1.0000
  H   H212      1.0  0.98449  0.04127  0.20923  1.0000
  C   C249      1.0  0.75315  0.49128  0.30578  1.0000
  C   C250      1.0  0.75433  0.51699  0.30382  1.0000
  C   C251      1.0  0.75508  0.53022  0.38642  1.0000
  H   H213      1.0  0.75272  0.48180  0.24650  1.0000
  C   C252      1.0  0.75477  0.52940  0.21462  1.0000
  H   H214      1.0  0.75419  0.51673  0.15817  1.0000
  H   H215      1.0  0.77614  0.54026  0.20823  1.0000
  H   H216      1.0  0.73435  0.54130  0.20850  1.0000
  C   C253      1.0  0.68819  0.17664  0.33589  1.0000
  N   N37       1.0  0.66740  0.15780  0.34440  1.0000
  C   C254      1.0  0.63550  0.16146  0.34678  1.0000
  N   N38       1.0  0.62535  0.18497  0.34516  1.0000
  C   C255      1.0  0.64515  0.20407  0.33900  1.0000
  N   N39       1.0  0.67613  0.19944  0.33299  1.0000
  C   C256      1.0  0.82019  0.83147  0.33481  1.0000
  N   N40       1.0  0.84117  0.85020  0.34175  1.0000
  C   C257      1.0  0.87307  0.84654  0.34259  1.0000
  N   N41       1.0  0.88287  0.82293  0.34252  1.0000
  C   C258      1.0  0.86293  0.80387  0.33852  1.0000
  N   N42       1.0  0.83199  0.80859  0.33289  1.0000
  C   C259      1.0  0.82261  0.17588  0.33658  1.0000
  N   N43       1.0  0.84468  0.15769  0.33827  1.0000
  C   C260      1.0  0.87657  0.16190  0.34202  1.0000
  N   N44       1.0  0.88521  0.18575  0.34901  1.0000
  C   C261      1.0  0.86464  0.20448  0.35172  1.0000
  N   N45       1.0  0.83393  0.19886  0.34485  1.0000
  C   C262      1.0  0.68598  0.83303  0.33561  1.0000
  N   N46       1.0  0.66403  0.85129  0.33802  1.0000
  C   C263      1.0  0.63216  0.84713  0.34251  1.0000
  N   N47       1.0  0.62342  0.82330  0.34945  1.0000
  C   C264      1.0  0.64392  0.80450  0.35147  1.0000
  N   N48       1.0  0.67462  0.81007  0.34393  1.0000
  C   C265      1.0  0.93798  0.67685  0.33320  1.0000
  N   N49       1.0  0.91697  0.65814  0.34071  1.0000
  C   C266      1.0  0.88509  0.66185  0.34236  1.0000
  N   N50       1.0  0.87526  0.68545  0.34232  1.0000
  C   C267      1.0  0.89522  0.70449  0.33736  1.0000
  N   N51       1.0  0.92615  0.69973  0.33116  1.0000
  C   C268      1.0  0.57043  0.33128  0.33212  1.0000
  N   N52       1.0  0.59159  0.34991  0.33878  1.0000
  C   C269      1.0  0.62345  0.34614  0.34023  1.0000
  N   N53       1.0  0.63304  0.32248  0.34085  1.0000
  C   C270      1.0  0.61296  0.30349  0.33678  1.0000
  N   N54       1.0  0.58205  0.30834  0.33083  1.0000
  C   C271      1.0  0.57203  0.67514  0.33847  1.0000
  N   N55       1.0  0.59411  0.65701  0.34306  1.0000
  C   C272      1.0  0.62580  0.66144  0.35178  1.0000
  N   N56       1.0  0.63429  0.68526  0.36082  1.0000
  C   C273      1.0  0.61355  0.70386  0.36149  1.0000
  N   N57       1.0  0.58311  0.69814  0.34842  1.0000
  C   C274      1.0  0.93656  0.33372  0.33824  1.0000
  N   N58       1.0  0.91456  0.35190  0.34287  1.0000
  C   C275      1.0  0.88288  0.34752  0.35190  1.0000
  N   N59       1.0  0.87434  0.32372  0.36118  1.0000
  C   C276      1.0  0.89503  0.30508  0.36174  1.0000
  N   N60       1.0  0.92547  0.31073  0.34842  1.0000
  C   C277      1.0  0.53563  0.09190  0.35369  1.0000
  N   N61       1.0  0.53425  0.06785  0.37530  1.0000
  C   C278      1.0  0.50597  0.05612  0.38446  1.0000
  N   N62       1.0  0.97860  0.06895  0.37356  1.0000
  C   C279      1.0  0.97881  0.09312  0.35348  1.0000
  N   N63       1.0  0.50759  0.10315  0.34366  1.0000
  C   C280      1.0  0.97306  0.91636  0.35581  1.0000
  N   N64       1.0  0.97399  0.94052  0.37618  1.0000
  C   C281      1.0  0.00205  0.95254  0.38618  1.0000
  N   N65       1.0  0.52970  0.94003  0.37558  1.0000
  C   C282      1.0  0.52997  0.91582  0.35609  1.0000
  N   N66       1.0  0.00137  0.90551  0.34678  1.0000
  C   C283      1.0  0.78493  0.59224  0.35356  1.0000
  N   N67       1.0  0.78394  0.56808  0.37378  1.0000
  C   C284      1.0  0.75584  0.55610  0.38351  1.0000
  N   N68       1.0  0.72826  0.56876  0.37434  1.0000
  C   C285      1.0  0.72808  0.59297  0.35505  1.0000
  N   N69       1.0  0.75668  0.60325  0.34492  1.0000
  C   C286      1.0  0.72343  0.41610  0.35445  1.0000
  N   N70       1.0  0.72416  0.44031  0.37413  1.0000
  C   C287      1.0  0.75211  0.45245  0.38487  1.0000
  N   N71       1.0  0.77985  0.43998  0.37584  1.0000
  C   C288      1.0  0.78033  0.41574  0.35684  1.0000
  N   N72       1.0  0.75184  0.40531  0.34666  1.0000
  C   C289      1.0  0.73801  0.15384  0.35881  1.0000
  C   C290      1.0  0.77148  0.15337  0.36104  1.0000
  C   C291      1.0  0.78930  0.17343  0.32634  1.0000
  H   H217      1.0  0.72550  0.13983  0.38665  1.0000
  C   C292      1.0  0.78639  0.13230  0.40637  1.0000
  H   H218      1.0  0.76952  0.12007  0.43830  1.0000
  H   H219      1.0  0.80246  0.13852  0.45873  1.0000
  H   H220      1.0  0.79899  0.12185  0.35608  1.0000
  C   C293      1.0  0.77070  0.85469  0.35708  1.0000
  C   C294      1.0  0.73725  0.85540  0.35917  1.0000
  C   C295      1.0  0.71925  0.83542  0.32467  1.0000
  H   H221      1.0  0.78337  0.86862  0.38482  1.0000
  C   C296      1.0  0.72256  0.87664  0.40400  1.0000
  H   H222      1.0  0.73956  0.88889  0.43526  1.0000
  H   H223      1.0  0.70655  0.87060  0.45680  1.0000
  H   H224      1.0  0.70992  0.88701  0.35353  1.0000
  C   C297      1.0  0.98733  0.65321  0.35252  1.0000
  C   C298      1.0  0.52077  0.65228  0.35458  1.0000
  C   C299      1.0  0.53895  0.67261  0.32383  1.0000
  H   H225      1.0  0.97453  0.63902  0.37785  1.0000
  C   C300      1.0  0.53529  0.63026  0.39434  1.0000
  H   H226      1.0  0.51815  0.61730  0.42076  1.0000
  H   H227      1.0  0.55077  0.63528  0.44983  1.0000
  H   H228      1.0  0.54850  0.62102  0.34193  1.0000
  C   C301      1.0  0.52138  0.35521  0.35216  1.0000
  C   C302      1.0  0.98795  0.35632  0.35455  1.0000
  C   C303      1.0  0.96960  0.33617  0.32313  1.0000
  H   H229      1.0  0.53433  0.36926  0.37794  1.0000
  C   C304      1.0  0.97364  0.37826  0.39565  1.0000
  H   H230      1.0  0.99092  0.39100  0.42266  1.0000
  H   H231      1.0  0.95816  0.37309  0.45096  1.0000
  H   H232      1.0  0.96046  0.38778  0.34392  1.0000
  C   C305      1.0  0.56270  0.10681  0.34401  1.0000
  C   C306      1.0  0.61646  0.11954  0.38841  1.0000
  C   C307      1.0  0.59202  0.10182  0.38439  1.0000
  H   H233      1.0  0.59416  0.08612  0.42085  1.0000
  C   C308      1.0  0.64301  0.11373  0.45054  1.0000
  H   H234      1.0  0.65632  0.12959  0.47169  1.0000
  H   H235      1.0  0.65897  0.10100  0.41776  1.0000
  H   H236      1.0  0.63425  0.10540  0.51236  1.0000
  C   C309      1.0  0.94636  0.90105  0.34516  1.0000
  C   C310      1.0  0.89111  0.88923  0.37693  1.0000
  C   C311      1.0  0.91605  0.90657  0.37775  1.0000
  H   H237      1.0  0.91290  0.92291  0.40928  1.0000
  C   C312      1.0  0.86140  0.89606  0.42404  1.0000
  H   H238      1.0  0.85610  0.88280  0.47647  1.0000
  H   H239      1.0  0.84205  0.89666  0.37596  1.0000
  H   H240      1.0  0.86256  0.91385  0.45630  1.0000
  C   C313      1.0  0.92165  0.10219  0.36876  1.0000
  C   C314      1.0  0.89612  0.11895  0.36720  1.0000
  C   C315      1.0  0.90067  0.14362  0.33795  1.0000
  H   H241      1.0  0.91815  0.08494  0.39246  1.0000
  C   C316      1.0  0.86552  0.10973  0.40121  1.0000
  H   H242      1.0  0.86672  0.09142  0.42926  1.0000
  H   H243      1.0  0.84915  0.10910  0.34511  1.0000
  H   H244      1.0  0.85668  0.12157  0.45427  1.0000
  C   C317      1.0  0.58723  0.90685  0.37082  1.0000
  C   C318      1.0  0.61275  0.89009  0.36872  1.0000
  C   C319      1.0  0.60818  0.86548  0.33881  1.0000
  H   H245      1.0  0.59069  0.92405  0.39508  1.0000
  C   C320      1.0  0.64338  0.89920  0.40296  1.0000
  H   H246      1.0  0.64219  0.91744  0.43158  1.0000
  H   H247      1.0  0.65974  0.89995  0.34687  1.0000
  H   H248      1.0  0.65223  0.88723  0.45560  1.0000
  C   C321      1.0  0.81175  0.60744  0.34336  1.0000
  C   C322      1.0  0.86667  0.61941  0.37865  1.0000
  C   C323      1.0  0.84176  0.60205  0.37848  1.0000
  H   H249      1.0  0.84459  0.58590  0.41160  1.0000
  C   C324      1.0  0.89578  0.61304  0.42951  1.0000
  H   H250      1.0  0.90039  0.62674  0.48093  1.0000
  H   H251      1.0  0.91573  0.61210  0.38357  1.0000
  H   H252      1.0  0.89423  0.59552  0.46361  1.0000
  C   C325      1.0  0.69684  0.40067  0.34353  1.0000
  C   C326      1.0  0.64141  0.38895  0.37332  1.0000
  C   C327      1.0  0.66634  0.40629  0.37438  1.0000
  H   H253      1.0  0.66299  0.42278  0.40469  1.0000
  C   C328      1.0  0.61142  0.39603  0.41842  1.0000
  H   H254      1.0  0.60572  0.38301  0.47131  1.0000
  H   H255      1.0  0.59239  0.39649  0.36925  1.0000
  H   H256      1.0  0.61242  0.41395  0.44973  1.0000
  C   C329      1.0  0.67114  0.60194  0.37549  1.0000
  C   C330      1.0  0.64567  0.61873  0.37693  1.0000
  C   C331      1.0  0.64990  0.64330  0.34645  1.0000
  H   H257      1.0  0.66800  0.58477  0.40029  1.0000
  C   C332      1.0  0.61578  0.60991  0.41720  1.0000
  H   H258      1.0  0.61778  0.59209  0.44895  1.0000
  H   H259      1.0  0.59845  0.60831  0.36394  1.0000
  H   H260      1.0  0.60759  0.62251  0.46878  1.0000
  C   C333      1.0  0.83746  0.40701  0.37566  1.0000
  C   C334      1.0  0.86305  0.39031  0.37623  1.0000
  C   C335      1.0  0.85878  0.36567  0.34655  1.0000
  H   H261      1.0  0.84062  0.42423  0.39999  1.0000
  C   C336      1.0  0.89319  0.39933  0.41428  1.0000
  H   H262      1.0  0.89141  0.41734  0.44467  1.0000
  H   H263      1.0  0.91021  0.40061  0.36003  1.0000
  H   H264      1.0  0.90166  0.38703  0.46643  1.0000
  C   C337      1.0  0.62460  0.26628  0.41860  1.0000
  C   C338      1.0  0.63108  0.24111  0.42034  1.0000
  C   C339      1.0  0.63510  0.22849  0.33740  1.0000
  H   H265      1.0  0.62110  0.27547  0.47768  1.0000
  C   C340      1.0  0.63357  0.22859  0.50898  1.0000
  H   H266      1.0  0.62959  0.24078  0.56576  1.0000
  H   H267      1.0  0.65701  0.22076  0.51661  1.0000
  H   H268      1.0  0.61612  0.21409  0.51285  1.0000
  C   C341      1.0  0.88063  0.74117  0.41851  1.0000
  C   C342      1.0  0.87417  0.76635  0.42036  1.0000
  C   C343      1.0  0.87280  0.77942  0.33764  1.0000
  H   H269      1.0  0.88228  0.73168  0.47758  1.0000
  C   C344      1.0  0.86920  0.77846  0.50893  1.0000
  H   H270      1.0  0.87165  0.76602  0.56567  1.0000
  H   H271      1.0  0.84559  0.78623  0.51176  1.0000
  H   H272      1.0  0.88643  0.79297  0.51760  1.0000
  C   C345      1.0  0.88589  0.28039  0.35972  1.0000
  C   C346      1.0  0.87172  0.24249  0.43832  1.0000
  C   C347      1.0  0.87789  0.26780  0.43883  1.0000
  H   H273      1.0  0.87722  0.27717  0.49835  1.0000
  C   C348      1.0  0.86403  0.23117  0.52671  1.0000
  H   H274      1.0  0.86033  0.21163  0.52314  1.0000
  H   H275      1.0  0.84261  0.23934  0.55371  1.0000
  H   H276      1.0  0.88326  0.23437  0.57396  1.0000
  C   C349      1.0  0.62258  0.72858  0.35940  1.0000
  C   C350      1.0  0.63725  0.76641  0.43785  1.0000
  C   C351      1.0  0.63108  0.74110  0.43827  1.0000
  H   H277      1.0  0.63212  0.73166  0.49761  1.0000
  C   C352      1.0  0.64547  0.77762  0.52601  1.0000
  H   H278      1.0  0.64912  0.79718  0.52258  1.0000
  H   H279      1.0  0.66705  0.76944  0.55182  1.0000
  H   H280      1.0  0.62653  0.77436  0.57417  1.0000
  C   C353      1.0  0.50268  0.97828  0.38846  1.0000
  C   C354      1.0  0.50434  0.01727  0.47061  1.0000
  C   C355      1.0  0.50326  0.99150  0.46957  1.0000
  H   H281      1.0  0.50293  0.98213  0.52909  1.0000
  C   C356      1.0  0.50478  0.02922  0.56045  1.0000
  H   H282      1.0  0.50558  0.04897  0.55698  1.0000
  H   H283      1.0  0.52540  0.02319  0.59810  1.0000
  H   H284      1.0  0.98366  0.02419  0.59792  1.0000
  C   C357      1.0  0.75265  0.47820  0.38719  1.0000
  C   C358      1.0  0.75458  0.51719  0.46943  1.0000
  C   C359      1.0  0.75348  0.49141  0.46831  1.0000
  H   H285      1.0  0.75325  0.48203  0.52781  1.0000
  C   C360      1.0  0.75517  0.52911  0.55932  1.0000
  H   H286      1.0  0.75605  0.54886  0.55594  1.0000
  H   H287      1.0  0.77581  0.52302  0.59676  1.0000
  H   H288      1.0  0.73408  0.52412  0.59697  1.0000
