data_image0
_chemical_formula_structural       NCHNCHNCHNCHC2NC2NC2NC2NC2NC2NC2NC2NC2NC2NC2NC2NC2NC2NC2NC2N2CHNCHNCHNCHC2NC2NC2NC2NC2NC2NC2NC2N2CHNCHNCHNCHC2NC2NC2NC2N2CHNCHNCHNCHC2NC2NC2NC2NC2NC2NC2NC2NC2NC2NC2NC2NC2NC2NC2NC2N2CHNCHNCHNCHC6H3C6H3C6H3C6H3C6H3C6H3C6H3C6H3C6H3C6H3C6H3C6H3C6H3C6H3C6H3C6H3C6H3C6H3C6H3C6H3C6H3C6H3C6H3C6H3C6H3C6H3C6H3C6H3C2NC2NC2NC2NC2NC2NC2NC2N2CHNCHNCHNCHNCHNCHNCHNCHC2NC2NC2NC2NC2NC2NC2NC2N2CHNCHNCHNCHC2NC2NC2NC2NC2NC2NC2NC2N2CHNCHC2NC2NC2NC2NC2NC2NC2NC2N2CHNCHNCHNCHNCHNCHNCHNCHC2NC2NC2NC2NC2NC2NC2NC2N
_chemical_formula_sum              "N126 C378 H126"
_cell_length_a       51.8399
_cell_length_b       51.8399
_cell_length_c       14.8502
_cell_angle_alpha    90
_cell_angle_beta     90
_cell_angle_gamma    90

_space_group_name_H-M_alt    "P 1"
_space_group_IT_number       1

loop_
  _space_group_symop_operation_xyz
  'x, y, z'

loop_
  _atom_site_type_symbol
  _atom_site_label
  _atom_site_symmetry_multiplicity
  _atom_site_fract_x
  _atom_site_fract_y
  _atom_site_fract_z
  _atom_site_occupancy
  N   N1        1.0  0.12041  0.14233  0.30527  1.0000
  C   C1        1.0  0.13750  0.16194  0.30073  1.0000
  H   H1        1.0  0.13452  0.17651  0.25555  1.0000
  N   N2        1.0  0.88972  0.86771  0.30531  1.0000
  C   C2        1.0  0.87266  0.84808  0.30083  1.0000
  H   H2        1.0  0.87564  0.83352  0.25565  1.0000
  N   N3        1.0  0.86775  0.12028  0.30524  1.0000
  C   C3        1.0  0.84812  0.13734  0.30068  1.0000
  H   H3        1.0  0.83354  0.13433  0.25559  1.0000
  N   N4        1.0  0.14231  0.88972  0.30525  1.0000
  C   C4        1.0  0.16192  0.87264  0.30074  1.0000
  H   H4        1.0  0.17652  0.87564  0.25568  1.0000
  C   C5        1.0  0.09707  0.97741  0.31096  1.0000
  C   C6        1.0  0.09875  0.03090  0.31640  1.0000
  N   N5        1.0  0.08985  0.01818  0.24276  1.0000
  C   C7        1.0  0.08947  0.99220  0.23510  1.0000
  C   C8        1.0  0.07999  0.98272  0.16097  1.0000
  N   N6        1.0  0.07154  0.97430  0.09582  1.0000
  C   C9        1.0  0.91306  0.03265  0.31103  1.0000
  C   C10       1.0  0.91131  0.97916  0.31622  1.0000
  N   N7        1.0  0.92027  0.99190  0.24272  1.0000
  C   C11       1.0  0.92067  0.01787  0.23515  1.0000
  C   C12       1.0  0.93022  0.02737  0.16114  1.0000
  N   N8        1.0  0.93872  0.03580  0.09609  1.0000
  C   C13       1.0  0.03272  0.09721  0.31076  1.0000
  C   C14       1.0  0.97923  0.09882  0.31644  1.0000
  N   N9        1.0  0.99193  0.08997  0.24271  1.0000
  C   C15       1.0  0.01791  0.08963  0.23496  1.0000
  C   C16       1.0  0.02739  0.08016  0.16081  1.0000
  N   N10       1.0  0.03581  0.07173  0.09563  1.0000
  C   C17       1.0  0.97737  0.91287  0.31049  1.0000
  C   C18       1.0  0.03085  0.91130  0.31606  1.0000
  N   N11       1.0  0.01815  0.92015  0.24233  1.0000
  C   C19       1.0  0.99218  0.92050  0.23471  1.0000
  C   C20       1.0  0.98265  0.92987  0.16048  1.0000
  N   N12       1.0  0.97420  0.93823  0.09523  1.0000
  C   C21       1.0  0.16852  0.30324  0.32870  1.0000
  C   C22       1.0  0.18454  0.25172  0.34654  1.0000
  N   N13       1.0  0.19413  0.26723  0.28090  1.0000
  C   C23       1.0  0.18706  0.29223  0.26932  1.0000
  C   C24       1.0  0.19769  0.30442  0.20228  1.0000
  N   N14       1.0  0.20710  0.31521  0.14326  1.0000
  C   C25       1.0  0.84174  0.70675  0.32799  1.0000
  C   C26       1.0  0.82569  0.75826  0.34636  1.0000
  N   N15       1.0  0.81605  0.74278  0.28074  1.0000
  C   C27       1.0  0.82312  0.71779  0.26891  1.0000
  C   C28       1.0  0.81245  0.70564  0.20188  1.0000
  N   N16       1.0  0.80301  0.69488  0.14287  1.0000
  C   C29       1.0  0.70671  0.16863  0.32865  1.0000
  C   C30       1.0  0.75830  0.18445  0.34633  1.0000
  N   N17       1.0  0.74275  0.19425  0.28119  1.0000
  C   C31       1.0  0.71772  0.18729  0.26965  1.0000
  C   C32       1.0  0.70554  0.19808  0.20291  1.0000
  N   N18       1.0  0.69476  0.20764  0.14417  1.0000
  C   C33       1.0  0.30329  0.84172  0.32900  1.0000
  C   C34       1.0  0.25175  0.82571  0.34665  1.0000
  N   N19       1.0  0.26727  0.81614  0.28101  1.0000
  C   C35       1.0  0.29227  0.82321  0.26950  1.0000
  C   C36       1.0  0.30446  0.81261  0.20239  1.0000
  N   N20       1.0  0.31525  0.80323  0.14332  1.0000
  N   N21       1.0  0.85384  0.28568  0.29034  1.0000
  C   C37       1.0  0.84607  0.26073  0.28274  1.0000
  H   H5        1.0  0.85277  0.24980  0.23045  1.0000
  N   N22       1.0  0.15645  0.72421  0.29137  1.0000
  C   C38       1.0  0.16409  0.74921  0.28375  1.0000
  H   H6        1.0  0.15738  0.76008  0.23136  1.0000
  N   N23       1.0  0.28589  0.15632  0.29062  1.0000
  C   C39       1.0  0.26092  0.16402  0.28305  1.0000
  H   H7        1.0  0.25003  0.15737  0.23060  1.0000
  N   N24       1.0  0.72425  0.85360  0.29123  1.0000
  C   C40       1.0  0.74923  0.84589  0.28350  1.0000
  H   H8        1.0  0.76008  0.85251  0.23090  1.0000
  C   C41       1.0  0.37744  0.10428  0.33283  1.0000
  C   C42       1.0  0.39615  0.05223  0.33434  1.0000
  N   N25       1.0  0.40776  0.07171  0.28784  1.0000
  C   C43       1.0  0.39975  0.09666  0.28372  1.0000
  C   C44       1.0  0.41306  0.11138  0.23037  1.0000
  N   N26       1.0  0.42514  0.12383  0.18233  1.0000
  C   C45       1.0  0.63259  0.90551  0.33323  1.0000
  C   C46       1.0  0.61384  0.95755  0.33385  1.0000
  N   N27       1.0  0.60221  0.93798  0.28789  1.0000
  C   C47       1.0  0.61022  0.91302  0.28426  1.0000
  C   C48       1.0  0.59688  0.89822  0.23130  1.0000
  N   N28       1.0  0.58476  0.88571  0.18357  1.0000
  C   C49       1.0  0.90591  0.37727  0.33272  1.0000
  C   C50       1.0  0.95795  0.39600  0.33424  1.0000
  N   N29       1.0  0.93847  0.40761  0.28778  1.0000
  C   C51       1.0  0.91351  0.39960  0.28366  1.0000
  C   C52       1.0  0.89879  0.41291  0.23035  1.0000
  N   N30       1.0  0.88633  0.42500  0.18235  1.0000
  C   C53       1.0  0.10465  0.63248  0.33327  1.0000
  C   C54       1.0  0.05260  0.61373  0.33391  1.0000
  N   N31       1.0  0.07217  0.60209  0.28800  1.0000
  C   C55       1.0  0.09714  0.61010  0.28439  1.0000
  C   C56       1.0  0.11193  0.59678  0.23131  1.0000
  N   N32       1.0  0.12442  0.58467  0.18349  1.0000
  N   N33       1.0  0.64377  0.08851  0.30819  1.0000
  C   C57       1.0  0.63617  0.06326  0.30622  1.0000
  H   H9        1.0  0.64580  0.05055  0.26584  1.0000
  N   N34       1.0  0.36667  0.92133  0.30982  1.0000
  C   C58       1.0  0.37433  0.94655  0.30762  1.0000
  H   H10       1.0  0.36471  0.95925  0.26717  1.0000
  N   N35       1.0  0.08885  0.36657  0.30949  1.0000
  C   C59       1.0  0.06362  0.37421  0.30734  1.0000
  H   H11       1.0  0.05091  0.36459  0.26695  1.0000
  N   N36       1.0  0.92167  0.64368  0.30868  1.0000
  C   C60       1.0  0.94692  0.63608  0.30672  1.0000
  H   H12       1.0  0.95961  0.64567  0.26617  1.0000
  C   C61       1.0  0.53238  0.00682  0.33668  1.0000
  C   C62       1.0  0.47788  0.00377  0.34325  1.0000
  N   N37       1.0  0.49049  0.02186  0.29340  1.0000
  C   C63       1.0  0.51655  0.02428  0.28763  1.0000
  C   C64       1.0  0.52505  0.04181  0.23249  1.0000
  N   N38       1.0  0.53249  0.05731  0.18373  1.0000
  C   C65       1.0  0.00334  0.53226  0.33677  1.0000
  C   C66       1.0  0.00638  0.47776  0.34327  1.0000
  N   N39       1.0  0.98829  0.49037  0.29344  1.0000
  C   C67       1.0  0.98588  0.51643  0.28771  1.0000
  C   C68       1.0  0.96834  0.52494  0.23260  1.0000
  N   N40       1.0  0.95284  0.53239  0.18386  1.0000
  N   N41       1.0  0.21234  0.40423  0.29807  1.0000
  C   C69       1.0  0.23623  0.41493  0.29023  1.0000
  H   H13       1.0  0.24021  0.42627  0.23568  1.0000
  N   N42       1.0  0.79809  0.60588  0.29571  1.0000
  C   C70       1.0  0.77420  0.59520  0.28783  1.0000
  H   H14       1.0  0.77011  0.58408  0.23284  1.0000
  N   N43       1.0  0.60638  0.21233  0.29315  1.0000
  C   C71       1.0  0.59588  0.23631  0.28519  1.0000
  H   H15       1.0  0.58528  0.24066  0.22922  1.0000
  N   N44       1.0  0.40456  0.79795  0.29951  1.0000
  C   C72       1.0  0.41542  0.77413  0.29179  1.0000
  H   H16       1.0  0.42688  0.77024  0.23750  1.0000
  C   C73       1.0  0.80847  0.38683  0.35006  1.0000
  C   C74       1.0  0.75684  0.40484  0.35096  1.0000
  N   N45       1.0  0.77525  0.41493  0.29546  1.0000
  C   C75       1.0  0.80042  0.40724  0.29285  1.0000
  C   C76       1.0  0.81478  0.41745  0.23076  1.0000
  N   N46       1.0  0.82700  0.42671  0.17498  1.0000
  C   C77       1.0  0.20210  0.62313  0.35110  1.0000
  C   C78       1.0  0.25372  0.60509  0.35218  1.0000
  N   N47       1.0  0.23532  0.59501  0.29660  1.0000
  C   C79       1.0  0.21017  0.60274  0.29382  1.0000
  C   C80       1.0  0.19581  0.59249  0.23185  1.0000
  N   N48       1.0  0.18360  0.58319  0.17610  1.0000
  C   C81       1.0  0.38702  0.20173  0.35024  1.0000
  C   C82       1.0  0.40509  0.25334  0.35136  1.0000
  N   N49       1.0  0.41519  0.23493  0.29587  1.0000
  C   C83       1.0  0.40744  0.20978  0.29307  1.0000
  C   C84       1.0  0.41772  0.19538  0.23124  1.0000
  N   N50       1.0  0.42705  0.18313  0.17568  1.0000
  C   C85       1.0  0.62327  0.80806  0.35110  1.0000
  C   C86       1.0  0.60530  0.75643  0.35199  1.0000
  N   N51       1.0  0.59523  0.77481  0.29634  1.0000
  C   C87       1.0  0.60294  0.79997  0.29363  1.0000
  C   C88       1.0  0.59271  0.81432  0.23156  1.0000
  N   N52       1.0  0.58345  0.82651  0.17573  1.0000
  C   C89       1.0  0.31538  0.53378  0.31602  1.0000
  C   C90       1.0  0.31736  0.47933  0.31899  1.0000
  N   N53       1.0  0.30301  0.49255  0.25776  1.0000
  C   C91       1.0  0.30184  0.51863  0.25161  1.0000
  C   C92       1.0  0.28742  0.52788  0.18753  1.0000
  N   N54       1.0  0.27460  0.53604  0.13126  1.0000
  C   C93       1.0  0.69512  0.47609  0.31476  1.0000
  C   C94       1.0  0.69319  0.53054  0.31781  1.0000
  N   N55       1.0  0.70749  0.51732  0.25646  1.0000
  C   C95       1.0  0.70863  0.49124  0.25027  1.0000
  C   C96       1.0  0.72303  0.48199  0.18612  1.0000
  N   N56       1.0  0.73582  0.47382  0.12979  1.0000
  C   C97       1.0  0.47639  0.31504  0.31519  1.0000
  C   C98       1.0  0.53084  0.31709  0.31768  1.0000
  N   N57       1.0  0.51759  0.30276  0.25645  1.0000
  C   C99       1.0  0.49151  0.30157  0.25051  1.0000
  C   C100      1.0  0.48223  0.28715  0.18649  1.0000
  N   N58       1.0  0.47404  0.27433  0.13027  1.0000
  C   C101      1.0  0.53406  0.69471  0.31571  1.0000
  C   C102      1.0  0.47962  0.69283  0.31920  1.0000
  N   N59       1.0  0.49280  0.70717  0.25786  1.0000
  C   C103      1.0  0.51888  0.70828  0.25144  1.0000
  C   C104      1.0  0.52811  0.72272  0.18739  1.0000
  N   N60       1.0  0.53625  0.73556  0.13114  1.0000
  N   N61       1.0  0.38890  0.36887  0.30639  1.0000
  C   C105      1.0  0.37212  0.38912  0.30284  1.0000
  H   H17       1.0  0.37554  0.40369  0.25814  1.0000
  N   N62       1.0  0.62160  0.64097  0.30610  1.0000
  C   C106      1.0  0.63840  0.62074  0.30230  1.0000
  H   H18       1.0  0.63499  0.60620  0.25744  1.0000
  N   N63       1.0  0.64133  0.38858  0.30560  1.0000
  C   C107      1.0  0.62109  0.37179  0.30189  1.0000
  H   H19       1.0  0.60651  0.37524  0.25724  1.0000
  N   N64       1.0  0.36918  0.62131  0.30672  1.0000
  C   C108      1.0  0.38941  0.63812  0.30304  1.0000
  H   H20       1.0  0.40396  0.63472  0.25823  1.0000
  C   C109      1.0  0.09235  0.05710  0.32555  1.0000
  C   C110      1.0  0.06637  0.06454  0.31540  1.0000
  C   C111      1.0  0.05891  0.09060  0.32217  1.0000
  C   C112      1.0  0.07768  0.10928  0.34283  1.0000
  C   C113      1.0  0.10390  0.10226  0.35320  1.0000
  C   C114      1.0  0.11103  0.07603  0.34447  1.0000
  H   H21       1.0  0.07225  0.12824  0.34765  1.0000
  H   H22       1.0  0.13004  0.07073  0.34674  1.0000
  H   H23       1.0  0.05261  0.05071  0.30372  1.0000
  C   C115      1.0  0.91772  0.95296  0.32538  1.0000
  C   C116      1.0  0.94370  0.94553  0.31515  1.0000
  C   C117      1.0  0.95118  0.91948  0.32197  1.0000
  C   C118      1.0  0.93244  0.90079  0.34282  1.0000
  C   C119      1.0  0.90621  0.90779  0.35317  1.0000
  C   C120      1.0  0.89906  0.93402  0.34441  1.0000
  H   H24       1.0  0.93787  0.88183  0.34756  1.0000
  H   H25       1.0  0.88005  0.93931  0.34672  1.0000
  H   H26       1.0  0.95746  0.95936  0.30340  1.0000
  C   C121      1.0  0.95304  0.09237  0.32569  1.0000
  C   C122      1.0  0.94566  0.06637  0.31558  1.0000
  C   C123      1.0  0.91961  0.05886  0.32231  1.0000
  C   C124      1.0  0.90089  0.07759  0.34298  1.0000
  C   C125      1.0  0.90786  0.10384  0.35323  1.0000
  C   C126      1.0  0.93407  0.11101  0.34451  1.0000
  H   H27       1.0  0.88193  0.07214  0.34769  1.0000
  H   H28       1.0  0.93934  0.13004  0.34669  1.0000
  H   H29       1.0  0.95951  0.05264  0.30401  1.0000
  C   C127      1.0  0.05705  0.91771  0.32540  1.0000
  C   C128      1.0  0.06446  0.94370  0.31531  1.0000
  C   C129      1.0  0.09051  0.95119  0.32214  1.0000
  C   C130      1.0  0.10921  0.93244  0.34286  1.0000
  C   C131      1.0  0.10222  0.90620  0.35315  1.0000
  C   C132      1.0  0.07600  0.89905  0.34426  1.0000
  H   H30       1.0  0.12816  0.93789  0.34770  1.0000
  H   H31       1.0  0.07071  0.88004  0.34653  1.0000
  H   H32       1.0  0.05062  0.95745  0.30371  1.0000
  C   C133      1.0  0.17910  0.17975  0.35221  1.0000
  C   C134      1.0  0.20523  0.17234  0.34837  1.0000
  C   C135      1.0  0.22505  0.19092  0.34406  1.0000
  C   C136      1.0  0.21825  0.21743  0.34502  1.0000
  C   C137      1.0  0.19208  0.22537  0.34950  1.0000
  C   C138      1.0  0.17278  0.20620  0.35266  1.0000
  H   H33       1.0  0.23251  0.23109  0.34265  1.0000
  H   H34       1.0  0.15375  0.21154  0.35498  1.0000
  H   H35       1.0  0.20988  0.15311  0.34877  1.0000
  C   C139      1.0  0.83108  0.83023  0.35242  1.0000
  C   C140      1.0  0.80494  0.83762  0.34872  1.0000
  C   C141      1.0  0.78514  0.81903  0.34439  1.0000
  C   C142      1.0  0.79195  0.79252  0.34520  1.0000
  C   C143      1.0  0.81814  0.78461  0.34950  1.0000
  C   C144      1.0  0.83742  0.80379  0.35271  1.0000
  H   H36       1.0  0.77770  0.77886  0.34280  1.0000
  H   H37       1.0  0.85645  0.79846  0.35491  1.0000
  H   H38       1.0  0.80028  0.85685  0.34921  1.0000
  C   C145      1.0  0.83028  0.17894  0.35211  1.0000
  C   C146      1.0  0.83771  0.20507  0.34824  1.0000
  C   C147      1.0  0.81914  0.22490  0.34389  1.0000
  C   C148      1.0  0.79262  0.21812  0.34481  1.0000
  C   C149      1.0  0.78467  0.19195  0.34927  1.0000
  C   C150      1.0  0.80383  0.17263  0.35249  1.0000
  H   H39       1.0  0.77898  0.23239  0.34239  1.0000
  H   H40       1.0  0.79848  0.15362  0.35478  1.0000
  H   H41       1.0  0.85694  0.20971  0.34864  1.0000
  C   C151      1.0  0.17978  0.83107  0.35243  1.0000
  C   C152      1.0  0.17240  0.80492  0.34874  1.0000
  C   C153      1.0  0.19100  0.78512  0.34453  1.0000
  C   C154      1.0  0.21750  0.79195  0.34534  1.0000
  C   C155      1.0  0.22541  0.81814  0.34968  1.0000
  C   C156      1.0  0.20622  0.83742  0.35281  1.0000
  H   H42       1.0  0.23118  0.77771  0.34296  1.0000
  H   H43       1.0  0.21154  0.85645  0.35504  1.0000
  H   H44       1.0  0.15318  0.80025  0.34917  1.0000
  C   C157      1.0  0.45023  0.00336  0.34460  1.0000
  C   C158      1.0  0.43617  0.98008  0.35126  1.0000
  C   C159      1.0  0.40880  0.97918  0.35105  1.0000
  C   C160      1.0  0.39543  0.00317  0.34519  1.0000
  C   C161      1.0  0.40859  0.02728  0.33883  1.0000
  C   C162      1.0  0.43596  0.02652  0.33766  1.0000
  H   H45       1.0  0.37570  0.00308  0.34546  1.0000
  H   H46       1.0  0.44601  0.04352  0.33531  1.0000
  H   H47       1.0  0.44627  0.96312  0.35232  1.0000
  C   C163      1.0  0.56008  0.00688  0.33877  1.0000
  C   C164      1.0  0.57428  0.02999  0.34783  1.0000
  C   C165      1.0  0.60163  0.03069  0.34913  1.0000
  C   C166      1.0  0.61484  0.00659  0.34363  1.0000
  C   C167      1.0  0.60150  0.98257  0.33738  1.0000
  C   C168      1.0  0.57412  0.98354  0.33487  1.0000
  H   H48       1.0  0.63456  0.00655  0.34480  1.0000
  H   H49       1.0  0.56390  0.96669  0.33036  1.0000
  H   H50       1.0  0.56425  0.04691  0.35342  1.0000
  C   C169      1.0  0.00680  0.45010  0.34455  1.0000
  C   C170      1.0  0.03009  0.43605  0.35119  1.0000
  C   C171      1.0  0.03100  0.40869  0.35084  1.0000
  C   C172      1.0  0.00701  0.39530  0.34500  1.0000
  C   C173      1.0  0.98289  0.40846  0.33874  1.0000
  C   C174      1.0  0.98365  0.43583  0.33763  1.0000
  H   H51       1.0  0.00711  0.37558  0.34518  1.0000
  H   H52       1.0  0.96664  0.44587  0.33531  1.0000
  H   H53       1.0  0.04704  0.44616  0.35211  1.0000
  C   C175      1.0  0.00328  0.55995  0.33892  1.0000
  C   C176      1.0  0.98017  0.57415  0.34804  1.0000
  C   C177      1.0  0.97947  0.60150  0.34936  1.0000
  C   C178      1.0  0.00356  0.61471  0.34383  1.0000
  C   C179      1.0  0.02759  0.60138  0.33752  1.0000
  C   C180      1.0  0.02661  0.57400  0.33498  1.0000
  H   H54       1.0  0.00360  0.63443  0.34500  1.0000
  H   H55       1.0  0.04347  0.56378  0.33041  1.0000
  H   H56       1.0  0.96325  0.56412  0.35364  1.0000
  C   C181      1.0  0.28189  0.41668  0.34628  1.0000
  C   C182      1.0  0.30279  0.39934  0.35718  1.0000
  C   C183      1.0  0.32895  0.40736  0.35027  1.0000
  C   C184      1.0  0.33371  0.43413  0.33759  1.0000
  C   C185      1.0  0.31332  0.45221  0.32839  1.0000
  C   C186      1.0  0.28764  0.44292  0.33085  1.0000
  H   H57       1.0  0.35233  0.44064  0.33494  1.0000
  H   H58       1.0  0.27266  0.45577  0.32626  1.0000
  H   H59       1.0  0.29876  0.38016  0.36592  1.0000
  C   C187      1.0  0.72865  0.59322  0.34478  1.0000
  C   C188      1.0  0.70775  0.61054  0.35601  1.0000
  C   C189      1.0  0.68160  0.60250  0.34938  1.0000
  C   C190      1.0  0.67684  0.57573  0.33666  1.0000
  C   C191      1.0  0.69723  0.55767  0.32715  1.0000
  C   C192      1.0  0.72291  0.56698  0.32928  1.0000
  H   H60       1.0  0.65822  0.56921  0.33424  1.0000
  H   H61       1.0  0.73789  0.55414  0.32445  1.0000
  H   H62       1.0  0.71178  0.62971  0.36489  1.0000
  C   C193      1.0  0.59349  0.28158  0.34401  1.0000
  C   C194      1.0  0.61085  0.30244  0.35544  1.0000
  C   C195      1.0  0.60283  0.32860  0.34899  1.0000
  C   C196      1.0  0.57606  0.33340  0.33643  1.0000
  C   C197      1.0  0.55797  0.31303  0.32678  1.0000
  C   C198      1.0  0.56726  0.28734  0.32863  1.0000
  H   H63       1.0  0.56956  0.35202  0.33418  1.0000
  H   H64       1.0  0.55443  0.27236  0.32366  1.0000
  H   H65       1.0  0.63002  0.29836  0.36426  1.0000
  C   C199      1.0  0.41696  0.72834  0.34684  1.0000
  C   C200      1.0  0.39964  0.70741  0.35760  1.0000
  C   C201      1.0  0.40767  0.68127  0.35063  1.0000
  C   C202      1.0  0.43443  0.67651  0.33787  1.0000
  C   C203      1.0  0.45250  0.69691  0.32873  1.0000
  C   C204      1.0  0.44321  0.72259  0.33140  1.0000
  H   H66       1.0  0.44094  0.65789  0.33513  1.0000
  H   H67       1.0  0.45607  0.73756  0.32680  1.0000
  H   H68       1.0  0.38046  0.71143  0.36645  1.0000
  C   C205      1.0  0.73060  0.41333  0.34656  1.0000
  C   C206      1.0  0.70955  0.39599  0.35331  1.0000
  C   C207      1.0  0.68340  0.40421  0.35187  1.0000
  C   C208      1.0  0.67881  0.43100  0.33847  1.0000
  C   C209      1.0  0.69926  0.44897  0.32771  1.0000
  C   C210      1.0  0.72490  0.43968  0.33405  1.0000
  H   H69       1.0  0.66020  0.43758  0.33569  1.0000
  H   H70       1.0  0.73990  0.45252  0.33165  1.0000
  H   H71       1.0  0.71353  0.37670  0.35622  1.0000
  C   C211      1.0  0.27995  0.59657  0.34786  1.0000
  C   C212      1.0  0.30101  0.61389  0.35462  1.0000
  C   C213      1.0  0.32715  0.60565  0.35316  1.0000
  C   C214      1.0  0.33172  0.57885  0.33973  1.0000
  C   C215      1.0  0.31126  0.56090  0.32896  1.0000
  C   C216      1.0  0.28563  0.57022  0.33533  1.0000
  H   H72       1.0  0.35032  0.57226  0.33692  1.0000
  H   H73       1.0  0.27061  0.55739  0.33292  1.0000
  H   H74       1.0  0.29705  0.63318  0.35755  1.0000
  C   C217      1.0  0.41362  0.27958  0.34709  1.0000
  C   C218      1.0  0.39630  0.30063  0.35399  1.0000
  C   C219      1.0  0.40453  0.32678  0.35258  1.0000
  C   C220      1.0  0.43132  0.33136  0.33911  1.0000
  C   C221      1.0  0.44928  0.31090  0.32830  1.0000
  C   C222      1.0  0.43997  0.28526  0.33455  1.0000
  H   H75       1.0  0.43791  0.34996  0.33630  1.0000
  H   H76       1.0  0.45280  0.27025  0.33204  1.0000
  H   H77       1.0  0.37700  0.29668  0.35682  1.0000
  C   C223      1.0  0.59681  0.73018  0.34762  1.0000
  C   C224      1.0  0.61415  0.70915  0.35434  1.0000
  C   C225      1.0  0.60594  0.68300  0.35274  1.0000
  C   C226      1.0  0.57915  0.67840  0.33929  1.0000
  C   C227      1.0  0.56118  0.69886  0.32870  1.0000
  C   C228      1.0  0.57046  0.72450  0.33515  1.0000
  H   H78       1.0  0.57258  0.65980  0.33637  1.0000
  H   H79       1.0  0.55762  0.73950  0.33279  1.0000
  H   H80       1.0  0.63345  0.71312  0.35717  1.0000
  C   C229      1.0  0.16347  0.33023  0.33590  1.0000
  C   C230      1.0  0.18480  0.34680  0.34612  1.0000
  C   C231      1.0  0.18204  0.37362  0.35730  1.0000
  C   C232      1.0  0.15675  0.38401  0.35605  1.0000
  C   C233      1.0  0.13429  0.36806  0.35192  1.0000
  C   C234      1.0  0.13841  0.34104  0.34181  1.0000
  H   H81       1.0  0.15490  0.40359  0.35942  1.0000
  H   H82       1.0  0.12289  0.32887  0.33835  1.0000
  H   H83       1.0  0.20301  0.33905  0.34613  1.0000
  C   C235      1.0  0.84688  0.67978  0.33484  1.0000
  C   C236      1.0  0.82561  0.66311  0.34475  1.0000
  C   C237      1.0  0.82848  0.63630  0.35560  1.0000
  C   C238      1.0  0.85381  0.62601  0.35451  1.0000
  C   C239      1.0  0.87621  0.64205  0.35074  1.0000
  C   C240      1.0  0.87198  0.66906  0.34082  1.0000
  H   H84       1.0  0.85574  0.60643  0.35773  1.0000
  H   H85       1.0  0.88745  0.68130  0.33764  1.0000
  H   H86       1.0  0.80737  0.67078  0.34488  1.0000
  C   C241      1.0  0.67974  0.16342  0.33521  1.0000
  C   C242      1.0  0.66299  0.18463  0.34484  1.0000
  C   C243      1.0  0.63616  0.18166  0.35480  1.0000
  C   C244      1.0  0.62595  0.15630  0.35362  1.0000
  C   C245      1.0  0.64207  0.13397  0.35026  1.0000
  C   C246      1.0  0.66909  0.13828  0.34080  1.0000
  H   H87       1.0  0.60637  0.15431  0.35645  1.0000
  H   H88       1.0  0.68137  0.12284  0.33780  1.0000
  H   H89       1.0  0.67059  0.20290  0.34541  1.0000
  C   C247      1.0  0.33028  0.84674  0.33618  1.0000
  C   C248      1.0  0.34683  0.82541  0.34636  1.0000
  C   C249      1.0  0.37365  0.82813  0.35780  1.0000
  C   C250      1.0  0.38406  0.85342  0.35665  1.0000
  C   C251      1.0  0.36814  0.87590  0.35235  1.0000
  C   C252      1.0  0.34112  0.87180  0.34213  1.0000
  H   H90       1.0  0.40364  0.85526  0.36012  1.0000
  H   H91       1.0  0.32895  0.88732  0.33864  1.0000
  H   H92       1.0  0.33907  0.80720  0.34622  1.0000
  C   C253      1.0  0.85117  0.32860  0.34935  1.0000
  C   C254      1.0  0.82975  0.34523  0.34478  1.0000
  C   C255      1.0  0.83208  0.37231  0.34416  1.0000
  C   C256      1.0  0.85743  0.38266  0.34026  1.0000
  C   C257      1.0  0.87996  0.36676  0.33746  1.0000
  C   C258      1.0  0.87612  0.33959  0.34336  1.0000
  H   H93       1.0  0.85941  0.40225  0.34331  1.0000
  H   H94       1.0  0.89171  0.32748  0.34392  1.0000
  H   H95       1.0  0.81166  0.33719  0.34325  1.0000
  C   C259      1.0  0.15929  0.68129  0.35039  1.0000
  C   C260      1.0  0.18074  0.66471  0.34597  1.0000
  C   C261      1.0  0.17847  0.63762  0.34523  1.0000
  C   C262      1.0  0.15314  0.62721  0.34113  1.0000
  C   C263      1.0  0.13058  0.64306  0.33824  1.0000
  C   C264      1.0  0.13437  0.67024  0.34420  1.0000
  H   H96       1.0  0.15121  0.60763  0.34425  1.0000
  H   H97       1.0  0.11875  0.68232  0.34463  1.0000
  H   H98       1.0  0.19882  0.67277  0.34456  1.0000
  C   C265      1.0  0.32879  0.15902  0.34959  1.0000
  C   C266      1.0  0.34540  0.18044  0.34507  1.0000
  C   C267      1.0  0.37249  0.17811  0.34434  1.0000
  C   C268      1.0  0.38285  0.15276  0.34030  1.0000
  C   C269      1.0  0.36694  0.13023  0.33759  1.0000
  C   C270      1.0  0.33977  0.13407  0.34354  1.0000
  H   H99       1.0  0.40243  0.15078  0.34341  1.0000
  H   H100      1.0  0.32766  0.11848  0.34413  1.0000
  H   H101      1.0  0.33737  0.19853  0.34364  1.0000
  C   C271      1.0  0.68140  0.85089  0.35050  1.0000
  C   C272      1.0  0.66483  0.82943  0.34608  1.0000
  C   C273      1.0  0.63774  0.83170  0.34528  1.0000
  C   C274      1.0  0.62733  0.85702  0.34113  1.0000
  C   C275      1.0  0.64317  0.87959  0.33826  1.0000
  C   C276      1.0  0.67035  0.87581  0.34425  1.0000
  H   H102      1.0  0.60774  0.85894  0.34418  1.0000
  H   H103      1.0  0.68243  0.89143  0.34469  1.0000
  H   H104      1.0  0.67291  0.81136  0.34478  1.0000
  C   C277      1.0  0.12293  0.12169  0.36121  1.0000
  C   C278      1.0  0.15968  0.16081  0.35533  1.0000
  N   N65       1.0  0.16236  0.14028  0.41147  1.0000
  C   C279      1.0  0.14506  0.12077  0.41734  1.0000
  C   C280      1.0  0.14971  0.10301  0.47701  1.0000
  N   N66       1.0  0.15385  0.08732  0.52966  1.0000
  C   C281      1.0  0.88720  0.88835  0.36123  1.0000
  C   C282      1.0  0.85049  0.84919  0.35550  1.0000
  N   N67       1.0  0.84780  0.86972  0.41162  1.0000
  C   C283      1.0  0.86507  0.88925  0.41743  1.0000
  C   C284      1.0  0.86042  0.90702  0.47708  1.0000
  N   N68       1.0  0.85627  0.92271  0.52972  1.0000
  C   C285      1.0  0.88839  0.12283  0.36114  1.0000
  C   C286      1.0  0.84922  0.15951  0.35531  1.0000
  N   N69       1.0  0.86973  0.16222  0.41148  1.0000
  C   C287      1.0  0.88926  0.14495  0.41737  1.0000
  C   C288      1.0  0.90701  0.14962  0.47708  1.0000
  N   N70       1.0  0.92269  0.15378  0.52976  1.0000
  C   C289      1.0  0.12166  0.88720  0.36114  1.0000
  C   C290      1.0  0.16081  0.85048  0.35544  1.0000
  N   N71       1.0  0.14028  0.84779  0.41156  1.0000
  C   C291      1.0  0.12076  0.86507  0.41733  1.0000
  C   C292      1.0  0.10300  0.86043  0.47704  1.0000
  N   N72       1.0  0.08731  0.85630  0.52972  1.0000
  N   N73       1.0  0.10606  0.99013  0.38467  1.0000
  C   C293      1.0  0.10812  0.01618  0.38917  1.0000
  H   H105      1.0  0.11348  0.02463  0.44848  1.0000
  N   N74       1.0  0.90398  0.01989  0.38455  1.0000
  C   C294      1.0  0.90179  0.99385  0.38884  1.0000
  H   H106      1.0  0.89656  0.98540  0.44827  1.0000
  N   N75       1.0  0.01998  0.10612  0.38460  1.0000
  C   C295      1.0  0.99394  0.10825  0.38914  1.0000
  H   H107      1.0  0.98552  0.11337  0.44875  1.0000
  N   N76       1.0  0.99013  0.90397  0.38430  1.0000
  C   C296      1.0  0.01617  0.90184  0.38880  1.0000
  H   H108      1.0  0.02461  0.89672  0.44837  1.0000
  N   N77       1.0  0.15879  0.28759  0.39389  1.0000
  C   C297      1.0  0.16549  0.26242  0.40360  1.0000
  H   H109      1.0  0.15739  0.25191  0.45448  1.0000
  N   N78       1.0  0.85153  0.72239  0.39315  1.0000
  C   C298      1.0  0.84481  0.74755  0.40312  1.0000
  H   H110      1.0  0.85296  0.75804  0.45394  1.0000
  N   N79       1.0  0.72241  0.15864  0.39322  1.0000
  C   C299      1.0  0.74760  0.16528  0.40294  1.0000
  H   H111      1.0  0.75815  0.15699  0.45333  1.0000
  N   N80       1.0  0.28762  0.85145  0.39415  1.0000
  C   C300      1.0  0.26244  0.84474  0.40383  1.0000
  H   H112      1.0  0.25192  0.85285  0.45463  1.0000
  C   C301      1.0  0.84602  0.30166  0.35774  1.0000
  C   C302      1.0  0.82770  0.25087  0.34414  1.0000
  N   N81       1.0  0.82023  0.26657  0.41237  1.0000
  C   C303      1.0  0.82854  0.29122  0.42221  1.0000
  C   C304      1.0  0.81977  0.30371  0.49186  1.0000
  N   N82       1.0  0.81199  0.31478  0.55308  1.0000
  C   C305      1.0  0.16437  0.70826  0.35869  1.0000
  C   C306      1.0  0.18249  0.75912  0.34493  1.0000
  N   N83       1.0  0.19007  0.74345  0.41310  1.0000
  C   C307      1.0  0.18185  0.71877  0.42304  1.0000
  C   C308      1.0  0.19070  0.70633  0.49267  1.0000
  N   N84       1.0  0.19854  0.69530  0.55389  1.0000
  C   C309      1.0  0.30184  0.16415  0.35810  1.0000
  C   C310      1.0  0.25103  0.18237  0.34449  1.0000
  N   N85       1.0  0.26671  0.18990  0.41269  1.0000
  C   C311      1.0  0.29138  0.18163  0.42255  1.0000
  C   C312      1.0  0.30386  0.19041  0.49217  1.0000
  N   N86       1.0  0.31493  0.19820  0.55339  1.0000
  C   C313      1.0  0.70836  0.84581  0.35892  1.0000
  C   C314      1.0  0.75916  0.82757  0.34493  1.0000
  N   N87       1.0  0.74353  0.82010  0.41337  1.0000
  C   C315      1.0  0.71887  0.82839  0.42342  1.0000
  C   C316      1.0  0.70644  0.81963  0.49320  1.0000
  N   N88       1.0  0.69541  0.81187  0.55455  1.0000
  N   N89       1.0  0.36541  0.08460  0.37790  1.0000
  C   C317      1.0  0.37334  0.05945  0.37999  1.0000
  H   H113      1.0  0.36339  0.04649  0.41841  1.0000
  N   N90       1.0  0.64464  0.92527  0.37779  1.0000
  C   C318      1.0  0.63668  0.95041  0.37949  1.0000
  H   H114      1.0  0.64668  0.96344  0.41745  1.0000
  N   N91       1.0  0.92559  0.36523  0.37775  1.0000
  C   C319      1.0  0.95074  0.37319  0.37991  1.0000
  H   H115      1.0  0.96371  0.36322  0.41819  1.0000
  N   N92       1.0  0.08490  0.64453  0.37788  1.0000
  C   C320      1.0  0.05976  0.63655  0.37966  1.0000
  H   H116      1.0  0.04672  0.64656  0.41755  1.0000
  C   C321      1.0  0.63197  0.10786  0.35564  1.0000
  C   C322      1.0  0.61401  0.05561  0.35476  1.0000
  N   N93       1.0  0.60261  0.07475  0.40352  1.0000
  C   C323      1.0  0.61035  0.09979  0.40764  1.0000
  C   C324      1.0  0.59745  0.11423  0.46321  1.0000
  N   N94       1.0  0.58590  0.12682  0.51246  1.0000
  C   C325      1.0  0.37842  0.90196  0.35735  1.0000
  C   C326      1.0  0.39655  0.95417  0.35587  1.0000
  N   N95       1.0  0.40792  0.93503  0.40472  1.0000
  C   C327      1.0  0.40011  0.91000  0.40904  1.0000
  C   C328      1.0  0.41296  0.89559  0.46485  1.0000
  N   N96       1.0  0.42446  0.88304  0.51435  1.0000
  C   C329      1.0  0.10823  0.37833  0.35695  1.0000
  C   C330      1.0  0.05601  0.39646  0.35551  1.0000
  N   N97       1.0  0.07515  0.40782  0.40438  1.0000
  C   C331      1.0  0.10018  0.40001  0.40867  1.0000
  C   C332      1.0  0.11460  0.41286  0.46447  1.0000
  N   N98       1.0  0.12716  0.42435  0.51397  1.0000
  C   C333      1.0  0.90230  0.63189  0.35610  1.0000
  C   C334      1.0  0.95454  0.61386  0.35498  1.0000
  N   N99       1.0  0.93539  0.60248  0.40379  1.0000
  C   C335      1.0  0.91037  0.61026  0.40805  1.0000
  C   C336      1.0  0.89592  0.59733  0.46353  1.0000
  N   N100      1.0  0.88334  0.58575  0.51270  1.0000
  N   N101      1.0  0.51975  0.98859  0.38599  1.0000
  C   C337      1.0  0.49369  0.98626  0.39100  1.0000
  H   H117      1.0  0.48603  0.97228  0.43139  1.0000
  N   N102      1.0  0.02157  0.51962  0.38605  1.0000
  C   C338      1.0  0.02390  0.49355  0.39101  1.0000
  H   H118      1.0  0.03788  0.48589  0.43138  1.0000
  C   C339      1.0  0.20522  0.38838  0.36685  1.0000
  C   C340      1.0  0.25573  0.40815  0.35253  1.0000
  N   N103      1.0  0.24860  0.39241  0.42135  1.0000
  C   C341      1.0  0.22449  0.38263  0.43216  1.0000
  C   C342      1.0  0.22078  0.36787  0.50191  1.0000
  N   N104      1.0  0.21745  0.35484  0.56337  1.0000
  C   C343      1.0  0.80537  0.62144  0.36511  1.0000
  C   C344      1.0  0.75480  0.60174  0.35086  1.0000
  N   N105      1.0  0.76205  0.61724  0.42021  1.0000
  C   C345      1.0  0.78619  0.62697  0.43095  1.0000
  C   C346      1.0  0.79001  0.64149  0.50122  1.0000
  N   N106      1.0  0.79347  0.65430  0.56314  1.0000
  C   C347      1.0  0.62122  0.20471  0.36401  1.0000
  C   C348      1.0  0.60194  0.25542  0.34981  1.0000
  N   N107      1.0  0.61676  0.24786  0.42055  1.0000
  C   C349      1.0  0.62626  0.22362  0.43125  1.0000
  C   C350      1.0  0.64015  0.21942  0.50281  1.0000
  N   N108      1.0  0.65237  0.21561  0.56592  1.0000
  C   C351      1.0  0.38841  0.80496  0.36759  1.0000
  C   C352      1.0  0.40841  0.75448  0.35325  1.0000
  N   N109      1.0  0.39235  0.76147  0.42137  1.0000
  C   C353      1.0  0.38246  0.78554  0.43219  1.0000
  C   C354      1.0  0.36740  0.78905  0.50125  1.0000
  N   N110      1.0  0.35408  0.79220  0.56207  1.0000
  N   N111      1.0  0.78997  0.37732  0.40652  1.0000
  C   C355      1.0  0.76517  0.38545  0.41078  1.0000
  H   H119      1.0  0.75287  0.37687  0.45539  1.0000
  N   N112      1.0  0.22059  0.63264  0.40760  1.0000
  C   C356      1.0  0.24539  0.62450  0.41192  1.0000
  H   H120      1.0  0.25769  0.63308  0.45657  1.0000
  N   N113      1.0  0.37751  0.22023  0.40671  1.0000
  C   C357      1.0  0.38566  0.24502  0.41104  1.0000
  H   H121      1.0  0.37709  0.25732  0.45570  1.0000
  N   N114      1.0  0.63277  0.78958  0.40768  1.0000
  C   C358      1.0  0.62466  0.76478  0.41190  1.0000
  H   H122      1.0  0.63321  0.75249  0.45665  1.0000
  N   N115      1.0  0.33007  0.52057  0.37674  1.0000
  C   C359      1.0  0.33220  0.49435  0.37919  1.0000
  H   H123      1.0  0.34260  0.48592  0.42969  1.0000
  N   N116      1.0  0.68048  0.48931  0.37562  1.0000
  C   C360      1.0  0.67837  0.51553  0.37810  1.0000
  H   H124      1.0  0.66801  0.52396  0.42868  1.0000
  N   N117      1.0  0.48963  0.32970  0.37593  1.0000
  C   C361      1.0  0.51585  0.33186  0.37816  1.0000
  H   H125      1.0  0.52430  0.34223  0.42869  1.0000
  N   N118      1.0  0.52085  0.68007  0.37659  1.0000
  C   C362      1.0  0.49464  0.67792  0.37915  1.0000
  H   H126      1.0  0.48623  0.66766  0.43001  1.0000
  C   C363      1.0  0.38607  0.34763  0.35998  1.0000
  C   C364      1.0  0.34934  0.38854  0.35523  1.0000
  N   N119      1.0  0.34675  0.36764  0.41001  1.0000
  C   C365      1.0  0.36375  0.34772  0.41600  1.0000
  C   C366      1.0  0.35844  0.33043  0.47669  1.0000
  N   N120      1.0  0.35365  0.31522  0.53035  1.0000
  C   C367      1.0  0.62442  0.66216  0.35991  1.0000
  C   C368      1.0  0.66119  0.62129  0.35468  1.0000
  N   N121      1.0  0.66377  0.64215  0.40964  1.0000
  C   C369      1.0  0.64675  0.66204  0.41591  1.0000
  C   C370      1.0  0.65207  0.67930  0.47667  1.0000
  N   N122      1.0  0.65687  0.69449  0.53041  1.0000
  C   C371      1.0  0.66255  0.38574  0.35923  1.0000
  C   C372      1.0  0.62165  0.34899  0.35423  1.0000
  N   N123      1.0  0.64255  0.34638  0.40898  1.0000
  C   C373      1.0  0.66246  0.36339  0.41512  1.0000
  C   C374      1.0  0.67976  0.35803  0.47571  1.0000
  N   N124      1.0  0.69499  0.35321  0.52931  1.0000
  C   C375      1.0  0.34800  0.62409  0.36057  1.0000
  C   C376      1.0  0.38887  0.66086  0.35567  1.0000
  N   N125      1.0  0.36801  0.66341  0.41065  1.0000
  C   C377      1.0  0.34811  0.64639  0.41673  1.0000
  C   C378      1.0  0.33084  0.65168  0.47751  1.0000
  N   N126      1.0  0.31564  0.65644  0.53125  1.0000
