data_image0
_chemical_formula_structural       C4HCH3C4HCH3C4HCH3C4HCH3C2H2C2H2C2H2C2H2C2H2C2H2C2H2C2H2C4HCH3C4HCH3C4HCH3C4HCH3C4HCH3C4HCH3C4HCH3C4HCH3C2H2C2H2C2H2C2H2C2H2C2H2C2H2C2H2C2H2C2H2CNCNCNCNCNCNCNCNCNCNCNCNCNCNCNCNCNCNCNCNCNCNCNCNCNCNCNCNCNCNCNCNCNCNCNCNCNCNCNCNCNCNCNCNCNCNCNCNCNCNCNCNCNCNCNCNCNCNCNCNC2H2C2H2C2H2C2H2C4HCH3C4HCH3C4HCH3C4HCH3C4HCH3C4HCH3C4HCH3C4HCH3C2H2C2H2C2H2C2H2C2H2C2H2C2H2C2H2C4HCH3C4HCH3C4HCH3C4HCH3C4HCH3C4HCH3C4HCH3C4HCH3C4HCH3C4HCH3
_chemical_formula_sum              "C270 H180 N60"
_cell_length_a       43.7559
_cell_length_b       43.7559
_cell_length_c       14.8729
_cell_angle_alpha    90
_cell_angle_beta     90
_cell_angle_gamma    90

_space_group_name_H-M_alt    "P 1"
_space_group_IT_number       1

loop_
  _space_group_symop_operation_xyz
  'x, y, z'

loop_
  _atom_site_type_symbol
  _atom_site_label
  _atom_site_symmetry_multiplicity
  _atom_site_fract_x
  _atom_site_fract_y
  _atom_site_fract_z
  _atom_site_occupancy
  C   C1        1.0  0.30991  0.04222  0.33766  1.0000
  C   C2        1.0  0.33069  0.02357  0.28998  1.0000
  C   C3        1.0  0.36237  0.03020  0.28650  1.0000
  C   C4        1.0  0.37377  0.05616  0.33427  1.0000
  H   H1        1.0  0.32241  0.00513  0.25524  1.0000
  C   C5        1.0  0.38216  0.01054  0.22893  1.0000
  H   H2        1.0  0.36911  0.99440  0.18815  1.0000
  H   H3        1.0  0.39768  0.99724  0.27074  1.0000
  H   H4        1.0  0.39543  0.02473  0.18287  1.0000
  C   C6        1.0  0.69855  0.96752  0.33201  1.0000
  C   C7        1.0  0.67739  0.98766  0.29161  1.0000
  C   C8        1.0  0.64557  0.98147  0.28996  1.0000
  C   C9        1.0  0.63435  0.95423  0.33171  1.0000
  H   H5        1.0  0.68542  0.00708  0.26136  1.0000
  C   C10       1.0  0.62543  0.00346  0.24148  1.0000
  H   H6        1.0  0.63819  0.02084  0.20448  1.0000
  H   H7        1.0  0.61084  0.01536  0.28950  1.0000
  H   H8        1.0  0.61125  0.99130  0.19283  1.0000
  C   C11       1.0  0.96689  0.31026  0.33785  1.0000
  C   C12       1.0  0.98561  0.33102  0.29035  1.0000
  C   C13       1.0  0.97901  0.36271  0.28685  1.0000
  C   C14       1.0  0.95303  0.37413  0.33452  1.0000
  H   H9        1.0  0.00404  0.32273  0.25561  1.0000
  C   C15       1.0  0.99871  0.38249  0.22939  1.0000
  H   H10       1.0  0.01487  0.36943  0.18869  1.0000
  H   H11       1.0  0.01201  0.39800  0.27129  1.0000
  H   H12       1.0  0.98457  0.39577  0.18326  1.0000
  C   C16       1.0  0.04161  0.69889  0.33180  1.0000
  C   C17       1.0  0.02146  0.67770  0.29156  1.0000
  C   C18       1.0  0.02768  0.64589  0.28990  1.0000
  C   C19       1.0  0.05497  0.63469  0.33145  1.0000
  H   H13       1.0  0.00199  0.68571  0.26150  1.0000
  C   C20       1.0  0.00565  0.62572  0.24166  1.0000
  H   H14       1.0  0.98823  0.63847  0.20477  1.0000
  H   H15       1.0  0.99380  0.61115  0.28982  1.0000
  H   H16       1.0  0.01776  0.61153  0.19296  1.0000
  C   C21       1.0  0.15507  0.57702  0.31303  1.0000
  C   C22       1.0  0.18647  0.57077  0.31161  1.0000
  H   H17       1.0  0.14796  0.59683  0.28294  1.0000
  H   H18       1.0  0.20062  0.58624  0.28114  1.0000
  C   C23       1.0  0.85389  0.43271  0.30875  1.0000
  C   C24       1.0  0.82253  0.43906  0.30644  1.0000
  H   H19       1.0  0.86101  0.41283  0.27909  1.0000
  H   H20       1.0  0.80842  0.42359  0.27574  1.0000
  C   C25       1.0  0.57669  0.85419  0.31260  1.0000
  C   C26       1.0  0.57045  0.82279  0.31102  1.0000
  H   H21       1.0  0.59647  0.86133  0.28243  1.0000
  H   H22       1.0  0.58590  0.80867  0.28032  1.0000
  C   C27       1.0  0.43235  0.15539  0.30964  1.0000
  C   C28       1.0  0.43871  0.18675  0.30761  1.0000
  H   H23       1.0  0.41243  0.14832  0.28009  1.0000
  H   H24       1.0  0.42321  0.20090  0.27722  1.0000
  C   C29       1.0  0.17501  0.12037  0.31165  1.0000
  C   C30       1.0  0.18606  0.09002  0.31157  1.0000
  H   H25       1.0  0.15910  0.12623  0.26419  1.0000
  H   H26       1.0  0.17833  0.07518  0.26348  1.0000
  C   C31       1.0  0.83360  0.88903  0.30792  1.0000
  C   C32       1.0  0.82260  0.91940  0.30679  1.0000
  H   H27       1.0  0.84960  0.88301  0.26091  1.0000
  H   H28       1.0  0.83035  0.93406  0.25823  1.0000
  C   C33       1.0  0.88873  0.17542  0.31048  1.0000
  C   C34       1.0  0.91912  0.18637  0.31090  1.0000
  H   H29       1.0  0.88291  0.15954  0.26292  1.0000
  H   H30       1.0  0.93397  0.17876  0.26268  1.0000
  C   C35       1.0  0.12004  0.83402  0.30885  1.0000
  C   C36       1.0  0.08968  0.82300  0.30748  1.0000
  H   H31       1.0  0.12609  0.85007  0.26202  1.0000
  H   H32       1.0  0.07506  0.83079  0.25889  1.0000
  C   C37       1.0  0.29855  0.58277  0.31804  1.0000
  C   C38       1.0  0.28758  0.60561  0.25870  1.0000
  C   C39       1.0  0.29852  0.63607  0.25976  1.0000
  C   C40       1.0  0.32177  0.64435  0.32253  1.0000
  H   H33       1.0  0.26993  0.60022  0.21625  1.0000
  C   C41       1.0  0.28508  0.65825  0.19468  1.0000
  H   H34       1.0  0.27075  0.64725  0.14402  1.0000
  H   H35       1.0  0.30325  0.67031  0.15909  1.0000
  H   H36       1.0  0.27085  0.67477  0.23023  1.0000
  C   C42       1.0  0.71049  0.42672  0.31327  1.0000
  C   C43       1.0  0.72147  0.40381  0.25417  1.0000
  C   C44       1.0  0.71043  0.37339  0.25529  1.0000
  C   C45       1.0  0.68713  0.36521  0.31800  1.0000
  H   H37       1.0  0.73914  0.40914  0.21171  1.0000
  C   C46       1.0  0.72386  0.35113  0.19041  1.0000
  H   H38       1.0  0.73820  0.36208  0.13966  1.0000
  H   H39       1.0  0.70567  0.33905  0.15491  1.0000
  H   H40       1.0  0.73807  0.33464  0.22609  1.0000
  C   C47       1.0  0.58241  0.71071  0.31646  1.0000
  C   C48       1.0  0.60521  0.72168  0.25701  1.0000
  C   C49       1.0  0.63565  0.71067  0.25783  1.0000
  C   C50       1.0  0.64391  0.68739  0.32048  1.0000
  H   H41       1.0  0.59981  0.73937  0.21471  1.0000
  C   C51       1.0  0.65781  0.72412  0.19271  1.0000
  H   H42       1.0  0.64680  0.73848  0.14215  1.0000
  H   H43       1.0  0.66984  0.70594  0.15701  1.0000
  H   H44       1.0  0.67436  0.73831  0.22823  1.0000
  C   C52       1.0  0.42637  0.29878  0.31535  1.0000
  C   C53       1.0  0.40345  0.28780  0.25626  1.0000
  C   C54       1.0  0.37300  0.29879  0.25756  1.0000
  C   C55       1.0  0.36481  0.32205  0.32034  1.0000
  H   H45       1.0  0.40878  0.27014  0.21379  1.0000
  C   C56       1.0  0.35075  0.28535  0.19270  1.0000
  H   H46       1.0  0.36169  0.27103  0.14190  1.0000
  H   H47       1.0  0.33864  0.30353  0.15727  1.0000
  H   H48       1.0  0.33428  0.27111  0.22840  1.0000
  C   C57       1.0  0.22787  0.96915  0.32088  1.0000
  C   C58       1.0  0.24763  0.94780  0.27878  1.0000
  C   C59       1.0  0.24245  0.91577  0.27986  1.0000
  C   C60       1.0  0.21624  0.90390  0.32540  1.0000
  H   H49       1.0  0.26681  0.95582  0.24719  1.0000
  C   C61       1.0  0.26477  0.89592  0.23151  1.0000
  H   H50       1.0  0.28111  0.90889  0.19120  1.0000
  H   H51       1.0  0.25271  0.88057  0.18584  1.0000
  H   H52       1.0  0.27789  0.88251  0.27979  1.0000
  C   C62       1.0  0.78079  0.04043  0.31649  1.0000
  C   C63       1.0  0.76117  0.06183  0.27406  1.0000
  C   C64       1.0  0.76633  0.09385  0.27570  1.0000
  C   C65       1.0  0.79237  0.10565  0.32228  1.0000
  H   H53       1.0  0.74212  0.05384  0.24174  1.0000
  C   C66       1.0  0.74419  0.11375  0.22684  1.0000
  H   H54       1.0  0.72799  0.10083  0.18590  1.0000
  H   H55       1.0  0.75643  0.12915  0.18167  1.0000
  H   H56       1.0  0.73091  0.12712  0.27482  1.0000
  C   C67       1.0  0.03989  0.22820  0.32087  1.0000
  C   C68       1.0  0.06118  0.24789  0.27827  1.0000
  C   C69       1.0  0.09321  0.24275  0.27931  1.0000
  C   C70       1.0  0.10514  0.21666  0.32537  1.0000
  H   H57       1.0  0.05312  0.26700  0.24640  1.0000
  C   C71       1.0  0.11301  0.26499  0.23044  1.0000
  H   H58       1.0  0.10000  0.28124  0.18991  1.0000
  H   H59       1.0  0.12833  0.25284  0.18488  1.0000
  H   H60       1.0  0.12644  0.27822  0.27839  1.0000
  C   C72       1.0  0.96858  0.78110  0.31681  1.0000
  C   C73       1.0  0.94713  0.76141  0.27488  1.0000
  C   C74       1.0  0.91512  0.76661  0.27658  1.0000
  C   C75       1.0  0.90337  0.79278  0.32263  1.0000
  H   H61       1.0  0.95508  0.74227  0.24293  1.0000
  C   C76       1.0  0.89516  0.74438  0.22831  1.0000
  H   H62       1.0  0.90803  0.72808  0.18758  1.0000
  H   H63       1.0  0.87973  0.75652  0.18303  1.0000
  H   H64       1.0  0.88183  0.73120  0.27666  1.0000
  C   C77       1.0  0.31205  0.42670  0.31970  1.0000
  C   C78       1.0  0.30664  0.45851  0.32167  1.0000
  H   H65       1.0  0.33090  0.41924  0.28535  1.0000
  H   H66       1.0  0.32142  0.47268  0.28838  1.0000
  C   C79       1.0  0.69675  0.58277  0.31565  1.0000
  C   C80       1.0  0.70216  0.55096  0.31734  1.0000
  H   H67       1.0  0.67799  0.59030  0.28101  1.0000
  H   H68       1.0  0.68749  0.53685  0.28342  1.0000
  C   C81       1.0  0.42640  0.69720  0.31869  1.0000
  C   C82       1.0  0.45821  0.70261  0.32058  1.0000
  H   H69       1.0  0.41891  0.67837  0.28432  1.0000
  H   H70       1.0  0.47236  0.68786  0.28711  1.0000
  C   C83       1.0  0.58248  0.31250  0.31697  1.0000
  C   C84       1.0  0.55067  0.30709  0.31881  1.0000
  H   H71       1.0  0.58997  0.33129  0.28237  1.0000
  H   H72       1.0  0.53653  0.32178  0.28512  1.0000
  C   C85       1.0  0.21762  0.26769  0.27227  1.0000
  C   C86       1.0  0.24018  0.29074  0.26874  1.0000
  H   H73       1.0  0.20655  0.26189  0.21405  1.0000
  H   H74       1.0  0.24479  0.30104  0.20845  1.0000
  C   C87       1.0  0.79262  0.74032  0.27367  1.0000
  C   C88       1.0  0.77019  0.71714  0.26979  1.0000
  H   H75       1.0  0.80481  0.74512  0.21660  1.0000
  H   H76       1.0  0.76676  0.70581  0.21042  1.0000
  C   C89       1.0  0.74163  0.21826  0.26989  1.0000
  C   C90       1.0  0.71857  0.24081  0.26634  1.0000
  H   H77       1.0  0.74756  0.20731  0.21159  1.0000
  H   H78       1.0  0.70841  0.24555  0.20593  1.0000
  C   C91       1.0  0.26877  0.79304  0.27540  1.0000
  C   C92       1.0  0.29195  0.77061  0.27166  1.0000
  H   H79       1.0  0.26397  0.80520  0.21827  1.0000
  H   H80       1.0  0.30328  0.76714  0.21231  1.0000
  C   C93       1.0  0.50785  0.03232  0.30891  1.0000
  C   C94       1.0  0.53121  0.01043  0.30749  1.0000
  H   H81       1.0  0.51132  0.05223  0.27414  1.0000
  H   H82       1.0  0.55066  0.01512  0.27190  1.0000
  C   C95       1.0  0.97690  0.50819  0.30884  1.0000
  C   C96       1.0  0.99879  0.53154  0.30741  1.0000
  H   H83       1.0  0.95702  0.51163  0.27392  1.0000
  H   H84       1.0  0.99413  0.55096  0.27161  1.0000
  C   C97       1.0  0.22714  0.05390  0.35632  1.0000
  N   N1        1.0  0.21660  0.02468  0.34361  1.0000
  C   C98       1.0  0.23635  0.00076  0.32856  1.0000
  N   N2        1.0  0.26679  0.00726  0.32683  1.0000
  C   C99       1.0  0.27817  0.03573  0.33874  1.0000
  N   N3        1.0  0.25778  0.05833  0.35318  1.0000
  C   C100      1.0  0.78144  0.95566  0.35016  1.0000
  N   N4        1.0  0.79201  0.98489  0.33831  1.0000
  C   C101      1.0  0.77229  0.00883  0.32350  1.0000
  N   N5        1.0  0.74184  0.00236  0.32150  1.0000
  C   C102      1.0  0.73038  0.97387  0.33255  1.0000
  N   N6        1.0  0.75080  0.95126  0.34667  1.0000
  C   C103      1.0  0.95514  0.22749  0.35606  1.0000
  N   N7        1.0  0.98435  0.21694  0.34344  1.0000
  C   C104      1.0  0.00829  0.23669  0.32866  1.0000
  N   N8        1.0  0.00181  0.26713  0.32702  1.0000
  C   C105      1.0  0.97334  0.27851  0.33887  1.0000
  N   N9        1.0  0.95072  0.25812  0.35310  1.0000
  C   C106      1.0  0.05339  0.78178  0.35031  1.0000
  N   N10       1.0  0.02415  0.79234  0.33857  1.0000
  C   C107      1.0  0.00021  0.77261  0.32365  1.0000
  N   N11       1.0  0.00671  0.74216  0.32149  1.0000
  C   C108      1.0  0.03521  0.73072  0.33244  1.0000
  N   N12       1.0  0.05780  0.75115  0.34664  1.0000
  C   C109      1.0  0.28106  0.55553  0.33037  1.0000
  N   N13       1.0  0.29164  0.52626  0.34196  1.0000
  C   C110      1.0  0.27191  0.50226  0.35586  1.0000
  N   N14       1.0  0.24148  0.50875  0.35777  1.0000
  C   C111      1.0  0.23000  0.53725  0.34724  1.0000
  N   N15       1.0  0.25041  0.55992  0.33383  1.0000
  C   C112      1.0  0.72793  0.45400  0.32531  1.0000
  N   N16       1.0  0.71725  0.48320  0.33736  1.0000
  C   C113      1.0  0.73691  0.50726  0.35128  1.0000
  N   N17       1.0  0.76737  0.50090  0.35279  1.0000
  C   C114      1.0  0.77895  0.47247  0.34180  1.0000
  N   N18       1.0  0.75860  0.44973  0.32841  1.0000
  C   C115      1.0  0.55519  0.72819  0.32913  1.0000
  N   N19       1.0  0.52593  0.71761  0.34062  1.0000
  C   C116      1.0  0.50195  0.73733  0.35471  1.0000
  N   N20       1.0  0.50845  0.76776  0.35690  1.0000
  C   C117      1.0  0.53695  0.77924  0.34642  1.0000
  N   N21       1.0  0.55961  0.75883  0.33279  1.0000
  C   C118      1.0  0.45367  0.28132  0.32731  1.0000
  N   N22       1.0  0.48289  0.29198  0.33916  1.0000
  C   C119      1.0  0.50696  0.27232  0.35280  1.0000
  N   N23       1.0  0.50060  0.24186  0.35408  1.0000
  C   C120      1.0  0.47217  0.23028  0.34317  1.0000
  N   N24       1.0  0.44942  0.25065  0.33012  1.0000
  C   C121      1.0  0.17772  0.17427  0.35931  1.0000
  N   N25       1.0  0.14771  0.18123  0.34593  1.0000
  C   C122      1.0  0.13733  0.21043  0.33539  1.0000
  N   N26       1.0  0.15876  0.23313  0.33866  1.0000
  C   C123      1.0  0.18907  0.22766  0.35150  1.0000
  N   N27       1.0  0.19792  0.19803  0.36150  1.0000
  C   C124      1.0  0.83088  0.83529  0.35743  1.0000
  N   N28       1.0  0.86086  0.82830  0.34346  1.0000
  C   C125      1.0  0.87122  0.79908  0.33337  1.0000
  N   N29       1.0  0.84981  0.77639  0.33762  1.0000
  C   C126      1.0  0.81954  0.78183  0.35132  1.0000
  N   N30       1.0  0.81071  0.81150  0.36074  1.0000
  C   C127      1.0  0.83480  0.17812  0.35768  1.0000
  N   N31       1.0  0.82784  0.14814  0.34383  1.0000
  C   C128      1.0  0.79863  0.13781  0.33281  1.0000
  N   N32       1.0  0.77595  0.15926  0.33611  1.0000
  C   C129      1.0  0.78144  0.18954  0.34938  1.0000
  N   N33       1.0  0.81106  0.19835  0.35983  1.0000
  C   C130      1.0  0.17375  0.83130  0.35868  1.0000
  N   N34       1.0  0.18073  0.86131  0.34521  1.0000
  C   C131      1.0  0.20996  0.87171  0.33552  1.0000
  N   N35       1.0  0.23267  0.85032  0.33971  1.0000
  C   C132      1.0  0.22724  0.82001  0.35290  1.0000
  N   N36       1.0  0.19756  0.81115  0.36194  1.0000
  C   C133      1.0  0.33206  0.67520  0.33331  1.0000
  N   N37       1.0  0.36231  0.68210  0.34139  1.0000
  C   C134      1.0  0.37279  0.71135  0.35015  1.0000
  N   N38       1.0  0.35131  0.73404  0.34976  1.0000
  C   C135      1.0  0.32082  0.72845  0.34306  1.0000
  N   N39       1.0  0.31179  0.69885  0.33581  1.0000
  C   C136      1.0  0.67683  0.33439  0.32925  1.0000
  N   N40       1.0  0.64660  0.32754  0.33840  1.0000
  C   C137      1.0  0.63610  0.29833  0.34828  1.0000
  N   N41       1.0  0.65756  0.27563  0.34814  1.0000
  C   C138      1.0  0.68804  0.28117  0.34030  1.0000
  N   N42       1.0  0.69708  0.31072  0.33168  1.0000
  C   C139      1.0  0.67475  0.67708  0.33115  1.0000
  N   N43       1.0  0.68162  0.64682  0.33905  1.0000
  C   C140      1.0  0.71087  0.63633  0.34773  1.0000
  N   N44       1.0  0.73358  0.65778  0.34747  1.0000
  C   C141      1.0  0.72799  0.68828  0.34097  1.0000
  N   N45       1.0  0.69840  0.69734  0.33378  1.0000
  C   C142      1.0  0.33397  0.33233  0.33164  1.0000
  N   N46       1.0  0.32709  0.36256  0.34078  1.0000
  C   C143      1.0  0.29787  0.37305  0.35061  1.0000
  N   N47       1.0  0.27518  0.35156  0.35038  1.0000
  C   C144      1.0  0.28074  0.32109  0.34256  1.0000
  N   N48       1.0  0.31030  0.31207  0.33401  1.0000
  C   C145      1.0  0.44404  0.10266  0.34864  1.0000
  N   N49       1.0  0.46500  0.07986  0.35207  1.0000
  C   C146      1.0  0.45726  0.04983  0.35093  1.0000
  N   N50       1.0  0.42723  0.04275  0.34357  1.0000
  C   C147      1.0  0.40518  0.06438  0.33818  1.0000
  N   N51       1.0  0.41420  0.09410  0.34180  1.0000
  C   C148      1.0  0.56450  0.90698  0.34957  1.0000
  N   N52       1.0  0.54319  0.92943  0.35163  1.0000
  C   C149      1.0  0.55044  0.95952  0.34741  1.0000
  N   N53       1.0  0.58037  0.96716  0.33997  1.0000
  C   C150      1.0  0.60285  0.94587  0.33624  1.0000
  N   N54       1.0  0.59415  0.91603  0.34163  1.0000
  C   C151      1.0  0.90655  0.44439  0.34843  1.0000
  N   N55       1.0  0.92934  0.46536  0.35194  1.0000
  C   C152      1.0  0.95938  0.45762  0.35100  1.0000
  N   N56       1.0  0.96646  0.42759  0.34380  1.0000
  C   C153      1.0  0.94484  0.40554  0.33838  1.0000
  N   N57       1.0  0.91511  0.41455  0.34175  1.0000
  C   C154      1.0  0.10224  0.56484  0.34960  1.0000
  N   N58       1.0  0.07978  0.54353  0.35168  1.0000
  C   C155      1.0  0.04970  0.55078  0.34736  1.0000
  N   N59       1.0  0.04206  0.58071  0.33982  1.0000
  C   C156      1.0  0.06335  0.60319  0.33608  1.0000
  N   N60       1.0  0.09319  0.59449  0.34156  1.0000
  C   C157      1.0  0.35282  0.07480  0.38164  1.0000
  C   C158      1.0  0.32153  0.06807  0.38302  1.0000
  H   H85       1.0  0.36014  0.09339  0.41758  1.0000
  H   H86       1.0  0.30741  0.08207  0.41930  1.0000
  C   C159      1.0  0.65577  0.93416  0.37192  1.0000
  C   C160      1.0  0.68713  0.94056  0.37181  1.0000
  H   H87       1.0  0.64881  0.91461  0.40374  1.0000
  H   H88       1.0  0.70144  0.92540  0.40304  1.0000
  C   C161      1.0  0.93434  0.35319  0.38180  1.0000
  C   C162      1.0  0.94102  0.32189  0.38308  1.0000
  H   H89       1.0  0.91573  0.36052  0.41761  1.0000
  H   H90       1.0  0.92699  0.30778  0.41927  1.0000
  C   C163      1.0  0.07505  0.65614  0.37146  1.0000
  C   C164      1.0  0.06862  0.68749  0.37136  1.0000
  H   H91       1.0  0.09464  0.64921  0.40315  1.0000
  H   H92       1.0  0.08378  0.70182  0.40250  1.0000
  C   C165      1.0  0.19815  0.54353  0.34903  1.0000
  C   C166      1.0  0.17722  0.52302  0.38875  1.0000
  C   C167      1.0  0.14540  0.52904  0.39202  1.0000
  C   C168      1.0  0.13384  0.55656  0.35249  1.0000
  H   H93       1.0  0.18546  0.50339  0.41739  1.0000
  C   C169      1.0  0.12572  0.50641  0.43965  1.0000
  H   H94       1.0  0.13878  0.48873  0.47445  1.0000
  H   H95       1.0  0.11093  0.49488  0.39138  1.0000
  H   H96       1.0  0.11180  0.51797  0.49016  1.0000
  C   C170      1.0  0.81081  0.46631  0.34364  1.0000
  C   C171      1.0  0.83170  0.48684  0.38356  1.0000
  C   C172      1.0  0.86350  0.48072  0.38775  1.0000
  C   C173      1.0  0.87505  0.45306  0.34904  1.0000
  H   H97       1.0  0.82344  0.50650  0.41194  1.0000
  C   C174      1.0  0.88316  0.50326  0.43583  1.0000
  H   H98       1.0  0.87010  0.52131  0.46895  1.0000
  H   H99       1.0  0.89858  0.51434  0.38830  1.0000
  H   H100      1.0  0.89648  0.49171  0.48776  1.0000
  C   C175      1.0  0.54323  0.81107  0.34846  1.0000
  C   C176      1.0  0.52273  0.83196  0.38846  1.0000
  C   C177      1.0  0.52875  0.86379  0.39192  1.0000
  C   C178      1.0  0.55624  0.87538  0.35231  1.0000
  H   H101      1.0  0.50312  0.82370  0.41711  1.0000
  C   C179      1.0  0.50614  0.88343  0.43975  1.0000
  H   H102      1.0  0.48850  0.87034  0.47459  1.0000
  H   H103      1.0  0.49458  0.89824  0.39159  1.0000
  H   H104      1.0  0.51772  0.89734  0.49025  1.0000
  C   C180      1.0  0.46600  0.19842  0.34470  1.0000
  C   C181      1.0  0.48656  0.17746  0.38418  1.0000
  C   C182      1.0  0.48042  0.14566  0.38811  1.0000
  C   C183      1.0  0.45272  0.13417  0.34953  1.0000
  H   H105      1.0  0.50624  0.18568  0.41253  1.0000
  C   C184      1.0  0.50302  0.12594  0.43579  1.0000
  H   H106      1.0  0.52111  0.13896  0.46885  1.0000
  H   H107      1.0  0.51403  0.11057  0.38801  1.0000
  H   H108      1.0  0.49152  0.11257  0.48771  1.0000
  C   C185      1.0  0.20973  0.08109  0.37031  1.0000
  C   C186      1.0  0.22057  0.10322  0.43206  1.0000
  C   C187      1.0  0.21014  0.13386  0.43245  1.0000
  C   C188      1.0  0.18754  0.14315  0.36889  1.0000
  H   H109      1.0  0.23783  0.09717  0.47513  1.0000
  C   C189      1.0  0.22372  0.15521  0.49937  1.0000
  H   H110      1.0  0.23737  0.14355  0.55039  1.0000
  H   H111      1.0  0.20563  0.16758  0.53441  1.0000
  H   H112      1.0  0.23869  0.17137  0.46511  1.0000
  C   C190      1.0  0.79883  0.92852  0.36493  1.0000
  C   C191      1.0  0.78797  0.90667  0.42747  1.0000
  C   C192      1.0  0.79842  0.87605  0.42900  1.0000
  C   C193      1.0  0.82106  0.86647  0.36591  1.0000
  H   H113      1.0  0.77063  0.91288  0.47007  1.0000
  C   C194      1.0  0.78460  0.85499  0.49618  1.0000
  H   H114      1.0  0.77122  0.86690  0.54733  1.0000
  H   H115      1.0  0.80251  0.84232  0.53109  1.0000
  H   H116      1.0  0.76931  0.83914  0.46194  1.0000
  C   C195      1.0  0.92795  0.21006  0.36973  1.0000
  C   C196      1.0  0.90580  0.22084  0.43150  1.0000
  C   C197      1.0  0.87515  0.21043  0.43152  1.0000
  C   C198      1.0  0.86591  0.18790  0.36766  1.0000
  H   H117      1.0  0.91179  0.23811  0.47462  1.0000
  C   C199      1.0  0.85374  0.22395  0.49838  1.0000
  H   H118      1.0  0.86535  0.23754  0.54962  1.0000
  H   H119      1.0  0.84133  0.20583  0.53315  1.0000
  H   H120      1.0  0.83761  0.23896  0.46412  1.0000
  C   C200      1.0  0.08053  0.79916  0.36535  1.0000
  C   C201      1.0  0.10236  0.78824  0.42785  1.0000
  C   C202      1.0  0.13297  0.79872  0.42966  1.0000
  C   C203      1.0  0.14258  0.82143  0.36686  1.0000
  H   H121      1.0  0.09613  0.77087  0.47033  1.0000
  C   C204      1.0  0.15399  0.78487  0.49690  1.0000
  H   H122      1.0  0.14207  0.77139  0.54778  1.0000
  H   H123      1.0  0.16657  0.80277  0.53213  1.0000
  H   H124      1.0  0.16993  0.76967  0.46266  1.0000
  C   C205      1.0  0.33438  0.62095  0.37724  1.0000
  C   C206      1.0  0.32287  0.59078  0.37567  1.0000
  H   H125      1.0  0.35086  0.62615  0.42368  1.0000
  H   H126      1.0  0.33081  0.57536  0.42182  1.0000
  C   C207      1.0  0.67450  0.38870  0.37240  1.0000
  C   C208      1.0  0.68604  0.41885  0.37061  1.0000
  H   H127      1.0  0.65801  0.38356  0.41884  1.0000
  H   H128      1.0  0.67811  0.43431  0.41666  1.0000
  C   C209      1.0  0.62052  0.67476  0.37520  1.0000
  C   C210      1.0  0.59035  0.68626  0.37372  1.0000
  H   H129      1.0  0.62574  0.65826  0.42157  1.0000
  H   H130      1.0  0.57497  0.67838  0.42009  1.0000
  C   C211      1.0  0.38829  0.33468  0.37474  1.0000
  C   C212      1.0  0.41846  0.32316  0.37287  1.0000
  H   H131      1.0  0.38315  0.35114  0.42126  1.0000
  H   H132      1.0  0.43393  0.33108  0.41890  1.0000
  C   C213      1.0  0.19568  0.92547  0.36365  1.0000
  C   C214      1.0  0.20129  0.95723  0.36154  1.0000
  H   H133      1.0  0.17673  0.91817  0.39778  1.0000
  H   H134      1.0  0.18646  0.97150  0.39428  1.0000
  C   C215      1.0  0.81276  0.08404  0.36105  1.0000
  C   C216      1.0  0.80721  0.05228  0.35822  1.0000
  H   H135      1.0  0.83160  0.09129  0.39581  1.0000
  H   H136      1.0  0.82189  0.03796  0.39132  1.0000
  C   C217      1.0  0.08361  0.19619  0.36419  1.0000
  C   C218      1.0  0.05183  0.20171  0.36192  1.0000
  H   H137      1.0  0.09094  0.17732  0.39863  1.0000
  H   H138      1.0  0.03760  0.18699  0.39521  1.0000
  C   C219      1.0  0.92503  0.81325  0.36079  1.0000
  C   C220      1.0  0.95679  0.80765  0.35792  1.0000
  H   H139      1.0  0.91782  0.83219  0.39516  1.0000
  H   H140      1.0  0.97113  0.82241  0.39060  1.0000
  C   C221      1.0  0.28031  0.47062  0.36324  1.0000
  C   C222      1.0  0.26061  0.44943  0.40620  1.0000
  C   C223      1.0  0.26560  0.41738  0.40539  1.0000
  C   C224      1.0  0.29158  0.40529  0.35907  1.0000
  H   H141      1.0  0.24163  0.45761  0.43848  1.0000
  C   C225      1.0  0.24336  0.39782  0.45508  1.0000
  H   H142      1.0  0.22716  0.41099  0.49533  1.0000
  H   H143      1.0  0.25551  0.38264  0.50104  1.0000
  H   H144      1.0  0.23005  0.38425  0.40764  1.0000
  C   C226      1.0  0.72842  0.53883  0.35917  1.0000
  C   C227      1.0  0.74802  0.55993  0.40287  1.0000
  C   C228      1.0  0.74301  0.59197  0.40242  1.0000
  C   C229      1.0  0.71716  0.60410  0.35567  1.0000
  H   H145      1.0  0.76693  0.55170  0.43542  1.0000
  C   C230      1.0  0.76513  0.61147  0.45282  1.0000
  H   H146      1.0  0.78122  0.59824  0.49330  1.0000
  H   H147      1.0  0.75285  0.62659  0.49868  1.0000
  H   H148      1.0  0.77856  0.62510  0.40584  1.0000
  C   C231      1.0  0.47032  0.72894  0.36212  1.0000
  C   C232      1.0  0.44916  0.74861  0.40533  1.0000
  C   C233      1.0  0.41712  0.74361  0.40467  1.0000
  C   C234      1.0  0.40502  0.71767  0.35824  1.0000
  H   H149      1.0  0.45736  0.76757  0.43771  1.0000
  C   C235      1.0  0.39758  0.76581  0.45462  1.0000
  H   H150      1.0  0.41077  0.78198  0.49491  1.0000
  H   H151      1.0  0.38243  0.75362  0.50058  1.0000
  H   H152      1.0  0.38398  0.77915  0.40734  1.0000
  C   C236      1.0  0.53856  0.28080  0.36052  1.0000
  C   C237      1.0  0.55971  0.26116  0.40393  1.0000
  C   C238      1.0  0.59175  0.26617  0.40329  1.0000
  C   C239      1.0  0.60386  0.29207  0.35670  1.0000
  H   H153      1.0  0.55151  0.24222  0.43635  1.0000
  C   C240      1.0  0.61128  0.24399  0.45334  1.0000
  H   H154      1.0  0.59809  0.22787  0.49377  1.0000
  H   H155      1.0  0.62646  0.25621  0.49918  1.0000
  H   H156      1.0  0.62486  0.23060  0.40612  1.0000
  C   C241      1.0  0.25685  0.29904  0.34625  1.0000
  C   C242      1.0  0.24980  0.28394  0.42760  1.0000
  C   C243      1.0  0.22704  0.26078  0.43253  1.0000
  C   C244      1.0  0.21096  0.25196  0.35319  1.0000
  H   H157      1.0  0.26157  0.28996  0.48444  1.0000
  C   C245      1.0  0.21976  0.24697  0.52135  1.0000
  H   H158      1.0  0.23257  0.25738  0.57643  1.0000
  H   H159      1.0  0.22523  0.22273  0.52046  1.0000
  H   H160      1.0  0.19547  0.24976  0.53590  1.0000
  C   C246      1.0  0.75187  0.71031  0.34527  1.0000
  C   C247      1.0  0.75736  0.72677  0.42535  1.0000
  C   C248      1.0  0.78017  0.74985  0.43089  1.0000
  C   C249      1.0  0.79768  0.75748  0.35307  1.0000
  H   H161      1.0  0.74453  0.72166  0.48098  1.0000
  C   C250      1.0  0.78615  0.76458  0.51925  1.0000
  H   H162      1.0  0.77275  0.75456  0.57375  1.0000
  H   H163      1.0  0.78045  0.78869  0.51573  1.0000
  H   H164      1.0  0.81027  0.76220  0.53680  1.0000
  C   C251      1.0  0.71006  0.25727  0.34402  1.0000
  C   C252      1.0  0.72499  0.25007  0.42553  1.0000
  C   C253      1.0  0.74816  0.22734  0.43048  1.0000
  C   C254      1.0  0.75716  0.21143  0.35100  1.0000
  H   H165      1.0  0.71884  0.26173  0.48246  1.0000
  C   C255      1.0  0.76184  0.21991  0.51939  1.0000
  H   H166      1.0  0.75132  0.23262  0.57451  1.0000
  H   H167      1.0  0.78607  0.22539  0.51892  1.0000
  H   H168      1.0  0.75903  0.19559  0.53354  1.0000
  C   C256      1.0  0.29877  0.75233  0.34723  1.0000
  C   C257      1.0  0.28230  0.75787  0.42726  1.0000
  C   C258      1.0  0.25921  0.78068  0.43266  1.0000
  C   C259      1.0  0.25160  0.79815  0.35477  1.0000
  H   H169      1.0  0.28740  0.74507  0.48295  1.0000
  C   C260      1.0  0.24444  0.78670  0.52095  1.0000
  H   H170      1.0  0.25443  0.77329  0.57551  1.0000
  H   H171      1.0  0.22033  0.78102  0.51733  1.0000
  H   H172      1.0  0.24685  0.81081  0.53847  1.0000
  C   C261      1.0  0.52734  0.98206  0.35088  1.0000
  C   C262      1.0  0.49978  0.97662  0.39769  1.0000
  C   C263      1.0  0.47603  0.99852  0.40105  1.0000
  C   C264      1.0  0.47996  0.02675  0.35433  1.0000
  H   H173      1.0  0.49716  0.95644  0.43165  1.0000
  C   C265      1.0  0.44861  0.99148  0.45689  1.0000
  H   H174      1.0  0.45130  0.97075  0.49702  1.0000
  H   H175      1.0  0.42874  0.98818  0.41383  1.0000
  H   H176      1.0  0.44417  0.01025  0.50345  1.0000
  C   C266      1.0  0.02715  0.52769  0.35089  1.0000
  C   C267      1.0  0.03256  0.50017  0.39791  1.0000
  C   C268      1.0  0.01065  0.47643  0.40131  1.0000
  C   C269      1.0  0.98245  0.48032  0.35442  1.0000
  H   H177      1.0  0.05273  0.49755  0.43189  1.0000
  C   C270      1.0  0.01766  0.44902  0.45726  1.0000
  H   H178      1.0  0.03837  0.45173  0.49748  1.0000
  H   H179      1.0  0.02100  0.42914  0.41428  1.0000
  H   H180      1.0  0.99887  0.44459  0.50375  1.0000
