data_image0
_chemical_formula_structural       C2H2C2H2C2H2C2H2C4HNO2C4HNO2C4HNO2C4HNO2C4HNO2C4HNO2C4HNO2C4HNO2C2H2C2H2C2H2C2H2C4HNO2C4HNO2C4HNO2C4HNO2C2H2C2H2C2H2C2H2C4HNO2C4HNO2C2H2C2H2C2H2C2H2C4HNO2C4HNO2C4HNO2C4HNO2C4HNO2C4HNO2C4HNO2C4HNO2C2H2C2H2C2H2C2H2CNCNCNCNCNCNCNCNCNCNCNCNCNCNCNCNCNCNCNCNCNCNCNCNCNCNCNCNCNCNCNCNCNCNCNCNCNCNCNCNCNCNCNCNCNCNCNCNCNCNCNCNCNCNCNCNCNCNCNCNCNCNCNCNCNCNCNCNCNCNCNCNCNCNCNCNCNCNCNCNCNCNCNCNC4HNO2C4HNO2C4HNO2C4HNO2C2H2C2H2C2H2C2H2C2H2C2H2C2H2C2H2C4HNO2C4HNO2C4HNO2C4HNO2C2H2C2H2C2H2C2H2C4HNO2C4HNO2C4HNO2C4HNO2C2H2C2H2C4HNO2C4HNO2C4HNO2C4HNO2C2H2C2H2C2H2C2H2C2H2C2H2C2H2C2H2C4HNO2C4HNO2C4HNO2C4HNO2
_chemical_formula_sum              "C336 H126 N126 O84"
_cell_length_a       51.6264
_cell_length_b       51.6264
_cell_length_c       14.8443
_cell_angle_alpha    90
_cell_angle_beta     90
_cell_angle_gamma    90

_space_group_name_H-M_alt    "P 1"
_space_group_IT_number       1

loop_
  _space_group_symop_operation_xyz
  'x, y, z'

loop_
  _atom_site_type_symbol
  _atom_site_label
  _atom_site_symmetry_multiplicity
  _atom_site_fract_x
  _atom_site_fract_y
  _atom_site_fract_z
  _atom_site_occupancy
  C   C1        1.0  0.11420  0.14818  0.32746  1.0000
  C   C2        1.0  0.13324  0.16745  0.32927  1.0000
  H   H1        1.0  0.09742  0.15215  0.29340  1.0000
  H   H2        1.0  0.12946  0.18463  0.29746  1.0000
  C   C3        1.0  0.89603  0.86196  0.32597  1.0000
  C   C4        1.0  0.87686  0.84281  0.32734  1.0000
  H   H3        1.0  0.91273  0.85802  0.29142  1.0000
  H   H4        1.0  0.88046  0.82573  0.29463  1.0000
  C   C5        1.0  0.86214  0.11390  0.32836  1.0000
  C   C6        1.0  0.84295  0.13301  0.32972  1.0000
  H   H5        1.0  0.85808  0.09703  0.29496  1.0000
  H   H6        1.0  0.82572  0.12919  0.29830  1.0000
  C   C7        1.0  0.14841  0.89577  0.32574  1.0000
  C   C8        1.0  0.16763  0.87669  0.32761  1.0000
  H   H7        1.0  0.15229  0.91244  0.29097  1.0000
  H   H8        1.0  0.18472  0.88031  0.29497  1.0000
  C   C9        1.0  0.09724  0.03426  0.30366  1.0000
  C   C10       1.0  0.08608  0.02054  0.23121  1.0000
  C   C11       1.0  0.08587  0.99326  0.22962  1.0000
  C   C12       1.0  0.09762  0.97952  0.30176  1.0000
  H   H9        1.0  0.07635  0.03035  0.18171  1.0000
  N   N1        1.0  0.07313  0.97984  0.15895  1.0000
  O   O1        1.0  0.04946  0.98549  0.15518  1.0000
  O   O2        1.0  0.08329  0.98467  0.08390  1.0000
  C   C13       1.0  0.91346  0.97561  0.30485  1.0000
  C   C14       1.0  0.92451  0.98927  0.23207  1.0000
  C   C15       1.0  0.92472  0.01656  0.23027  1.0000
  C   C16       1.0  0.91305  0.03034  0.30246  1.0000
  H   H10       1.0  0.93425  0.97944  0.18266  1.0000
  N   N2        1.0  0.93737  0.02993  0.15929  1.0000
  O   O3        1.0  0.96105  0.02429  0.15522  1.0000
  O   O4        1.0  0.92713  0.02504  0.08443  1.0000
  C   C17       1.0  0.97602  0.09678  0.30376  1.0000
  C   C18       1.0  0.98968  0.08562  0.23123  1.0000
  C   C19       1.0  0.01697  0.08542  0.22940  1.0000
  C   C20       1.0  0.03075  0.09718  0.30141  1.0000
  H   H11       1.0  0.97984  0.07587  0.18183  1.0000
  N   N3        1.0  0.03034  0.07269  0.15862  1.0000
  O   O5        1.0  0.02471  0.04901  0.15490  1.0000
  O   O6        1.0  0.02545  0.08284  0.08361  1.0000
  C   C21       1.0  0.03465  0.91305  0.30454  1.0000
  C   C22       1.0  0.02095  0.92417  0.23196  1.0000
  C   C23       1.0  0.99366  0.92439  0.23035  1.0000
  C   C24       1.0  0.97991  0.91265  0.30248  1.0000
  H   H12       1.0  0.03076  0.93395  0.18257  1.0000
  N   N4        1.0  0.98026  0.93712  0.15962  1.0000
  O   O7        1.0  0.98590  0.96080  0.15583  1.0000
  O   O8        1.0  0.98510  0.92696  0.08459  1.0000
  C   C25       1.0  0.16541  0.30513  0.33001  1.0000
  C   C26       1.0  0.19017  0.29721  0.29933  1.0000
  C   C27       1.0  0.19875  0.27124  0.30486  1.0000
  C   C28       1.0  0.18205  0.25211  0.34195  1.0000
  H   H13       1.0  0.20266  0.31064  0.27307  1.0000
  N   N5        1.0  0.22368  0.26456  0.27234  1.0000
  O   O9        1.0  0.24124  0.27678  0.31275  1.0000
  O   O10       1.0  0.22574  0.26875  0.18926  1.0000
  C   C29       1.0  0.84476  0.70530  0.32765  1.0000
  C   C30       1.0  0.82006  0.71325  0.29658  1.0000
  C   C31       1.0  0.81149  0.73922  0.30245  1.0000
  C   C32       1.0  0.82812  0.75826  0.34032  1.0000
  H   H14       1.0  0.80762  0.69986  0.26983  1.0000
  N   N6        1.0  0.78664  0.74599  0.26936  1.0000
  O   O11       1.0  0.76897  0.73368  0.30887  1.0000
  O   O12       1.0  0.78480  0.74199  0.18611  1.0000
  C   C33       1.0  0.70552  0.16557  0.32761  1.0000
  C   C34       1.0  0.71349  0.19029  0.29686  1.0000
  C   C35       1.0  0.73948  0.19882  0.30261  1.0000
  C   C36       1.0  0.75853  0.18211  0.34008  1.0000
  H   H15       1.0  0.70011  0.20278  0.27035  1.0000
  N   N7        1.0  0.74625  0.22371  0.26986  1.0000
  O   O13       1.0  0.73402  0.24134  0.30990  1.0000
  O   O14       1.0  0.74215  0.22568  0.18670  1.0000
  C   C37       1.0  0.30535  0.84492  0.33018  1.0000
  C   C38       1.0  0.29746  0.82020  0.29912  1.0000
  C   C39       1.0  0.27150  0.81157  0.30476  1.0000
  C   C40       1.0  0.25238  0.82819  0.34229  1.0000
  H   H16       1.0  0.31089  0.80776  0.27262  1.0000
  N   N8        1.0  0.26482  0.78668  0.27185  1.0000
  O   O15       1.0  0.27712  0.76908  0.31171  1.0000
  O   O16       1.0  0.26892  0.78478  0.18867  1.0000
  C   C41       1.0  0.85077  0.25538  0.33599  1.0000
  C   C42       1.0  0.85925  0.28130  0.33825  1.0000
  H   H17       1.0  0.86213  0.24214  0.30323  1.0000
  H   H18       1.0  0.87618  0.28609  0.30649  1.0000
  C   C43       1.0  0.16032  0.75457  0.33871  1.0000
  C   C44       1.0  0.15192  0.72862  0.34082  1.0000
  H   H19       1.0  0.14879  0.76782  0.30673  1.0000
  H   H20       1.0  0.13490  0.72383  0.30967  1.0000
  C   C45       1.0  0.25539  0.15985  0.33655  1.0000
  C   C46       1.0  0.28129  0.15132  0.33871  1.0000
  H   H21       1.0  0.24212  0.14852  0.30380  1.0000
  H   H22       1.0  0.28604  0.13439  0.30688  1.0000
  C   C47       1.0  0.75460  0.85032  0.33816  1.0000
  C   C48       1.0  0.72863  0.85866  0.34035  1.0000
  H   H23       1.0  0.76782  0.86188  0.30618  1.0000
  H   H24       1.0  0.72380  0.87568  0.30926  1.0000
  C   C49       1.0  0.37503  0.10773  0.34083  1.0000
  C   C50       1.0  0.40087  0.10441  0.31252  1.0000
  C   C51       1.0  0.41280  0.07972  0.30552  1.0000
  C   C52       1.0  0.39907  0.05650  0.32846  1.0000
  H   H25       1.0  0.41159  0.12037  0.29565  1.0000
  N   N9        1.0  0.43864  0.07903  0.27411  1.0000
  O   O17       1.0  0.45372  0.09112  0.32582  1.0000
  O   O18       1.0  0.44061  0.08799  0.19556  1.0000
  C   C53       1.0  0.63522  0.90199  0.34315  1.0000
  C   C54       1.0  0.61002  0.90604  0.30913  1.0000
  C   C55       1.0  0.59872  0.93104  0.30242  1.0000
  C   C56       1.0  0.61246  0.95357  0.33267  1.0000
  H   H26       1.0  0.59949  0.89046  0.28719  1.0000
  N   N10       1.0  0.57372  0.93304  0.26320  1.0000
  O   O19       1.0  0.57331  0.92537  0.18284  1.0000
  O   O20       1.0  0.55684  0.92098  0.30761  1.0000
  C   C57       1.0  0.90266  0.37504  0.34061  1.0000
  C   C58       1.0  0.90599  0.40089  0.31241  1.0000
  C   C59       1.0  0.93068  0.41281  0.30544  1.0000
  C   C60       1.0  0.95389  0.39906  0.32833  1.0000
  H   H27       1.0  0.89002  0.41161  0.29558  1.0000
  N   N11       1.0  0.93138  0.43866  0.27408  1.0000
  O   O21       1.0  0.91931  0.45374  0.32582  1.0000
  O   O22       1.0  0.92242  0.44064  0.19554  1.0000
  C   C61       1.0  0.10840  0.63523  0.34340  1.0000
  C   C62       1.0  0.10436  0.61003  0.30935  1.0000
  C   C63       1.0  0.07937  0.59872  0.30263  1.0000
  C   C64       1.0  0.05683  0.61245  0.33291  1.0000
  H   H28       1.0  0.11994  0.59951  0.28741  1.0000
  N   N12       1.0  0.07739  0.57372  0.26341  1.0000
  O   O23       1.0  0.08506  0.57331  0.18305  1.0000
  O   O24       1.0  0.08945  0.55685  0.30782  1.0000
  C   C65       1.0  0.63732  0.05693  0.31737  1.0000
  C   C66       1.0  0.64755  0.08238  0.31513  1.0000
  H   H29       1.0  0.64846  0.04213  0.29285  1.0000
  H   H30       1.0  0.66583  0.08489  0.29006  1.0000
  C   C67       1.0  0.37423  0.95344  0.31813  1.0000
  C   C68       1.0  0.36379  0.92806  0.31659  1.0000
  H   H31       1.0  0.36334  0.96820  0.29206  1.0000
  H   H32       1.0  0.34563  0.92558  0.29039  1.0000
  C   C69       1.0  0.05691  0.37411  0.31804  1.0000
  C   C70       1.0  0.08228  0.36364  0.31646  1.0000
  H   H33       1.0  0.04215  0.36325  0.29183  1.0000
  H   H34       1.0  0.08474  0.34549  0.29022  1.0000
  C   C71       1.0  0.95342  0.63720  0.31742  1.0000
  C   C72       1.0  0.92797  0.64741  0.31521  1.0000
  H   H35       1.0  0.96821  0.64837  0.29301  1.0000
  H   H36       1.0  0.92544  0.66569  0.29016  1.0000
  C   C73       1.0  0.53383  0.00308  0.32726  1.0000
  C   C74       1.0  0.52111  0.02158  0.27319  1.0000
  C   C75       1.0  0.49374  0.02335  0.27013  1.0000
  C   C76       1.0  0.47853  0.00628  0.32371  1.0000
  H   H37       1.0  0.53186  0.03384  0.23389  1.0000
  N   N13       1.0  0.48181  0.04097  0.21001  1.0000
  O   O25       1.0  0.49101  0.06342  0.21810  1.0000
  O   O26       1.0  0.48527  0.03396  0.12988  1.0000
  C   C77       1.0  0.00737  0.53378  0.32731  1.0000
  C   C78       1.0  0.98886  0.52107  0.27323  1.0000
  C   C79       1.0  0.98711  0.49369  0.27009  1.0000
  C   C80       1.0  0.00417  0.47848  0.32362  1.0000
  H   H38       1.0  0.97662  0.53182  0.23391  1.0000
  N   N14       1.0  0.96949  0.48178  0.20989  1.0000
  O   O27       1.0  0.94705  0.49098  0.21793  1.0000
  O   O28       1.0  0.97652  0.48526  0.12979  1.0000
  C   C81       1.0  0.23378  0.41650  0.30454  1.0000
  C   C82       1.0  0.20778  0.40791  0.30621  1.0000
  H   H39       1.0  0.23886  0.42987  0.25688  1.0000
  H   H40       1.0  0.19510  0.41487  0.25906  1.0000
  C   C83       1.0  0.77665  0.59371  0.30211  1.0000
  C   C84       1.0  0.80262  0.60239  0.30346  1.0000
  H   H41       1.0  0.77156  0.58031  0.25457  1.0000
  H   H42       1.0  0.81527  0.59551  0.25607  1.0000
  C   C85       1.0  0.59396  0.23372  0.30201  1.0000
  C   C86       1.0  0.60266  0.20775  0.30329  1.0000
  H   H43       1.0  0.58064  0.23882  0.25423  1.0000
  H   H44       1.0  0.59582  0.19513  0.25577  1.0000
  C   C87       1.0  0.41675  0.77658  0.30467  1.0000
  C   C88       1.0  0.40818  0.80259  0.30643  1.0000
  H   H45       1.0  0.43019  0.77153  0.25723  1.0000
  H   H46       1.0  0.41518  0.81529  0.25943  1.0000
  C   C89       1.0  0.80627  0.38314  0.35744  1.0000
  C   C90       1.0  0.80229  0.40710  0.31352  1.0000
  C   C91       1.0  0.77718  0.41846  0.30567  1.0000
  C   C92       1.0  0.75501  0.40579  0.34283  1.0000
  H   H47       1.0  0.81770  0.41604  0.28332  1.0000
  N   N15       1.0  0.77390  0.44184  0.25713  1.0000
  O   O29       1.0  0.78063  0.43952  0.17617  1.0000
  O   O30       1.0  0.78643  0.46012  0.29211  1.0000
  C   C93       1.0  0.20471  0.62654  0.35927  1.0000
  C   C94       1.0  0.20869  0.60273  0.31436  1.0000
  C   C95       1.0  0.23380  0.59139  0.30632  1.0000
  C   C96       1.0  0.25591  0.60389  0.34451  1.0000
  H   H48       1.0  0.19332  0.59399  0.28321  1.0000
  N   N16       1.0  0.23714  0.56822  0.25663  1.0000
  O   O31       1.0  0.23051  0.57089  0.17570  1.0000
  O   O32       1.0  0.22455  0.54980  0.29046  1.0000
  C   C97       1.0  0.38326  0.20408  0.35785  1.0000
  C   C98       1.0  0.40725  0.20801  0.31403  1.0000
  C   C99       1.0  0.41867  0.23310  0.30631  1.0000
  C   C100      1.0  0.40604  0.25528  0.34354  1.0000
  H   H49       1.0  0.41615  0.19259  0.28379  1.0000
  N   N17       1.0  0.44207  0.23635  0.25788  1.0000
  O   O33       1.0  0.43976  0.22965  0.17689  1.0000
  O   O34       1.0  0.46031  0.22376  0.29287  1.0000
  C   C101      1.0  0.62667  0.80564  0.35879  1.0000
  C   C102      1.0  0.60288  0.80161  0.31382  1.0000
  C   C103      1.0  0.59159  0.77648  0.30569  1.0000
  C   C104      1.0  0.60415  0.75438  0.34381  1.0000
  H   H50       1.0  0.59410  0.81697  0.28271  1.0000
  N   N18       1.0  0.56844  0.77311  0.25594  1.0000
  O   O35       1.0  0.57111  0.77975  0.17503  1.0000
  O   O36       1.0  0.54999  0.78564  0.28977  1.0000
  C   C105      1.0  0.31461  0.53176  0.31508  1.0000
  C   C106      1.0  0.29537  0.51782  0.26757  1.0000
  C   C107      1.0  0.29406  0.49043  0.26789  1.0000
  C   C108      1.0  0.31272  0.47574  0.31692  1.0000
  H   H51       1.0  0.28132  0.52772  0.23319  1.0000
  N   N19       1.0  0.27393  0.47793  0.21944  1.0000
  O   O37       1.0  0.25190  0.48427  0.24820  1.0000
  O   O38       1.0  0.27505  0.48272  0.13654  1.0000
  C   C109      1.0  0.69632  0.47806  0.31423  1.0000
  C   C110      1.0  0.71559  0.49205  0.26698  1.0000
  C   C111      1.0  0.71680  0.51944  0.26717  1.0000
  C   C112      1.0  0.69802  0.53409  0.31584  1.0000
  H   H52       1.0  0.72972  0.48217  0.23287  1.0000
  N   N20       1.0  0.73692  0.53198  0.21884  1.0000
  O   O39       1.0  0.75895  0.52573  0.24789  1.0000
  O   O40       1.0  0.73589  0.52714  0.13596  1.0000
  C   C113      1.0  0.47834  0.31399  0.31487  1.0000
  C   C114      1.0  0.49232  0.29477  0.26740  1.0000
  C   C115      1.0  0.51971  0.29360  0.26735  1.0000
  C   C116      1.0  0.53437  0.31237  0.31603  1.0000
  H   H53       1.0  0.48244  0.28065  0.23325  1.0000
  N   N21       1.0  0.53225  0.27352  0.21880  1.0000
  O   O41       1.0  0.52605  0.25147  0.24774  1.0000
  O   O42       1.0  0.52736  0.27458  0.13596  1.0000
  C   C117      1.0  0.53203  0.69571  0.31457  1.0000
  C   C118      1.0  0.51809  0.71499  0.26724  1.0000
  C   C119      1.0  0.49071  0.71634  0.26781  1.0000
  C   C120      1.0  0.47603  0.69767  0.31683  1.0000
  H   H54       1.0  0.52799  0.72906  0.23291  1.0000
  N   N22       1.0  0.47820  0.73650  0.21956  1.0000
  O   O43       1.0  0.48459  0.75851  0.24840  1.0000
  O   O44       1.0  0.48294  0.73542  0.13662  1.0000
  C   C121      1.0  0.37170  0.39210  0.32532  1.0000
  C   C122      1.0  0.39201  0.37358  0.32278  1.0000
  H   H55       1.0  0.37566  0.41036  0.30245  1.0000
  H   H56       1.0  0.40967  0.37916  0.29829  1.0000
  C   C123      1.0  0.63876  0.61764  0.32445  1.0000
  C   C124      1.0  0.61842  0.63612  0.32213  1.0000
  H   H57       1.0  0.63482  0.59939  0.30145  1.0000
  H   H58       1.0  0.60077  0.63054  0.29759  1.0000
  C   C125      1.0  0.61811  0.37154  0.32420  1.0000
  C   C126      1.0  0.63666  0.39182  0.32173  1.0000
  H   H59       1.0  0.59986  0.37553  0.30123  1.0000
  H   H60       1.0  0.63112  0.40948  0.29719  1.0000
  C   C127      1.0  0.39257  0.63860  0.32553  1.0000
  C   C128      1.0  0.37412  0.61823  0.32315  1.0000
  H   H61       1.0  0.41083  0.63468  0.30263  1.0000
  H   H62       1.0  0.37974  0.60059  0.29865  1.0000
  C   C129      1.0  0.05722  0.09184  0.31438  1.0000
  N   N23       1.0  0.07470  0.11005  0.33894  1.0000
  C   C130      1.0  0.10007  0.10388  0.35219  1.0000
  N   N24       1.0  0.10770  0.07888  0.34002  1.0000
  C   C131      1.0  0.09052  0.06035  0.31607  1.0000
  N   N25       1.0  0.06548  0.06718  0.30411  1.0000
  C   C132      1.0  0.95344  0.91799  0.31547  1.0000
  N   N26       1.0  0.93590  0.89977  0.33970  1.0000
  C   C133      1.0  0.91054  0.90601  0.35291  1.0000
  N   N27       1.0  0.90295  0.93101  0.34093  1.0000
  C   C134      1.0  0.92018  0.94953  0.31732  1.0000
  N   N28       1.0  0.94521  0.94267  0.30541  1.0000
  C   C135      1.0  0.91841  0.05682  0.31523  1.0000
  N   N29       1.0  0.90023  0.07435  0.33972  1.0000
  C   C136      1.0  0.90646  0.09973  0.35267  1.0000
  N   N30       1.0  0.93145  0.10730  0.34024  1.0000
  C   C137      1.0  0.94994  0.09008  0.31639  1.0000
  N   N31       1.0  0.94308  0.06504  0.30472  1.0000
  C   C138      1.0  0.09227  0.95305  0.31487  1.0000
  N   N32       1.0  0.11050  0.93554  0.33909  1.0000
  C   C139      1.0  0.10429  0.91017  0.35238  1.0000
  N   N33       1.0  0.07928  0.90256  0.34051  1.0000
  C   C140      1.0  0.06075  0.91977  0.31685  1.0000
  N   N34       1.0  0.06759  0.94481  0.30486  1.0000
  C   C141      1.0  0.22178  0.19247  0.36718  1.0000
  N   N35       1.0  0.21489  0.21782  0.35766  1.0000
  C   C142      1.0  0.18972  0.22566  0.35177  1.0000
  N   N36       1.0  0.17136  0.20694  0.35618  1.0000
  C   C143      1.0  0.17722  0.18152  0.36619  1.0000
  N   N37       1.0  0.20252  0.17471  0.37120  1.0000
  C   C144      1.0  0.78839  0.81778  0.36745  1.0000
  N   N38       1.0  0.79530  0.79247  0.35725  1.0000
  C   C145      1.0  0.82045  0.78467  0.35060  1.0000
  N   N39       1.0  0.83880  0.80341  0.35484  1.0000
  C   C146      1.0  0.83293  0.82880  0.36535  1.0000
  N   N40       1.0  0.80764  0.83559  0.37122  1.0000
  C   C147      1.0  0.81817  0.22173  0.36620  1.0000
  N   N41       1.0  0.79283  0.21488  0.35628  1.0000
  C   C148      1.0  0.78497  0.18973  0.35021  1.0000
  N   N42       1.0  0.80366  0.17135  0.35489  1.0000
  C   C149      1.0  0.82907  0.17716  0.36526  1.0000
  N   N43       1.0  0.83591  0.20245  0.37043  1.0000
  C   C150      1.0  0.19287  0.78833  0.36844  1.0000
  N   N44       1.0  0.21819  0.79529  0.35868  1.0000
  C   C151      1.0  0.22596  0.82047  0.35225  1.0000
  N   N45       1.0  0.20719  0.83878  0.35626  1.0000
  C   C152      1.0  0.18179  0.83287  0.36638  1.0000
  N   N46       1.0  0.17504  0.80756  0.37202  1.0000
  C   C153      1.0  0.41090  0.98408  0.34214  1.0000
  N   N47       1.0  0.39821  0.00758  0.33828  1.0000
  C   C154      1.0  0.41099  0.03094  0.32884  1.0000
  N   N48       1.0  0.43731  0.02947  0.32379  1.0000
  C   C155      1.0  0.45095  0.00710  0.32554  1.0000
  N   N49       1.0  0.43707  0.98510  0.33467  1.0000
  C   C156      1.0  0.60090  0.02607  0.34224  1.0000
  N   N50       1.0  0.61377  0.00264  0.34056  1.0000
  C   C157      1.0  0.60096  0.97918  0.33496  1.0000
  N   N51       1.0  0.57467  0.98035  0.33322  1.0000
  C   C158      1.0  0.56111  0.00263  0.33177  1.0000
  N   N52       1.0  0.57474  0.02486  0.33517  1.0000
  C   C159      1.0  0.02632  0.41083  0.34191  1.0000
  N   N53       1.0  0.00282  0.39816  0.33811  1.0000
  C   C160      1.0  0.97947  0.41096  0.32876  1.0000
  N   N54       1.0  0.98096  0.43728  0.32370  1.0000
  C   C161      1.0  0.00334  0.45090  0.32543  1.0000
  N   N55       1.0  0.02533  0.43700  0.33451  1.0000
  C   C162      1.0  0.98433  0.60083  0.34237  1.0000
  N   N56       1.0  0.00776  0.61372  0.34076  1.0000
  C   C163      1.0  0.03123  0.60093  0.33517  1.0000
  N   N57       1.0  0.03008  0.57464  0.33339  1.0000
  C   C164      1.0  0.00780  0.56106  0.33189  1.0000
  N   N58       1.0  0.98557  0.57467  0.33529  1.0000
  C   C165      1.0  0.32544  0.40483  0.35143  1.0000
  N   N59       1.0  0.32950  0.43081  0.33739  1.0000
  C   C166      1.0  0.30965  0.44834  0.33042  1.0000
  N   N60       1.0  0.28515  0.43899  0.33942  1.0000
  C   C167      1.0  0.27951  0.41372  0.35364  1.0000
  N   N61       1.0  0.30010  0.39729  0.35880  1.0000
  C   C168      1.0  0.68505  0.60498  0.35038  1.0000
  N   N62       1.0  0.68106  0.57898  0.33637  1.0000
  C   C169      1.0  0.70097  0.56152  0.32920  1.0000
  N   N63       1.0  0.72544  0.57097  0.33796  1.0000
  C   C170      1.0  0.73099  0.59626  0.35210  1.0000
  N   N64       1.0  0.71036  0.61261  0.35745  1.0000
  C   C171      1.0  0.60532  0.32529  0.35019  1.0000
  N   N65       1.0  0.57931  0.32931  0.33632  1.0000
  C   C172      1.0  0.56181  0.30942  0.32929  1.0000
  N   N66       1.0  0.57124  0.28494  0.33803  1.0000
  C   C173      1.0  0.59652  0.27936  0.35203  1.0000
  N   N67       1.0  0.61290  0.29996  0.35727  1.0000
  C   C174      1.0  0.40516  0.68490  0.35156  1.0000
  N   N68       1.0  0.43114  0.68087  0.33745  1.0000
  C   C175      1.0  0.44864  0.70074  0.33040  1.0000
  N   N69       1.0  0.43926  0.72523  0.33940  1.0000
  C   C176      1.0  0.41398  0.73084  0.35370  1.0000
  N   N70       1.0  0.39758  0.71023  0.35893  1.0000
  C   C177      1.0  0.68278  0.40722  0.34141  1.0000
  N   N71       1.0  0.67868  0.43333  0.33140  1.0000
  C   C178      1.0  0.69881  0.45053  0.32346  1.0000
  N   N72       1.0  0.72333  0.44078  0.32691  1.0000
  C   C179      1.0  0.72887  0.41531  0.33672  1.0000
  N   N73       1.0  0.70802  0.39932  0.34382  1.0000
  C   C180      1.0  0.32808  0.60262  0.34281  1.0000
  N   N74       1.0  0.33225  0.57652  0.33256  1.0000
  C   C181      1.0  0.31215  0.55928  0.32447  1.0000
  N   N75       1.0  0.28761  0.56898  0.32808  1.0000
  C   C182      1.0  0.28204  0.59442  0.33814  1.0000
  N   N76       1.0  0.30284  0.61045  0.34533  1.0000
  C   C183      1.0  0.40749  0.32749  0.34227  1.0000
  N   N77       1.0  0.43359  0.33161  0.33222  1.0000
  C   C184      1.0  0.45081  0.31149  0.32420  1.0000
  N   N78       1.0  0.44107  0.28696  0.32761  1.0000
  C   C185      1.0  0.41560  0.28141  0.33750  1.0000
  N   N79       1.0  0.39961  0.30225  0.34464  1.0000
  C   C186      1.0  0.60288  0.68219  0.34197  1.0000
  N   N80       1.0  0.57679  0.67804  0.33181  1.0000
  C   C187      1.0  0.55956  0.69815  0.32381  1.0000
  N   N81       1.0  0.56927  0.72268  0.32748  1.0000
  C   C188      1.0  0.59471  0.72824  0.33744  1.0000
  N   N82       1.0  0.61074  0.70743  0.34455  1.0000
  C   C189      1.0  0.17619  0.37443  0.35481  1.0000
  N   N83       1.0  0.15148  0.38392  0.35330  1.0000
  C   C190      1.0  0.13020  0.36804  0.34416  1.0000
  N   N84       1.0  0.13465  0.34202  0.33584  1.0000
  C   C191      1.0  0.15904  0.33190  0.33473  1.0000
  N   N85       1.0  0.17893  0.34860  0.34534  1.0000
  C   C192      1.0  0.83410  0.63597  0.35189  1.0000
  N   N86       1.0  0.85882  0.62655  0.35023  1.0000
  C   C193      1.0  0.88004  0.64250  0.34111  1.0000
  N   N87       1.0  0.87551  0.66850  0.33306  1.0000
  C   C194      1.0  0.85111  0.67855  0.33209  1.0000
  N   N88       1.0  0.83125  0.66180  0.34261  1.0000
  C   C195      1.0  0.63619  0.17625  0.35178  1.0000
  N   N89       1.0  0.62676  0.15154  0.35012  1.0000
  C   C196      1.0  0.64269  0.13031  0.34102  1.0000
  N   N90       1.0  0.66870  0.13483  0.33298  1.0000
  C   C197      1.0  0.67876  0.15922  0.33201  1.0000
  N   N91       1.0  0.66202  0.17909  0.34255  1.0000
  C   C198      1.0  0.37465  0.83416  0.35504  1.0000
  N   N92       1.0  0.38413  0.85887  0.35347  1.0000
  C   C199      1.0  0.36824  0.88014  0.34432  1.0000
  N   N93       1.0  0.34222  0.87568  0.33603  1.0000
  C   C200      1.0  0.33211  0.85130  0.33501  1.0000
  N   N94       1.0  0.34882  0.83141  0.34556  1.0000
  C   C201      1.0  0.83066  0.36966  0.35773  1.0000
  N   N95       1.0  0.85508  0.37951  0.34745  1.0000
  C   C202      1.0  0.87701  0.36425  0.34877  1.0000
  N   N96       1.0  0.87362  0.33813  0.35938  1.0000
  C   C203      1.0  0.84969  0.32743  0.36972  1.0000
  N   N97       1.0  0.82931  0.34374  0.36757  1.0000
  C   C204      1.0  0.18040  0.64011  0.35942  1.0000
  N   N98       1.0  0.15595  0.63030  0.34930  1.0000
  C   C205      1.0  0.13415  0.64573  0.35092  1.0000
  N   N99       1.0  0.13769  0.67183  0.36148  1.0000
  C   C206      1.0  0.16164  0.68246  0.37141  1.0000
  N   N100      1.0  0.18193  0.66603  0.36918  1.0000
  C   C207      1.0  0.36972  0.17973  0.35806  1.0000
  N   N101      1.0  0.37954  0.15529  0.34776  1.0000
  C   C208      1.0  0.36424  0.13339  0.34906  1.0000
  N   N102      1.0  0.33812  0.13681  0.35973  1.0000
  C   C209      1.0  0.32746  0.16076  0.37014  1.0000
  N   N103      1.0  0.34381  0.18111  0.36798  1.0000
  C   C210      1.0  0.64018  0.82998  0.35894  1.0000
  N   N104      1.0  0.63033  0.85442  0.34892  1.0000
  C   C211      1.0  0.64572  0.87624  0.35058  1.0000
  N   N105      1.0  0.67183  0.87275  0.36107  1.0000
  C   C212      1.0  0.68249  0.84881  0.37087  1.0000
  N   N106      1.0  0.66611  0.82850  0.36864  1.0000
  C   C213      1.0  0.15756  0.16261  0.36919  1.0000
  C   C214      1.0  0.16190  0.13831  0.41023  1.0000
  C   C215      1.0  0.14280  0.11871  0.40964  1.0000
  C   C216      1.0  0.11876  0.12351  0.36597  1.0000
  H   H63       1.0  0.17920  0.13460  0.44140  1.0000
  N   N107      1.0  0.14748  0.09477  0.45346  1.0000
  O   O45       1.0  0.15122  0.09775  0.53646  1.0000
  O   O46       1.0  0.16659  0.08309  0.42016  1.0000
  C   C217      1.0  0.85267  0.84763  0.36825  1.0000
  C   C218      1.0  0.84858  0.87179  0.41063  1.0000
  C   C219      1.0  0.86784  0.89124  0.41061  1.0000
  C   C220      1.0  0.89175  0.88646  0.36608  1.0000
  H   H64       1.0  0.83139  0.87547  0.44257  1.0000
  N   N108      1.0  0.86347  0.91501  0.45597  1.0000
  O   O47       1.0  0.85993  0.91165  0.53890  1.0000
  O   O48       1.0  0.84437  0.92699  0.42400  1.0000
  C   C221      1.0  0.84792  0.15743  0.36866  1.0000
  C   C222      1.0  0.87228  0.16181  0.40923  1.0000
  C   C223      1.0  0.89181  0.14264  0.40904  1.0000
  C   C224      1.0  0.88688  0.11848  0.36629  1.0000
  H   H65       1.0  0.87610  0.17918  0.43970  1.0000
  N   N109      1.0  0.91583  0.14740  0.45225  1.0000
  O   O49       1.0  0.91299  0.15143  0.53515  1.0000
  O   O50       1.0  0.92752  0.16635  0.41795  1.0000
  C   C225      1.0  0.16289  0.85254  0.36891  1.0000
  C   C226      1.0  0.13872  0.84840  0.41116  1.0000
  C   C227      1.0  0.11918  0.86758  0.41068  1.0000
  C   C228      1.0  0.12389  0.89144  0.36574  1.0000
  H   H66       1.0  0.13510  0.83125  0.44337  1.0000
  N   N110      1.0  0.09541  0.86319  0.45599  1.0000
  O   O51       1.0  0.09876  0.85980  0.53900  1.0000
  O   O52       1.0  0.08352  0.84399  0.42434  1.0000
  C   C229      1.0  0.11114  0.99327  0.36949  1.0000
  C   C230      1.0  0.11083  0.02051  0.37075  1.0000
  H   H67       1.0  0.11879  0.98373  0.42380  1.0000
  H   H68       1.0  0.11826  0.02996  0.42560  1.0000
  C   C231      1.0  0.89968  0.01664  0.37061  1.0000
  C   C232      1.0  0.89994  0.98940  0.37201  1.0000
  H   H69       1.0  0.89197  0.02622  0.42473  1.0000
  H   H70       1.0  0.89254  0.97997  0.42696  1.0000
  C   C233      1.0  0.01705  0.11070  0.36925  1.0000
  C   C234      1.0  0.98981  0.11039  0.37071  1.0000
  H   H71       1.0  0.02661  0.11836  0.42347  1.0000
  H   H72       1.0  0.98040  0.11783  0.42563  1.0000
  C   C235      1.0  0.99365  0.89922  0.37042  1.0000
  C   C236      1.0  0.02089  0.89948  0.37167  1.0000
  H   H73       1.0  0.98410  0.89147  0.42452  1.0000
  H   H74       1.0  0.03035  0.89204  0.42649  1.0000
  C   C237      1.0  0.15683  0.25993  0.36918  1.0000
  C   C238      1.0  0.14862  0.28587  0.36335  1.0000
  H   H75       1.0  0.14426  0.24690  0.39716  1.0000
  H   H76       1.0  0.13074  0.29072  0.38784  1.0000
  C   C239      1.0  0.85328  0.75041  0.36800  1.0000
  C   C240      1.0  0.86150  0.72449  0.36176  1.0000
  H   H77       1.0  0.86582  0.76340  0.39645  1.0000
  H   H78       1.0  0.87934  0.71959  0.38652  1.0000
  C   C241      1.0  0.75065  0.15693  0.36746  1.0000
  C   C242      1.0  0.72471  0.14877  0.36136  1.0000
  H   H79       1.0  0.76363  0.14436  0.39574  1.0000
  H   H80       1.0  0.71980  0.13090  0.38594  1.0000
  C   C243      1.0  0.26017  0.85338  0.36986  1.0000
  C   C244      1.0  0.28609  0.86165  0.36392  1.0000
  H   H81       1.0  0.24713  0.86591  0.39806  1.0000
  H   H82       1.0  0.29094  0.87951  0.38864  1.0000
  C   C245      1.0  0.84376  0.30064  0.37811  1.0000
  C   C246      1.0  0.82022  0.29284  0.41917  1.0000
  C   C247      1.0  0.81125  0.26700  0.41650  1.0000
  C   C248      1.0  0.82649  0.24792  0.37264  1.0000
  H   H83       1.0  0.80879  0.30626  0.45068  1.0000
  N   N111      1.0  0.78753  0.26030  0.45862  1.0000
  O   O53       1.0  0.76883  0.27270  0.42583  1.0000
  O   O54       1.0  0.78826  0.26436  0.54204  1.0000
  C   C249      1.0  0.16758  0.70925  0.37974  1.0000
  C   C250      1.0  0.19122  0.71708  0.42007  1.0000
  C   C251      1.0  0.20007  0.74296  0.41774  1.0000
  C   C252      1.0  0.18465  0.76209  0.37482  1.0000
  H   H84       1.0  0.20279  0.70363  0.45087  1.0000
  N   N112      1.0  0.22385  0.74968  0.45939  1.0000
  O   O55       1.0  0.24253  0.73737  0.42600  1.0000
  O   O56       1.0  0.22328  0.74551  0.54276  1.0000
  C   C253      1.0  0.30068  0.16674  0.37862  1.0000
  C   C254      1.0  0.29293  0.19029  0.41972  1.0000
  C   C255      1.0  0.26710  0.19932  0.41718  1.0000
  C   C256      1.0  0.24798  0.18413  0.37335  1.0000
  H   H85       1.0  0.30638  0.20169  0.45124  1.0000
  N   N113      1.0  0.26046  0.22303  0.45940  1.0000
  O   O57       1.0  0.27289  0.24172  0.42666  1.0000
  O   O58       1.0  0.26453  0.22226  0.54281  1.0000
  C   C257      1.0  0.70930  0.84293  0.37919  1.0000
  C   C258      1.0  0.71717  0.81931  0.41946  1.0000
  C   C259      1.0  0.74307  0.81051  0.41703  1.0000
  C   C260      1.0  0.76215  0.82598  0.37412  1.0000
  H   H86       1.0  0.70375  0.80770  0.45023  1.0000
  N   N114      1.0  0.74984  0.78672  0.45857  1.0000
  O   O59       1.0  0.73757  0.76803  0.42509  1.0000
  O   O60       1.0  0.74568  0.78724  0.54194  1.0000
  C   C261      1.0  0.37286  0.05989  0.35490  1.0000
  C   C262      1.0  0.36118  0.08469  0.36067  1.0000
  H   H87       1.0  0.36197  0.04414  0.37261  1.0000
  H   H88       1.0  0.34238  0.08576  0.38198  1.0000
  C   C263      1.0  0.63802  0.94952  0.36448  1.0000
  C   C264      1.0  0.64910  0.92449  0.36927  1.0000
  H   H89       1.0  0.64873  0.96486  0.38719  1.0000
  H   H90       1.0  0.66741  0.92283  0.39488  1.0000
  C   C265      1.0  0.95050  0.37285  0.35468  1.0000
  C   C266      1.0  0.92570  0.36118  0.36041  1.0000
  H   H91       1.0  0.96625  0.36195  0.37235  1.0000
  H   H92       1.0  0.92462  0.34237  0.38165  1.0000
  C   C267      1.0  0.06087  0.63801  0.36471  1.0000
  C   C268      1.0  0.08589  0.64910  0.36950  1.0000
  H   H93       1.0  0.04552  0.64871  0.38742  1.0000
  H   H94       1.0  0.08756  0.66741  0.39513  1.0000
  C   C269      1.0  0.63292  0.10418  0.34342  1.0000
  C   C270      1.0  0.60789  0.09898  0.37714  1.0000
  C   C271      1.0  0.59743  0.07358  0.38118  1.0000
  C   C272      1.0  0.61190  0.05182  0.34855  1.0000
  H   H95       1.0  0.59685  0.11395  0.40104  1.0000
  N   N115      1.0  0.57255  0.07031  0.42038  1.0000
  O   O61       1.0  0.57195  0.07728  0.50148  1.0000
  O   O62       1.0  0.55523  0.08220  0.37744  1.0000
  C   C273      1.0  0.37811  0.90626  0.34666  1.0000
  C   C274      1.0  0.40298  0.91144  0.38185  1.0000
  C   C275      1.0  0.41364  0.93677  0.38508  1.0000
  C   C276      1.0  0.39954  0.95852  0.35051  1.0000
  H   H96       1.0  0.41377  0.89648  0.40715  1.0000
  N   N116      1.0  0.43837  0.94001  0.42519  1.0000
  O   O63       1.0  0.43847  0.93365  0.50692  1.0000
  O   O64       1.0  0.45564  0.92742  0.38446  1.0000
  C   C277      1.0  0.10410  0.37794  0.34656  1.0000
  C   C278      1.0  0.09895  0.40281  0.38177  1.0000
  C   C279      1.0  0.07363  0.41351  0.38493  1.0000
  C   C280      1.0  0.05187  0.39944  0.35034  1.0000
  H   H97       1.0  0.11392  0.41358  0.40703  1.0000
  N   N117      1.0  0.07042  0.43825  0.42499  1.0000
  O   O65       1.0  0.07678  0.43835  0.50673  1.0000
  O   O66       1.0  0.08304  0.45549  0.38423  1.0000
  C   C281      1.0  0.90618  0.63275  0.34348  1.0000
  C   C282      1.0  0.91142  0.60772  0.37721  1.0000
  C   C283      1.0  0.93683  0.59730  0.38132  1.0000
  C   C284      1.0  0.95858  0.61180  0.34870  1.0000
  H   H98       1.0  0.89646  0.59668  0.40116  1.0000
  N   N118      1.0  0.94013  0.57244  0.42059  1.0000
  O   O67       1.0  0.93316  0.57185  0.50169  1.0000
  O   O68       1.0  0.92828  0.55509  0.37769  1.0000
  C   C285      1.0  0.49151  0.98739  0.37637  1.0000
  C   C286      1.0  0.51867  0.98561  0.37762  1.0000
  H   H99       1.0  0.48133  0.97504  0.41690  1.0000
  H   H100      1.0  0.52725  0.97211  0.41839  1.0000
  C   C287      1.0  0.02305  0.49145  0.37635  1.0000
  C   C288      1.0  0.02484  0.51861  0.37763  1.0000
  H   H101      1.0  0.03542  0.48126  0.41677  1.0000
  H   H102      1.0  0.03835  0.52718  0.41838  1.0000
  C   C289      1.0  0.19986  0.38828  0.36630  1.0000
  C   C290      1.0  0.21874  0.37838  0.42634  1.0000
  C   C291      1.0  0.24500  0.38643  0.42434  1.0000
  C   C292      1.0  0.25306  0.40546  0.36107  1.0000
  H   H103      1.0  0.21360  0.36401  0.47046  1.0000
  N   N119      1.0  0.26301  0.37574  0.48596  1.0000
  O   O69       1.0  0.26326  0.35141  0.48193  1.0000
  O   O70       1.0  0.25756  0.38213  0.56536  1.0000
  C   C293      1.0  0.81050  0.62202  0.36355  1.0000
  C   C294      1.0  0.79171  0.63178  0.42413  1.0000
  C   C295      1.0  0.76547  0.62363  0.42248  1.0000
  C   C296      1.0  0.75741  0.60461  0.35915  1.0000
  H   H104      1.0  0.79684  0.64616  0.46821  1.0000
  N   N120      1.0  0.74751  0.63420  0.48451  1.0000
  O   O71       1.0  0.74717  0.65853  0.48081  1.0000
  O   O72       1.0  0.75309  0.62774  0.56374  1.0000
  C   C297      1.0  0.62226  0.19985  0.36351  1.0000
  C   C298      1.0  0.63198  0.21864  0.42419  1.0000
  C   C299      1.0  0.62382  0.24486  0.42260  1.0000
  C   C300      1.0  0.60485  0.25294  0.35912  1.0000
  H   H105      1.0  0.64631  0.21347  0.46844  1.0000
  N   N121      1.0  0.63433  0.26281  0.48481  1.0000
  O   O73       1.0  0.65866  0.26314  0.48142  1.0000
  O   O74       1.0  0.62779  0.25720  0.56395  1.0000
  C   C301      1.0  0.38852  0.81049  0.36641  1.0000
  C   C302      1.0  0.37858  0.79159  0.42633  1.0000
  C   C303      1.0  0.38662  0.76532  0.42425  1.0000
  C   C304      1.0  0.40570  0.75728  0.36111  1.0000
  H   H106      1.0  0.36417  0.79671  0.47031  1.0000
  N   N122      1.0  0.37588  0.74729  0.48567  1.0000
  O   O75       1.0  0.35155  0.74704  0.48136  1.0000
  O   O76       1.0  0.38220  0.75272  0.56518  1.0000
  C   C305      1.0  0.75930  0.38227  0.38924  1.0000
  C   C306      1.0  0.78412  0.37141  0.39668  1.0000
  H   H107      1.0  0.74428  0.37255  0.41897  1.0000
  H   H108      1.0  0.78560  0.35430  0.43105  1.0000
  C   C307      1.0  0.25160  0.62720  0.39220  1.0000
  C   C308      1.0  0.22679  0.63805  0.39976  1.0000
  H   H109      1.0  0.26659  0.63676  0.42271  1.0000
  H   H110      1.0  0.22526  0.65501  0.43498  1.0000
  C   C309      1.0  0.38250  0.25103  0.38989  1.0000
  C   C310      1.0  0.37158  0.22624  0.39719  1.0000
  H   H111      1.0  0.37281  0.26605  0.41968  1.0000
  H   H112      1.0  0.35446  0.22478  0.43152  1.0000
  C   C311      1.0  0.62744  0.75874  0.39151  1.0000
  C   C312      1.0  0.63823  0.78356  0.39917  1.0000
  H   H113      1.0  0.63703  0.74376  0.42197  1.0000
  H   H114      1.0  0.65519  0.78513  0.43440  1.0000
  C   C313      1.0  0.33312  0.48958  0.35927  1.0000
  C   C314      1.0  0.33402  0.51701  0.35856  1.0000
  H   H115      1.0  0.34660  0.47982  0.39668  1.0000
  H   H116      1.0  0.34808  0.52616  0.39524  1.0000
  C   C315      1.0  0.67765  0.52019  0.35807  1.0000
  C   C316      1.0  0.67681  0.49277  0.35736  1.0000
  H   H117      1.0  0.66405  0.52992  0.39503  1.0000
  H   H118      1.0  0.66271  0.48358  0.39375  1.0000
  C   C317      1.0  0.52048  0.33274  0.35830  1.0000
  C   C318      1.0  0.49305  0.33352  0.35787  1.0000
  H   H119      1.0  0.53021  0.34630  0.39543  1.0000
  H   H120      1.0  0.48387  0.34759  0.39441  1.0000
  C   C319      1.0  0.48987  0.67726  0.35907  1.0000
  C   C320      1.0  0.51729  0.67630  0.35808  1.0000
  H   H121      1.0  0.48012  0.66373  0.39628  1.0000
  H   H122      1.0  0.52646  0.66221  0.39457  1.0000
  C   C321      1.0  0.38806  0.34755  0.34937  1.0000
  C   C322      1.0  0.36296  0.34155  0.38161  1.0000
  C   C323      1.0  0.34246  0.35984  0.38506  1.0000
  C   C324      1.0  0.34624  0.38584  0.35492  1.0000
  H   H123      1.0  0.35912  0.32318  0.40385  1.0000
  N   N123      1.0  0.31832  0.35163  0.42004  1.0000
  O   O77       1.0  0.30857  0.33369  0.37375  1.0000
  O   O78       1.0  0.32013  0.34435  0.50066  1.0000
  C   C325      1.0  0.62232  0.66214  0.34899  1.0000
  C   C326      1.0  0.64741  0.66816  0.38128  1.0000
  C   C327      1.0  0.66795  0.64990  0.38451  1.0000
  C   C328      1.0  0.66421  0.62392  0.35408  1.0000
  H   H124      1.0  0.65123  0.68651  0.40370  1.0000
  N   N124      1.0  0.69208  0.65813  0.41953  1.0000
  O   O79       1.0  0.70178  0.67613  0.37341  1.0000
  O   O80       1.0  0.69027  0.66534  0.50023  1.0000
  C   C329      1.0  0.66268  0.38784  0.34844  1.0000
  C   C330      1.0  0.66863  0.36273  0.38070  1.0000
  C   C331      1.0  0.65031  0.34226  0.38410  1.0000
  C   C332      1.0  0.62432  0.34608  0.35383  1.0000
  H   H125      1.0  0.68698  0.35887  0.40303  1.0000
  N   N125      1.0  0.65848  0.31812  0.41920  1.0000
  O   O81       1.0  0.67642  0.30834  0.37302  1.0000
  O   O82       1.0  0.66573  0.31995  0.49985  1.0000
  C   C333      1.0  0.34809  0.62209  0.34990  1.0000
  C   C334      1.0  0.34203  0.64718  0.38217  1.0000
  C   C335      1.0  0.36024  0.66775  0.38544  1.0000
  C   C336      1.0  0.38624  0.66404  0.35514  1.0000
  H   H126      1.0  0.32366  0.65097  0.40451  1.0000
  N   N126      1.0  0.35197  0.69188  0.42036  1.0000
  O   O83       1.0  0.33398  0.70154  0.37414  1.0000
  O   O84       1.0  0.34475  0.69007  0.50103  1.0000
