data_image0
_chemical_formula_structural       C4HC6HOHOHC4HC6HOHOHCNCHNHCNCHNHC4HC6HOHOHC4HC6HOHOHCNCHNHCNCHNHC4HC6HOHOHC4HC6HOHOHC4HC6HOHOHC4HC6HOHOHCNCHNHCNCHNHC4HC6HOHOHC4HC6HOHOHCNCHNHCNCHNHC4HC6HOHOHC4HC6HOHOHCNCHNHCNCHNHC4HC6HOHOHC4HC6HOHOHC6H3C6H3C6H3C6H3C6H3C6H3C6H3C6H3C6H3C6H3C6H3C6H3C6H3C6H3C6H3C6H3CNCHNHCNCHNHC4HC6HOHOHC4HC6HOHOHCNCHNHCNCHNHC4HC6HOHOHC4HC6HOHOHCNCHNHCNCHNHCNCHNHCNCHNHC4HC6HOHOHC4HC6HOHOHCNCHNHCNCHNHC4HC6HOHOHC4HC6HOHOHCNCHNHCNCHNHC4HC6HOHOHC4HC6HOHOHCNCHNHCNCHNH
_chemical_formula_sum              "C384 H192 O48 N48"
_cell_length_a       66.293
_cell_length_b       51.9839
_cell_length_c       14.9287
_cell_angle_alpha    90
_cell_angle_beta     90
_cell_angle_gamma    90

_space_group_name_H-M_alt    "P 1"
_space_group_IT_number       1

loop_
  _space_group_symop_operation_xyz
  'x, y, z'

loop_
  _atom_site_type_symbol
  _atom_site_label
  _atom_site_symmetry_multiplicity
  _atom_site_fract_x
  _atom_site_fract_y
  _atom_site_fract_z
  _atom_site_occupancy
  C   C1        1.0  0.00180  0.93418  0.33095  1.0000
  C   C2        1.0  0.00193  0.98896  0.32736  1.0000
  C   C3        1.0  0.01528  0.97517  0.27037  1.0000
  C   C4        1.0  0.01498  0.94791  0.27339  1.0000
  H   H1        1.0  0.02430  0.93779  0.23165  1.0000
  C   C5        1.0  0.00193  0.01624  0.32726  1.0000
  C   C6        1.0  0.00178  0.07100  0.33045  1.0000
  C   C7        1.0  0.01502  0.05727  0.27329  1.0000
  C   C8        1.0  0.01531  0.03001  0.27032  1.0000
  C   C9        1.0  0.02839  0.01617  0.21283  1.0000
  C   C10       1.0  0.02837  0.98898  0.21279  1.0000
  H   H2        1.0  0.02439  0.06739  0.23173  1.0000
  O   O1        1.0  0.04167  0.02869  0.15851  1.0000
  H   H3        1.0  0.03460  0.03150  0.10143  1.0000
  O   O2        1.0  0.04163  0.97644  0.15848  1.0000
  H   H4        1.0  0.03456  0.97363  0.10141  1.0000
  C   C11       1.0  0.50181  0.43412  0.33097  1.0000
  C   C12       1.0  0.50194  0.48891  0.32741  1.0000
  C   C13       1.0  0.51531  0.47512  0.27054  1.0000
  C   C14       1.0  0.51500  0.44786  0.27355  1.0000
  H   H5        1.0  0.52434  0.43775  0.23184  1.0000
  C   C15       1.0  0.50192  0.51620  0.32728  1.0000
  C   C16       1.0  0.50177  0.57097  0.33044  1.0000
  C   C17       1.0  0.51504  0.55723  0.27342  1.0000
  C   C18       1.0  0.51533  0.52997  0.27047  1.0000
  C   C19       1.0  0.52844  0.51613  0.21310  1.0000
  C   C20       1.0  0.52842  0.48894  0.21307  1.0000
  H   H6        1.0  0.52445  0.56735  0.23200  1.0000
  O   O3        1.0  0.54175  0.52864  0.15892  1.0000
  H   H7        1.0  0.53471  0.53146  0.10177  1.0000
  O   O4        1.0  0.54171  0.47640  0.15888  1.0000
  H   H8        1.0  0.53466  0.47359  0.10174  1.0000
  C   C21       1.0  0.11008  0.23556  0.27472  1.0000
  N   N1        1.0  0.09407  0.21934  0.27626  1.0000
  C   C22       1.0  0.04219  0.17441  0.27323  1.0000
  H   H9        1.0  0.11038  0.24954  0.22658  1.0000
  N   N2        1.0  0.05946  0.18839  0.27595  1.0000
  H   H10       1.0  0.03177  0.17872  0.22505  1.0000
  C   C23       1.0  0.89270  0.77026  0.27864  1.0000
  N   N3        1.0  0.90873  0.78644  0.27990  1.0000
  C   C24       1.0  0.96068  0.83113  0.27592  1.0000
  H   H11       1.0  0.89234  0.75628  0.23050  1.0000
  N   N4        1.0  0.94337  0.81724  0.27898  1.0000
  H   H12       1.0  0.97102  0.82678  0.22745  1.0000
  C   C25       1.0  0.87757  0.23377  0.33531  1.0000
  C   C26       1.0  0.91128  0.20014  0.33606  1.0000
  C   C27       1.0  0.89581  0.19645  0.27141  1.0000
  C   C28       1.0  0.87901  0.21340  0.27259  1.0000
  H   H13       1.0  0.86810  0.21165  0.22445  1.0000
  C   C29       1.0  0.92864  0.18431  0.33601  1.0000
  C   C30       1.0  0.96422  0.15404  0.33631  1.0000
  C   C31       1.0  0.94860  0.14921  0.27377  1.0000
  C   C32       1.0  0.93077  0.16432  0.27177  1.0000
  C   C33       1.0  0.91530  0.16060  0.20758  1.0000
  C   C34       1.0  0.89800  0.17656  0.20725  1.0000
  H   H14       1.0  0.95063  0.13510  0.22680  1.0000
  O   O5        1.0  0.91664  0.14143  0.14566  1.0000
  H   H15       1.0  0.92339  0.14896  0.09316  1.0000
  O   O6        1.0  0.88338  0.17215  0.14502  1.0000
  H   H16       1.0  0.88697  0.18258  0.09243  1.0000
  C   C35       1.0  0.12606  0.77203  0.33513  1.0000
  C   C36       1.0  0.09206  0.80521  0.33507  1.0000
  C   C37       1.0  0.10755  0.80905  0.27061  1.0000
  C   C38       1.0  0.12449  0.79234  0.27219  1.0000
  H   H17       1.0  0.13541  0.79417  0.22413  1.0000
  C   C39       1.0  0.07458  0.82082  0.33470  1.0000
  C   C40       1.0  0.03883  0.85080  0.33490  1.0000
  C   C41       1.0  0.05444  0.85573  0.27234  1.0000
  C   C42       1.0  0.07235  0.84078  0.27041  1.0000
  C   C43       1.0  0.08784  0.84466  0.20637  1.0000
  C   C44       1.0  0.10525  0.82889  0.20630  1.0000
  H   H18       1.0  0.05238  0.86989  0.22557  1.0000
  O   O7        1.0  0.08641  0.86381  0.14441  1.0000
  H   H19       1.0  0.07975  0.85620  0.09184  1.0000
  O   O8        1.0  0.11989  0.83346  0.14429  1.0000
  H   H20       1.0  0.11642  0.82297  0.09168  1.0000
  C   C45       1.0  0.61007  0.73529  0.27160  1.0000
  N   N5        1.0  0.59407  0.71906  0.27392  1.0000
  C   C46       1.0  0.54227  0.67407  0.27227  1.0000
  H   H21       1.0  0.61040  0.74900  0.22255  1.0000
  N   N6        1.0  0.55952  0.68809  0.27467  1.0000
  H   H22       1.0  0.53191  0.67813  0.22354  1.0000
  C   C47       1.0  0.39272  0.27043  0.27524  1.0000
  N   N7        1.0  0.40874  0.28662  0.27732  1.0000
  C   C48       1.0  0.46061  0.33136  0.27482  1.0000
  H   H23       1.0  0.39232  0.25672  0.22619  1.0000
  N   N8        1.0  0.44332  0.31743  0.27751  1.0000
  H   H24       1.0  0.47089  0.32727  0.22580  1.0000
  C   C49       1.0  0.37767  0.73390  0.33823  1.0000
  C   C50       1.0  0.41137  0.70026  0.33725  1.0000
  C   C51       1.0  0.39592  0.69689  0.27228  1.0000
  C   C52       1.0  0.37911  0.71383  0.27436  1.0000
  H   H25       1.0  0.36816  0.71229  0.22628  1.0000
  C   C53       1.0  0.42871  0.68440  0.33663  1.0000
  C   C54       1.0  0.46425  0.65406  0.33613  1.0000
  C   C55       1.0  0.44868  0.64951  0.27305  1.0000
  C   C56       1.0  0.43088  0.66468  0.27142  1.0000
  C   C57       1.0  0.41544  0.66130  0.20677  1.0000
  C   C58       1.0  0.39816  0.67729  0.20705  1.0000
  H   H26       1.0  0.45074  0.63558  0.22549  1.0000
  O   O9        1.0  0.41683  0.64241  0.14380  1.0000
  H   H27       1.0  0.42364  0.65018  0.09188  1.0000
  O   O10       1.0  0.38358  0.67319  0.14433  1.0000
  H   H28       1.0  0.38723  0.68388  0.09242  1.0000
  C   C59       1.0  0.62596  0.27179  0.33801  1.0000
  C   C60       1.0  0.59198  0.30498  0.33630  1.0000
  C   C61       1.0  0.60748  0.30857  0.27171  1.0000
  C   C62       1.0  0.62444  0.29186  0.27418  1.0000
  H   H29       1.0  0.63541  0.29354  0.22632  1.0000
  C   C63       1.0  0.57451  0.32062  0.33539  1.0000
  C   C64       1.0  0.53881  0.35069  0.33480  1.0000
  C   C65       1.0  0.55439  0.35538  0.27188  1.0000
  C   C66       1.0  0.57229  0.34037  0.27032  1.0000
  C   C67       1.0  0.58777  0.34397  0.20602  1.0000
  C   C68       1.0  0.60517  0.32817  0.20656  1.0000
  H   H30       1.0  0.55234  0.36941  0.22464  1.0000
  O   O11       1.0  0.58633  0.36289  0.14321  1.0000
  H   H31       1.0  0.57962  0.35510  0.09107  1.0000
  O   O12       1.0  0.61979  0.33249  0.14424  1.0000
  H   H32       1.0  0.61630  0.32179  0.09216  1.0000
  C   C69       1.0  0.35725  0.18085  0.33311  1.0000
  C   C70       1.0  0.36722  0.12837  0.31751  1.0000
  C   C71       1.0  0.37409  0.14585  0.25090  1.0000
  C   C72       1.0  0.36901  0.17212  0.26027  1.0000
  H   H33       1.0  0.37369  0.18508  0.21293  1.0000
  C   C73       1.0  0.37267  0.10215  0.31322  1.0000
  C   C74       1.0  0.38590  0.05065  0.31484  1.0000
  C   C75       1.0  0.39130  0.06726  0.24367  1.0000
  C   C76       1.0  0.38498  0.09319  0.24188  1.0000
  C   C77       1.0  0.39124  0.11043  0.17392  1.0000
  C   C78       1.0  0.38583  0.13666  0.17847  1.0000
  H   H34       1.0  0.40081  0.06062  0.19477  1.0000
  O   O13       1.0  0.40346  0.10254  0.10588  1.0000
  H   H35       1.0  0.39445  0.09650  0.05795  1.0000
  O   O14       1.0  0.39293  0.15297  0.11436  1.0000
  H   H36       1.0  0.38266  0.15326  0.06680  1.0000
  C   C79       1.0  0.64595  0.82483  0.32810  1.0000
  C   C80       1.0  0.63644  0.87746  0.31231  1.0000
  C   C81       1.0  0.62936  0.86005  0.24595  1.0000
  C   C82       1.0  0.63420  0.83370  0.25542  1.0000
  H   H37       1.0  0.62939  0.82080  0.20816  1.0000
  C   C83       1.0  0.63126  0.90376  0.30788  1.0000
  C   C84       1.0  0.61856  0.95549  0.30952  1.0000
  C   C85       1.0  0.61296  0.93894  0.23846  1.0000
  C   C86       1.0  0.61900  0.91290  0.23668  1.0000
  C   C87       1.0  0.61250  0.89571  0.16898  1.0000
  C   C88       1.0  0.61765  0.86940  0.17365  1.0000
  H   H38       1.0  0.60346  0.94570  0.18972  1.0000
  O   O15       1.0  0.60030  0.90377  0.10109  1.0000
  H   H39       1.0  0.60933  0.90961  0.05294  1.0000
  O   O16       1.0  0.61034  0.85316  0.10978  1.0000
  H   H40       1.0  0.62055  0.85269  0.06202  1.0000
  C   C89       1.0  0.65379  0.16225  0.28603  1.0000
  N   N9        1.0  0.64868  0.13714  0.29490  1.0000
  C   C90       1.0  0.63212  0.06017  0.29757  1.0000
  H   H41       1.0  0.66258  0.16755  0.23285  1.0000
  N   N10       1.0  0.63780  0.08522  0.30112  1.0000
  H   H42       1.0  0.63650  0.04938  0.24371  1.0000
  C   C91       1.0  0.35057  0.84381  0.28474  1.0000
  N   N11       1.0  0.35589  0.86887  0.29322  1.0000
  C   C92       1.0  0.37277  0.94581  0.29575  1.0000
  H   H43       1.0  0.34162  0.83860  0.23202  1.0000
  N   N12       1.0  0.36705  0.92076  0.29916  1.0000
  H   H44       1.0  0.36827  0.95670  0.24237  1.0000
  C   C93       1.0  0.85698  0.68097  0.34150  1.0000
  C   C94       1.0  0.86698  0.62850  0.32393  1.0000
  C   C95       1.0  0.87354  0.64612  0.25722  1.0000
  C   C96       1.0  0.86844  0.67236  0.26752  1.0000
  H   H45       1.0  0.87290  0.68539  0.22003  1.0000
  C   C97       1.0  0.87248  0.60230  0.31857  1.0000
  C   C98       1.0  0.88578  0.55082  0.31768  1.0000
  C   C99       1.0  0.89096  0.56763  0.24681  1.0000
  C   C100      1.0  0.88457  0.59354  0.24618  1.0000
  C   C101      1.0  0.89055  0.61095  0.17824  1.0000
  C   C102      1.0  0.88506  0.63713  0.18375  1.0000
  H   H46       1.0  0.90032  0.56114  0.19713  1.0000
  O   O17       1.0  0.90255  0.60325  0.10917  1.0000
  H   H47       1.0  0.89339  0.59729  0.06170  1.0000
  O   O18       1.0  0.89188  0.65360  0.11953  1.0000
  H   H48       1.0  0.88144  0.65394  0.07273  1.0000
  C   C103      1.0  0.14617  0.32484  0.33639  1.0000
  C   C104      1.0  0.13661  0.37746  0.31880  1.0000
  C   C105      1.0  0.12983  0.35991  0.25229  1.0000
  C   C106      1.0  0.13471  0.33360  0.26261  1.0000
  H   H49       1.0  0.13012  0.32062  0.21517  1.0000
  C   C107      1.0  0.13138  0.40374  0.31340  1.0000
  C   C108      1.0  0.11857  0.45544  0.31275  1.0000
  C   C109      1.0  0.11319  0.43870  0.24192  1.0000
  C   C110      1.0  0.11932  0.41268  0.24119  1.0000
  C   C111      1.0  0.11310  0.39534  0.17346  1.0000
  C   C112      1.0  0.11834  0.36907  0.17899  1.0000
  H   H50       1.0  0.10383  0.44533  0.19244  1.0000
  O   O19       1.0  0.10111  0.40321  0.10459  1.0000
  H   H51       1.0  0.11028  0.40900  0.05690  1.0000
  O   O20       1.0  0.11130  0.35268  0.11498  1.0000
  H   H52       1.0  0.12168  0.35218  0.06796  1.0000
  C   C113      1.0  0.15366  0.66226  0.27744  1.0000
  N   N13       1.0  0.14855  0.63718  0.28719  1.0000
  C   C114      1.0  0.13192  0.56017  0.29319  1.0000
  H   H53       1.0  0.16218  0.66745  0.22327  1.0000
  N   N14       1.0  0.13763  0.58523  0.29559  1.0000
  H   H54       1.0  0.13608  0.54926  0.23930  1.0000
  C   C115      1.0  0.85067  0.34387  0.27554  1.0000
  N   N15       1.0  0.85597  0.36892  0.28495  1.0000
  C   C116      1.0  0.87287  0.44591  0.29091  1.0000
  H   H55       1.0  0.84200  0.33876  0.22178  1.0000
  N   N16       1.0  0.86713  0.42085  0.29312  1.0000
  H   H56       1.0  0.86858  0.45694  0.23751  1.0000
  C   C117      1.0  0.55514  0.00350  0.32487  1.0000
  C   C118      1.0  0.51279  0.00349  0.31982  1.0000
  C   C119      1.0  0.52350  0.99003  0.25213  1.0000
  C   C120      1.0  0.54479  0.99033  0.25587  1.0000
  H   H57       1.0  0.55289  0.98099  0.20735  1.0000
  C   C121      1.0  0.49157  0.00343  0.32029  1.0000
  C   C122      1.0  0.44936  0.00324  0.32707  1.0000
  C   C123      1.0  0.45948  0.98958  0.25875  1.0000
  C   C124      1.0  0.48075  0.98965  0.25363  1.0000
  C   C125      1.0  0.49143  0.97658  0.18525  1.0000
  C   C126      1.0  0.51273  0.97685  0.18432  1.0000
  H   H58       1.0  0.45121  0.97983  0.21175  1.0000
  O   O21       1.0  0.48150  0.96296  0.12093  1.0000
  H   H59       1.0  0.47902  0.97505  0.07145  1.0000
  O   O22       1.0  0.52257  0.96343  0.11923  1.0000
  H   H60       1.0  0.52473  0.97558  0.06965  1.0000
  C   C127      1.0  0.05512  0.50349  0.32507  1.0000
  C   C128      1.0  0.01274  0.50346  0.31994  1.0000
  C   C129      1.0  0.02348  0.48962  0.25322  1.0000
  C   C130      1.0  0.04476  0.48992  0.25700  1.0000
  H   H61       1.0  0.05286  0.48033  0.20911  1.0000
  C   C131      1.0  0.99152  0.50341  0.32031  1.0000
  C   C132      1.0  0.94927  0.50327  0.32683  1.0000
  C   C133      1.0  0.95944  0.48926  0.25947  1.0000
  C   C134      1.0  0.98071  0.48928  0.25450  1.0000
  C   C135      1.0  0.99140  0.47582  0.18709  1.0000
  C   C136      1.0  0.01271  0.47606  0.18627  1.0000
  H   H62       1.0  0.95119  0.47928  0.21299  1.0000
  O   O23       1.0  0.98149  0.46186  0.12364  1.0000
  H   H63       1.0  0.97904  0.47366  0.07333  1.0000
  O   O24       1.0  0.02255  0.46228  0.12216  1.0000
  H   H64       1.0  0.02473  0.47414  0.07176  1.0000
  C   C137      1.0  0.29109  0.23501  0.29011  1.0000
  N   N17       1.0  0.27086  0.23790  0.29808  1.0000
  C   C138      1.0  0.20831  0.24366  0.30739  1.0000
  H   H65       1.0  0.29643  0.22398  0.23862  1.0000
  N   N18       1.0  0.22875  0.24189  0.30776  1.0000
  H   H66       1.0  0.20052  0.23514  0.25627  1.0000
  C   C139      1.0  0.71200  0.77022  0.28751  1.0000
  N   N19       1.0  0.73221  0.76734  0.29653  1.0000
  C   C140      1.0  0.79473  0.76175  0.30929  1.0000
  H   H67       1.0  0.70679  0.78117  0.23555  1.0000
  N   N20       1.0  0.77428  0.76345  0.30851  1.0000
  H   H68       1.0  0.80263  0.77020  0.25840  1.0000
  C   C141      1.0  0.69898  0.24684  0.32771  1.0000
  C   C142      1.0  0.74135  0.25230  0.31481  1.0000
  C   C143      1.0  0.72882  0.26448  0.25012  1.0000
  C   C144      1.0  0.70761  0.26162  0.25802  1.0000
  H   H69       1.0  0.69833  0.26938  0.21030  1.0000
  C   C145      1.0  0.76258  0.25429  0.30942  1.0000
  C   C146      1.0  0.80505  0.25949  0.30551  1.0000
  C   C147      1.0  0.79287  0.27137  0.23942  1.0000
  C   C148      1.0  0.77160  0.26892  0.23977  1.0000
  C   C149      1.0  0.75915  0.28088  0.17481  1.0000
  C   C150      1.0  0.73793  0.27855  0.17967  1.0000
  H   H70       1.0  0.79966  0.28247  0.19141  1.0000
  O   O25       1.0  0.76729  0.29540  0.10799  1.0000
  H   H71       1.0  0.76999  0.28352  0.05814  1.0000
  O   O26       1.0  0.72646  0.29079  0.11709  1.0000
  H   H72       1.0  0.72470  0.27851  0.06759  1.0000
  C   C151      1.0  0.30488  0.75972  0.32692  1.0000
  C   C152      1.0  0.26250  0.75436  0.31399  1.0000
  C   C153      1.0  0.27503  0.74190  0.24990  1.0000
  C   C154      1.0  0.29624  0.74471  0.25785  1.0000
  H   H73       1.0  0.30551  0.73673  0.21057  1.0000
  C   C155      1.0  0.24126  0.75237  0.30863  1.0000
  C   C156      1.0  0.19879  0.74710  0.30501  1.0000
  C   C157      1.0  0.21098  0.73504  0.23935  1.0000
  C   C158      1.0  0.23225  0.73751  0.23957  1.0000
  C   C159      1.0  0.24470  0.72530  0.17517  1.0000
  C   C160      1.0  0.26592  0.72759  0.18004  1.0000
  H   H74       1.0  0.20421  0.72375  0.19185  1.0000
  O   O27       1.0  0.23656  0.71054  0.10898  1.0000
  H   H75       1.0  0.23387  0.72223  0.05858  1.0000
  O   O28       1.0  0.27739  0.71510  0.11809  1.0000
  H   H76       1.0  0.27920  0.72720  0.06808  1.0000
  C   C161      1.0  0.98284  0.13998  0.33529  1.0000
  C   C162      1.0  0.00150  0.15323  0.33561  1.0000
  C   C163      1.0  0.02021  0.14014  0.33517  1.0000
  C   C164      1.0  0.01992  0.11290  0.33482  1.0000
  C   C165      1.0  0.00163  0.09868  0.33317  1.0000
  C   C166      1.0  0.98327  0.11272  0.33328  1.0000
  H   H77       1.0  0.03338  0.10323  0.33517  1.0000
  H   H78       1.0  0.96988  0.10291  0.33191  1.0000
  H   H79       1.0  0.00147  0.17294  0.33621  1.0000
  C   C167      1.0  0.02025  0.86496  0.33454  1.0000
  C   C168      1.0  0.00151  0.85191  0.33657  1.0000
  C   C169      1.0  0.98287  0.86519  0.33755  1.0000
  C   C170      1.0  0.98331  0.89244  0.33754  1.0000
  C   C171      1.0  0.00166  0.90647  0.33384  1.0000
  C   C172      1.0  0.01993  0.89220  0.33206  1.0000
  H   H80       1.0  0.96991  0.90223  0.33599  1.0000
  H   H81       1.0  0.03339  0.90186  0.33247  1.0000
  H   H82       1.0  0.00144  0.83220  0.33724  1.0000
  C   C173      1.0  0.48285  0.63997  0.33499  1.0000
  C   C174      1.0  0.50152  0.65321  0.33558  1.0000
  C   C175      1.0  0.52023  0.64011  0.33545  1.0000
  C   C176      1.0  0.51993  0.61287  0.33516  1.0000
  C   C177      1.0  0.50164  0.59866  0.33317  1.0000
  C   C178      1.0  0.48327  0.61271  0.33296  1.0000
  H   H83       1.0  0.53339  0.60320  0.33570  1.0000
  H   H84       1.0  0.46988  0.60291  0.33139  1.0000
  H   H85       1.0  0.50149  0.67292  0.33616  1.0000
  C   C179      1.0  0.52024  0.36487  0.33428  1.0000
  C   C180      1.0  0.50150  0.35183  0.33648  1.0000
  C   C181      1.0  0.48286  0.36512  0.33772  1.0000
  C   C182      1.0  0.48331  0.39237  0.33774  1.0000
  C   C183      1.0  0.50167  0.40640  0.33383  1.0000
  C   C184      1.0  0.51993  0.39211  0.33183  1.0000
  H   H86       1.0  0.46990  0.40215  0.33641  1.0000
  H   H87       1.0  0.53340  0.40175  0.33208  1.0000
  H   H88       1.0  0.50141  0.33212  0.33710  1.0000
  C   C185      1.0  0.42809  0.00325  0.33186  1.0000
  C   C186      1.0  0.41741  0.98005  0.34235  1.0000
  C   C187      1.0  0.39611  0.97970  0.34759  1.0000
  C   C188      1.0  0.38545  0.00316  0.33800  1.0000
  C   C189      1.0  0.39590  0.02666  0.32547  1.0000
  C   C190      1.0  0.41723  0.02640  0.32464  1.0000
  H   H89       1.0  0.37001  0.00312  0.33996  1.0000
  H   H90       1.0  0.42506  0.04328  0.31705  1.0000
  H   H91       1.0  0.42536  0.96317  0.34705  1.0000
  C   C191      1.0  0.57655  0.00331  0.32950  1.0000
  C   C192      1.0  0.58748  0.02616  0.34431  1.0000
  C   C193      1.0  0.60879  0.02627  0.34897  1.0000
  C   C194      1.0  0.61930  0.00284  0.33640  1.0000
  C   C195      1.0  0.60873  0.97961  0.32074  1.0000
  C   C196      1.0  0.58741  0.98021  0.31880  1.0000
  H   H92       1.0  0.63475  0.00271  0.33856  1.0000
  H   H93       1.0  0.57956  0.96336  0.31122  1.0000
  H   H94       1.0  0.57974  0.04319  0.34931  1.0000
  C   C197      1.0  0.92797  0.50328  0.33154  1.0000
  C   C198      1.0  0.91726  0.48006  0.34073  1.0000
  C   C199      1.0  0.89596  0.47971  0.34569  1.0000
  C   C200      1.0  0.88531  0.50322  0.33767  1.0000
  C   C201      1.0  0.89578  0.52677  0.32671  1.0000
  C   C202      1.0  0.91711  0.52648  0.32564  1.0000
  H   H95       1.0  0.86987  0.50318  0.33963  1.0000
  H   H96       1.0  0.92493  0.54340  0.31890  1.0000
  H   H97       1.0  0.92517  0.46314  0.34462  1.0000
  C   C203      1.0  0.07654  0.50333  0.32969  1.0000
  C   C204      1.0  0.08747  0.52626  0.34302  1.0000
  C   C205      1.0  0.10878  0.52641  0.34738  1.0000
  C   C206      1.0  0.11931  0.50292  0.33644  1.0000
  C   C207      1.0  0.10873  0.47960  0.32243  1.0000
  C   C208      1.0  0.08741  0.48019  0.32040  1.0000
  H   H98       1.0  0.13475  0.50280  0.33853  1.0000
  H   H99       1.0  0.07957  0.46329  0.31378  1.0000
  H   H100      1.0  0.07974  0.54331  0.34707  1.0000
  C   C209      1.0  0.15134  0.29837  0.34538  1.0000
  C   C210      1.0  0.13654  0.27891  0.33865  1.0000
  C   C211      1.0  0.14148  0.25243  0.34401  1.0000
  C   C212      1.0  0.16209  0.24576  0.35612  1.0000
  C   C213      1.0  0.17733  0.26481  0.36368  1.0000
  C   C214      1.0  0.17159  0.29096  0.35822  1.0000
  H   H101      1.0  0.16608  0.22676  0.35925  1.0000
  H   H102      1.0  0.18250  0.30494  0.35973  1.0000
  H   H103      1.0  0.12174  0.28427  0.33205  1.0000
  C   C215      1.0  0.85171  0.70740  0.35060  1.0000
  C   C216      1.0  0.86645  0.72692  0.34393  1.0000
  C   C217      1.0  0.86142  0.75337  0.34868  1.0000
  C   C218      1.0  0.84079  0.75997  0.36021  1.0000
  C   C219      1.0  0.82560  0.74085  0.36767  1.0000
  C   C220      1.0  0.83142  0.71471  0.36290  1.0000
  H   H104      1.0  0.83674  0.77896  0.36276  1.0000
  H   H105      1.0  0.82055  0.70068  0.36425  1.0000
  H   H106      1.0  0.88127  0.72162  0.33757  1.0000
  C   C221      1.0  0.85222  0.29879  0.32906  1.0000
  C   C222      1.0  0.86694  0.27921  0.33521  1.0000
  C   C223      1.0  0.86187  0.25276  0.33067  1.0000
  C   C224      1.0  0.84121  0.24623  0.31986  1.0000
  C   C225      1.0  0.82604  0.26538  0.31285  1.0000
  C   C226      1.0  0.83190  0.29150  0.31750  1.0000
  H   H107      1.0  0.83711  0.22725  0.31732  1.0000
  H   H108      1.0  0.82104  0.30554  0.31634  1.0000
  H   H109      1.0  0.88179  0.28446  0.34067  1.0000
  C   C227      1.0  0.15192  0.70733  0.33066  1.0000
  C   C228      1.0  0.13706  0.72673  0.33637  1.0000
  C   C229      1.0  0.14193  0.75324  0.33096  1.0000
  C   C230      1.0  0.16254  0.75999  0.31965  1.0000
  C   C231      1.0  0.17785  0.74101  0.31300  1.0000
  C   C232      1.0  0.17218  0.71483  0.31866  1.0000
  H   H110      1.0  0.16649  0.77900  0.31641  1.0000
  H   H111      1.0  0.18314  0.70091  0.31770  1.0000
  H   H112      1.0  0.12226  0.72130  0.34210  1.0000
  C   C233      1.0  0.65122  0.79841  0.33595  1.0000
  C   C234      1.0  0.63639  0.77894  0.33341  1.0000
  C   C235      1.0  0.64143  0.75250  0.33945  1.0000
  C   C236      1.0  0.66214  0.74589  0.34799  1.0000
  C   C237      1.0  0.67748  0.76495  0.34719  1.0000
  C   C238      1.0  0.67163  0.79107  0.34276  1.0000
  H   H113      1.0  0.66617  0.72689  0.35016  1.0000
  H   H114      1.0  0.68248  0.80513  0.34312  1.0000
  H   H115      1.0  0.62152  0.78426  0.32962  1.0000
  C   C239      1.0  0.35186  0.20723  0.34099  1.0000
  C   C240      1.0  0.36663  0.22677  0.33848  1.0000
  C   C241      1.0  0.36149  0.25318  0.34383  1.0000
  C   C242      1.0  0.34075  0.25970  0.35175  1.0000
  C   C243      1.0  0.32548  0.24054  0.35103  1.0000
  C   C244      1.0  0.33142  0.21444  0.34726  1.0000
  H   H116      1.0  0.33665  0.27868  0.35340  1.0000
  H   H117      1.0  0.32062  0.20032  0.34753  1.0000
  H   H118      1.0  0.38151  0.22154  0.33489  1.0000
  C   C245      1.0  0.35237  0.79889  0.33893  1.0000
  C   C246      1.0  0.36712  0.77931  0.34076  1.0000
  C   C247      1.0  0.36197  0.75290  0.33539  1.0000
  C   C248      1.0  0.34121  0.74642  0.32789  1.0000
  C   C249      1.0  0.32595  0.76558  0.32906  1.0000
  C   C250      1.0  0.33192  0.79168  0.33314  1.0000
  H   H119      1.0  0.33709  0.72745  0.32602  1.0000
  H   H120      1.0  0.32112  0.80580  0.33313  1.0000
  H   H121      1.0  0.38202  0.78453  0.34363  1.0000
  C   C251      1.0  0.65179  0.20714  0.34002  1.0000
  C   C252      1.0  0.63688  0.22653  0.34142  1.0000
  C   C253      1.0  0.64183  0.25300  0.33559  1.0000
  C   C254      1.0  0.66254  0.25972  0.32808  1.0000
  C   C255      1.0  0.67795  0.24076  0.32969  1.0000
  C   C256      1.0  0.67218  0.21460  0.33418  1.0000
  H   H122      1.0  0.66652  0.27874  0.32590  1.0000
  H   H123      1.0  0.68309  0.20061  0.33444  1.0000
  H   H124      1.0  0.62203  0.22111  0.34434  1.0000
  C   C257      1.0  0.98885  0.94925  0.38511  1.0000
  N   N21       1.0  0.98940  0.97537  0.38188  1.0000
  C   C258      1.0  0.98876  0.05598  0.38443  1.0000
  H   H125      1.0  0.97912  0.94078  0.42927  1.0000
  N   N22       1.0  0.98934  0.02985  0.38146  1.0000
  H   H126      1.0  0.97897  0.06449  0.42825  1.0000
  C   C259      1.0  0.48883  0.44919  0.38504  1.0000
  N   N23       1.0  0.48939  0.47532  0.38182  1.0000
  C   C260      1.0  0.48872  0.55595  0.38427  1.0000
  H   H127      1.0  0.47909  0.44072  0.42914  1.0000
  N   N24       1.0  0.48931  0.52982  0.38134  1.0000
  H   H128      1.0  0.47892  0.56447  0.42801  1.0000
  C   C261      1.0  0.12570  0.23355  0.33901  1.0000
  C   C262      1.0  0.09181  0.20020  0.33743  1.0000
  C   C263      1.0  0.10707  0.19658  0.40312  1.0000
  C   C264      1.0  0.12396  0.21338  0.40236  1.0000
  H   H129      1.0  0.13471  0.21170  0.45124  1.0000
  C   C265      1.0  0.07439  0.18447  0.33692  1.0000
  C   C266      1.0  0.03877  0.15429  0.33517  1.0000
  C   C267      1.0  0.05418  0.14954  0.39878  1.0000
  C   C268      1.0  0.07202  0.16463  0.40156  1.0000
  C   C269      1.0  0.08726  0.16101  0.46689  1.0000
  C   C270      1.0  0.10460  0.17689  0.46785  1.0000
  H   H130      1.0  0.05200  0.13547  0.44576  1.0000
  O   O29       1.0  0.08565  0.14202  0.52938  1.0000
  H   H131      1.0  0.07870  0.14973  0.58107  1.0000
  O   O30       1.0  0.11899  0.17259  0.53124  1.0000
  H   H132      1.0  0.11525  0.18322  0.58317  1.0000
  C   C271      1.0  0.87716  0.77229  0.34329  1.0000
  C   C272      1.0  0.91107  0.80555  0.34111  1.0000
  C   C273      1.0  0.89589  0.80920  0.40712  1.0000
  C   C274      1.0  0.87897  0.79245  0.40661  1.0000
  H   H133      1.0  0.86828  0.79412  0.45577  1.0000
  C   C275      1.0  0.92854  0.82120  0.34034  1.0000
  C   C276      1.0  0.96425  0.85118  0.33795  1.0000
  C   C277      1.0  0.94892  0.85600  0.40192  1.0000
  C   C278      1.0  0.93104  0.84101  0.40503  1.0000
  C   C279      1.0  0.91587  0.84466  0.47068  1.0000
  C   C280      1.0  0.89849  0.82885  0.47190  1.0000
  H   H134      1.0  0.95121  0.87004  0.44892  1.0000
  O   O31       1.0  0.91760  0.86360  0.53326  1.0000
  H   H135      1.0  0.92456  0.85584  0.58479  1.0000
  O   O32       1.0  0.88417  0.83318  0.53560  1.0000
  H   H136      1.0  0.88793  0.82252  0.58740  1.0000
  C   C281      1.0  0.89339  0.23583  0.39863  1.0000
  N   N25       1.0  0.90931  0.21947  0.39671  1.0000
  C   C282      1.0  0.96098  0.17425  0.39813  1.0000
  H   H137      1.0  0.89330  0.24993  0.44635  1.0000
  N   N26       1.0  0.94374  0.18829  0.39606  1.0000
  H   H138      1.0  0.97154  0.17863  0.44566  1.0000
  C   C283      1.0  0.11023  0.76984  0.39831  1.0000
  N   N27       1.0  0.09416  0.78597  0.39598  1.0000
  C   C284      1.0  0.04216  0.83060  0.39663  1.0000
  H   H139      1.0  0.11040  0.75580  0.44623  1.0000
  N   N28       1.0  0.05948  0.81672  0.39465  1.0000
  H   H140      1.0  0.03164  0.82617  0.44427  1.0000
  C   C285      1.0  0.62564  0.73362  0.33624  1.0000
  C   C286      1.0  0.59177  0.70026  0.33630  1.0000
  C   C287      1.0  0.60697  0.69702  0.40253  1.0000
  C   C288      1.0  0.62388  0.71379  0.40087  1.0000
  H   H141      1.0  0.63463  0.71237  0.44982  1.0000
  C   C289      1.0  0.57436  0.68452  0.33634  1.0000
  C   C290      1.0  0.53878  0.65427  0.33533  1.0000
  C   C291      1.0  0.55409  0.64987  0.39971  1.0000
  C   C292      1.0  0.57190  0.66501  0.40214  1.0000
  C   C293      1.0  0.58706  0.66179  0.46815  1.0000
  C   C294      1.0  0.60440  0.67769  0.46851  1.0000
  H   H142      1.0  0.55185  0.63602  0.44743  1.0000
  O   O33       1.0  0.58536  0.64317  0.53191  1.0000
  H   H143      1.0  0.57832  0.65116  0.58279  1.0000
  O   O34       1.0  0.61869  0.67378  0.53261  1.0000
  H   H144      1.0  0.61488  0.68471  0.58365  1.0000
  C   C295      1.0  0.37721  0.27212  0.34017  1.0000
  C   C296      1.0  0.41112  0.30539  0.33974  1.0000
  C   C297      1.0  0.39599  0.30865  0.40628  1.0000
  C   C298      1.0  0.37905  0.29192  0.40484  1.0000
  H   H145      1.0  0.36836  0.29333  0.45409  1.0000
  C   C299      1.0  0.42857  0.32105  0.33954  1.0000
  C   C300      1.0  0.46424  0.35111  0.33795  1.0000
  C   C301      1.0  0.44901  0.35557  0.40268  1.0000
  C   C302      1.0  0.43115  0.34052  0.40541  1.0000
  C   C303      1.0  0.41606  0.34377  0.47172  1.0000
  C   C304      1.0  0.39868  0.32794  0.47231  1.0000
  H   H146      1.0  0.45136  0.36938  0.45043  1.0000
  O   O35       1.0  0.41788  0.36234  0.53557  1.0000
  H   H147      1.0  0.42493  0.35429  0.58630  1.0000
  O   O36       1.0  0.38446  0.33188  0.53670  1.0000
  H   H148      1.0  0.38829  0.32092  0.58762  1.0000
  C   C305      1.0  0.39349  0.73566  0.40168  1.0000
  N   N29       1.0  0.40939  0.71930  0.39895  1.0000
  C   C306      1.0  0.46098  0.67401  0.39888  1.0000
  H   H149      1.0  0.39339  0.74954  0.45021  1.0000
  N   N30       1.0  0.44376  0.68809  0.39717  1.0000
  H   H150      1.0  0.47149  0.67818  0.44682  1.0000
  C   C307      1.0  0.61009  0.26983  0.40114  1.0000
  N   N31       1.0  0.59405  0.28597  0.39804  1.0000
  C   C308      1.0  0.54214  0.33068  0.39725  1.0000
  H   H151      1.0  0.61024  0.25597  0.44970  1.0000
  N   N32       1.0  0.55944  0.31675  0.39564  1.0000
  H   H152      1.0  0.53164  0.32642  0.44518  1.0000
  C   C309      1.0  0.35060  0.16239  0.39591  1.0000
  N   N33       1.0  0.35588  0.13734  0.38664  1.0000
  C   C310      1.0  0.37300  0.06049  0.38177  1.0000
  H   H153      1.0  0.34213  0.16764  0.45015  1.0000
  N   N34       1.0  0.36716  0.08550  0.37920  1.0000
  H   H154      1.0  0.36912  0.04963  0.43619  1.0000
  C   C311      1.0  0.65278  0.84323  0.39076  1.0000
  N   N35       1.0  0.64774  0.86835  0.38137  1.0000
  C   C312      1.0  0.63144  0.94546  0.37617  1.0000
  H   H155      1.0  0.66126  0.83791  0.44486  1.0000
  N   N36       1.0  0.63700  0.92034  0.37368  1.0000
  H   H156      1.0  0.63543  0.95621  0.43069  1.0000
  C   C313      1.0  0.64658  0.18069  0.34771  1.0000
  C   C314      1.0  0.63695  0.12807  0.36256  1.0000
  C   C315      1.0  0.62947  0.14550  0.42797  1.0000
  C   C316      1.0  0.63440  0.17184  0.41905  1.0000
  H   H157      1.0  0.62928  0.18476  0.46557  1.0000
  C   C317      1.0  0.63166  0.10179  0.36621  1.0000
  C   C318      1.0  0.61873  0.05019  0.36232  1.0000
  C   C319      1.0  0.61265  0.06673  0.43261  1.0000
  C   C320      1.0  0.61883  0.09271  0.43553  1.0000
  C   C321      1.0  0.61195  0.10991  0.50243  1.0000
  C   C322      1.0  0.61725  0.13619  0.49868  1.0000
  H   H158      1.0  0.60269  0.06003  0.47960  1.0000
  O   O37       1.0  0.59927  0.10189  0.56860  1.0000
  H   H159      1.0  0.60794  0.09594  0.61784  1.0000
  O   O38       1.0  0.60957  0.15244  0.56162  1.0000
  H   H160      1.0  0.61948  0.15288  0.61061  1.0000
  C   C323      1.0  0.35780  0.82530  0.34617  1.0000
  C   C324      1.0  0.36786  0.87783  0.36023  1.0000
  C   C325      1.0  0.37539  0.86032  0.42529  1.0000
  C   C326      1.0  0.37024  0.83404  0.41676  1.0000
  H   H161      1.0  0.37537  0.82109  0.46315  1.0000
  C   C327      1.0  0.37330  0.90406  0.36369  1.0000
  C   C328      1.0  0.38635  0.95562  0.35999  1.0000
  C   C329      1.0  0.39259  0.93896  0.42961  1.0000
  C   C330      1.0  0.38633  0.91301  0.43249  1.0000
  C   C331      1.0  0.39330  0.89572  0.49895  1.0000
  C   C332      1.0  0.38785  0.86950  0.49536  1.0000
  H   H162      1.0  0.40260  0.94559  0.47650  1.0000
  O   O39       1.0  0.40620  0.90360  0.56450  1.0000
  H   H163      1.0  0.39769  0.90960  0.61424  1.0000
  O   O40       1.0  0.39560  0.85316  0.55790  1.0000
  H   H164      1.0  0.38582  0.85284  0.60744  1.0000
  C   C333      1.0  0.85062  0.66235  0.40438  1.0000
  N   N37       1.0  0.85590  0.63733  0.39413  1.0000
  C   C334      1.0  0.87309  0.56046  0.38575  1.0000
  H   H165      1.0  0.84241  0.66746  0.45954  1.0000
  N   N38       1.0  0.86722  0.58547  0.38438  1.0000
  H   H166      1.0  0.86938  0.54942  0.44000  1.0000
  C   C335      1.0  0.15270  0.34339  0.39918  1.0000
  N   N39       1.0  0.14766  0.36849  0.38889  1.0000
  C   C336      1.0  0.13127  0.44561  0.38047  1.0000
  H   H167      1.0  0.16094  0.33819  0.45419  1.0000
  N   N40       1.0  0.13687  0.42050  0.37906  1.0000
  H   H168      1.0  0.13509  0.45652  0.43485  1.0000
  C   C337      1.0  0.14679  0.68084  0.33945  1.0000
  C   C338      1.0  0.13710  0.62823  0.35603  1.0000
  C   C339      1.0  0.12995  0.64579  0.42175  1.0000
  C   C340      1.0  0.13493  0.67209  0.41201  1.0000
  H   H169      1.0  0.13006  0.68507  0.45885  1.0000
  C   C341      1.0  0.13176  0.60197  0.36066  1.0000
  C   C342      1.0  0.11874  0.55039  0.35912  1.0000
  C   C343      1.0  0.11290  0.56710  0.42929  1.0000
  C   C344      1.0  0.11917  0.59306  0.43114  1.0000
  C   C345      1.0  0.11261  0.61041  0.49821  1.0000
  C   C346      1.0  0.11800  0.63665  0.49359  1.0000
  H   H170      1.0  0.10310  0.56053  0.47713  1.0000
  O   O41       1.0  0.10016  0.60257  0.56551  1.0000
  H   H171      1.0  0.10901  0.59666  0.61421  1.0000
  O   O42       1.0  0.11062  0.65303  0.55683  1.0000
  H   H172      1.0  0.12073  0.65350  0.60500  1.0000
  C   C347      1.0  0.85757  0.32524  0.33732  1.0000
  C   C348      1.0  0.86763  0.37778  0.35321  1.0000
  C   C349      1.0  0.87483  0.36016  0.41864  1.0000
  C   C350      1.0  0.86966  0.33391  0.40925  1.0000
  H   H173      1.0  0.87454  0.32091  0.45601  1.0000
  C   C351      1.0  0.87310  0.40400  0.35770  1.0000
  C   C352      1.0  0.88616  0.45559  0.35658  1.0000
  C   C353      1.0  0.89215  0.43874  0.42606  1.0000
  C   C354      1.0  0.88585  0.41280  0.42779  1.0000
  C   C355      1.0  0.89250  0.39538  0.49446  1.0000
  C   C356      1.0  0.88699  0.36919  0.48996  1.0000
  H   H174      1.0  0.90198  0.44526  0.47389  1.0000
  O   O43       1.0  0.90512  0.40311  0.56126  1.0000
  H   H175      1.0  0.89641  0.40903  0.61041  1.0000
  O   O44       1.0  0.89443  0.35273  0.55283  1.0000
  H   H176      1.0  0.88445  0.35236  0.60152  1.0000
  C   C357      1.0  0.54347  0.01665  0.38944  1.0000
  N   N41       1.0  0.52310  0.01611  0.38502  1.0000
  C   C358      1.0  0.46099  0.01693  0.39013  1.0000
  H   H177      1.0  0.55008  0.02619  0.44166  1.0000
  N   N42       1.0  0.48136  0.01638  0.38509  1.0000
  H   H178      1.0  0.45435  0.02695  0.44120  1.0000
  C   C359      1.0  0.04343  0.51698  0.38873  1.0000
  N   N43       1.0  0.02306  0.51643  0.38428  1.0000
  C   C360      1.0  0.96091  0.51729  0.38905  1.0000
  H   H179      1.0  0.05004  0.52684  0.44023  1.0000
  N   N44       1.0  0.98128  0.51669  0.38419  1.0000
  H   H180      1.0  0.95427  0.52754  0.43952  1.0000
  C   C361      1.0  0.30441  0.24640  0.35269  1.0000
  C   C362      1.0  0.26201  0.25167  0.36465  1.0000
  C   C363      1.0  0.27444  0.26411  0.42914  1.0000
  C   C364      1.0  0.29567  0.26133  0.42173  1.0000
  H   H181      1.0  0.30488  0.26933  0.46922  1.0000
  C   C365      1.0  0.24076  0.25361  0.36949  1.0000
  C   C366      1.0  0.19828  0.25881  0.37204  1.0000
  C   C367      1.0  0.21037  0.27084  0.43814  1.0000
  C   C368      1.0  0.23164  0.26842  0.43841  1.0000
  C   C369      1.0  0.24399  0.28061  0.50322  1.0000
  C   C370      1.0  0.26522  0.27835  0.49889  1.0000
  H   H182      1.0  0.20352  0.28209  0.48555  1.0000
  O   O45       1.0  0.23576  0.29531  0.56933  1.0000
  H   H183      1.0  0.23301  0.28357  0.61954  1.0000
  O   O46       1.0  0.27660  0.29083  0.56123  1.0000
  H   H184      1.0  0.27835  0.27870  0.61119  1.0000
  C   C371      1.0  0.69853  0.75899  0.34980  1.0000
  C   C372      1.0  0.74089  0.75372  0.36388  1.0000
  C   C373      1.0  0.72830  0.74141  0.42807  1.0000
  C   C374      1.0  0.70709  0.74418  0.41957  1.0000
  H   H185      1.0  0.69777  0.73632  0.46690  1.0000
  C   C375      1.0  0.76213  0.75181  0.36986  1.0000
  C   C376      1.0  0.80461  0.74677  0.37488  1.0000
  C   C377      1.0  0.79236  0.73479  0.44051  1.0000
  C   C378      1.0  0.77109  0.73716  0.43962  1.0000
  C   C379      1.0  0.75857  0.72509  0.50408  1.0000
  C   C380      1.0  0.73735  0.72731  0.49862  1.0000
  H   H186      1.0  0.79910  0.72367  0.48858  1.0000
  O   O47       1.0  0.76665  0.71053  0.57095  1.0000
  H   H187      1.0  0.76925  0.72237  0.62103  1.0000
  O   O48       1.0  0.72583  0.71495  0.56069  1.0000
  H   H188      1.0  0.72395  0.72718  0.61028  1.0000
  C   C381      1.0  0.71239  0.23573  0.39053  1.0000
  N   N45       1.0  0.73260  0.23868  0.38204  1.0000
  C   C382      1.0  0.79512  0.24452  0.37096  1.0000
  H   H189      1.0  0.70713  0.22478  0.44241  1.0000
  N   N46       1.0  0.77468  0.24274  0.37119  1.0000
  H   H190      1.0  0.80299  0.23610  0.42202  1.0000
  C   C383      1.0  0.29147  0.77113  0.38909  1.0000
  N   N47       1.0  0.27126  0.76819  0.38066  1.0000
  C   C384      1.0  0.20872  0.76230  0.36982  1.0000
  H   H191      1.0  0.29674  0.78220  0.44063  1.0000
  N   N48       1.0  0.22916  0.76410  0.36997  1.0000
  H   H192      1.0  0.20086  0.77080  0.42076  1.0000
