data_image0
_chemical_formula_structural       C7H2NH2NO2C2HC3HNH2NO2C2HC3HNH2NO2C2HC3HNH2NO2C7H2NH2NO2C7H2NH2NO2C7H2NH2NO2C7H2NH2NO2C2HC3HNH2NO2C2HC3HNH2NO2C7H2NH2NO2C2HC3HNH2NO2C2HC3HNH2NO2C2HC3HNH2NO2C7H2NH2NO2C7H2NH2NO2C7H2NH2NO2C7H2NH2NO2C2HC3HNH2NO2C2HC3HNH2NO2C7H2NH2NO2C7H2NH2NO2C2HC3HNH2NO2C2HC3HNH2NO2C7H2NH2NO2C7H2NH2NO2C2HC3HNH2NO2C2HC3HNH2NO2C7H2NH2NO2C7H2NH2NO2C2HC3HNH2NO2C2HC3HNH2NO2C7H2NH2NO2C7H2NH2NO2C2HC3HNH2NO2C2HC3HNH2NO2CNCNCNCNCNCNCNCNCNCNCNCNCNCNCNCNCNCNCNCNCNCNCNCNCNCNCNCNCNCNCNCNCNCNCNCNCNCNCNCNCNCNCNCNCNCNCNCNCNCNCNCNCNCNCNCNCNCNCNCNCNCNCNCNCNCNCNCNCNCNCNCNC2HC3HNH2NO2C7H2NH2NO2C7H2NH2NO2C7H2NH2NO2C2HC3HNH2NO2C2HC3HNH2NO2C2HC3HNH2NO2C2HC3HNH2NO2C7H2NH2NO2C7H2NH2NO2C2HC3HNH2NO2C7H2NH2NO2C7H2NH2NO2C7H2NH2NO2C2HC3HNH2NO2C2HC3HNH2NO2C2HC3HNH2NO2C2HC3HNH2NO2C7H2NH2NO2C7H2NH2NO2C2HC3HNH2NO2C2HC3HNH2NO2C7H2NH2NO2C7H2NH2NO2C2HC3HNH2NO2C2HC3HNH2NO2C7H2NH2NO2C7H2NH2NO2C2HC3HNH2NO2C2HC3HNH2NO2C7H2NH2NO2C7H2NH2NO2C2HC3HNH2NO2C2HC3HNH2NO2C7H2NH2NO2C7H2NH2NO2
_chemical_formula_sum              "C504 H288 N216 O144"
_cell_length_a       63.942
_cell_length_b       81.302
_cell_length_c       14.8639
_cell_angle_alpha    90
_cell_angle_beta     90
_cell_angle_gamma    90

_space_group_name_H-M_alt    "P 1"
_space_group_IT_number       1

loop_
  _space_group_symop_operation_xyz
  'x, y, z'

loop_
  _atom_site_type_symbol
  _atom_site_label
  _atom_site_symmetry_multiplicity
  _atom_site_fract_x
  _atom_site_fract_y
  _atom_site_fract_z
  _atom_site_occupancy
  C   C1        1.0  0.47281  0.04116  0.33700  1.0000
  C   C2        1.0  0.49425  0.04107  0.31057  1.0000
  C   C3        1.0  0.50587  0.02620  0.31161  1.0000
  C   C4        1.0  0.49705  0.01106  0.33870  1.0000
  C   C5        1.0  0.51000  0.99656  0.33609  1.0000
  C   C6        1.0  0.50643  0.98323  0.27569  1.0000
  C   C7        1.0  0.51959  0.96919  0.28010  1.0000
  H   H1        1.0  0.51686  0.95964  0.23661  1.0000
  H   H2        1.0  0.52115  0.02648  0.29089  1.0000
  N   N1        1.0  0.49099  0.98352  0.21261  1.0000
  H   H3        1.0  0.48208  0.99308  0.20410  1.0000
  H   H4        1.0  0.48894  0.97441  0.17113  1.0000
  N   N2        1.0  0.50411  0.05571  0.28079  1.0000
  O   O1        1.0  0.51945  0.05948  0.32950  1.0000
  O   O2        1.0  0.51012  0.05466  0.20050  1.0000
  C   C8        1.0  0.03344  0.51098  0.31851  1.0000
  C   C9        1.0  0.04506  0.52587  0.32102  1.0000
  H   H5        1.0  0.06031  0.52556  0.30017  1.0000
  C   C10       1.0  0.97237  0.46806  0.34515  1.0000
  C   C11       1.0  0.96855  0.48156  0.28682  1.0000
  C   C12       1.0  0.98196  0.49547  0.28922  1.0000
  H   H6        1.0  0.97919  0.50491  0.24512  1.0000
  N   N3        1.0  0.04308  0.49712  0.28806  1.0000
  H   H7        1.0  0.05760  0.49727  0.26848  1.0000
  H   H8        1.0  0.03566  0.48676  0.28170  1.0000
  N   N4        1.0  0.95198  0.48063  0.22380  1.0000
  O   O3        1.0  0.95859  0.48119  0.14423  1.0000
  O   O4        1.0  0.93896  0.49201  0.23525  1.0000
  C   C13       1.0  0.32839  0.08872  0.30158  1.0000
  C   C14       1.0  0.30639  0.09082  0.30244  1.0000
  H   H9        1.0  0.30053  0.10161  0.27737  1.0000
  C   C15       1.0  0.40406  0.06873  0.34503  1.0000
  C   C16       1.0  0.39170  0.05872  0.28762  1.0000
  C   C17       1.0  0.36958  0.06031  0.28862  1.0000
  H   H10       1.0  0.36097  0.05352  0.24393  1.0000
  N   N5        1.0  0.34043  0.10103  0.26707  1.0000
  H   H11       1.0  0.33421  0.11103  0.24294  1.0000
  H   H12       1.0  0.35551  0.10000  0.26153  1.0000
  N   N6        1.0  0.40173  0.04802  0.22611  1.0000
  O   O5        1.0  0.39776  0.05185  0.14598  1.0000
  O   O6        1.0  0.39637  0.03334  0.23878  1.0000
  C   C18       1.0  0.68050  0.91997  0.30567  1.0000
  C   C19       1.0  0.70252  0.91798  0.30581  1.0000
  H   H13       1.0  0.70841  0.90724  0.28032  1.0000
  C   C20       1.0  0.60477  0.93997  0.34939  1.0000
  C   C21       1.0  0.61721  0.95011  0.29298  1.0000
  C   C22       1.0  0.63932  0.94846  0.29411  1.0000
  H   H14       1.0  0.64798  0.95536  0.25008  1.0000
  N   N7        1.0  0.66851  0.90763  0.27109  1.0000
  H   H15       1.0  0.67477  0.89769  0.24651  1.0000
  H   H16       1.0  0.65342  0.90860  0.26586  1.0000
  N   N8        1.0  0.60730  0.96102  0.23219  1.0000
  O   O7        1.0  0.61129  0.95741  0.15180  1.0000
  O   O8        1.0  0.61272  0.97566  0.24617  1.0000
  C   C23       1.0  0.21689  0.57875  0.34956  1.0000
  C   C24       1.0  0.20805  0.56372  0.31843  1.0000
  C   C25       1.0  0.18598  0.56155  0.31815  1.0000
  C   C26       1.0  0.17211  0.57391  0.34845  1.0000
  C   C27       1.0  0.14994  0.57156  0.33895  1.0000
  C   C28       1.0  0.13767  0.58112  0.27838  1.0000
  C   C29       1.0  0.11559  0.57966  0.28105  1.0000
  H   H17       1.0  0.10689  0.58680  0.23828  1.0000
  H   H18       1.0  0.17995  0.55086  0.29249  1.0000
  N   N9        1.0  0.14632  0.59173  0.21798  1.0000
  H   H19       1.0  0.16137  0.59276  0.21089  1.0000
  H   H20       1.0  0.13769  0.59807  0.17670  1.0000
  N   N10       1.0  0.22124  0.55119  0.28450  1.0000
  O   O9        1.0  0.21953  0.53815  0.32932  1.0000
  O   O10       1.0  0.21752  0.54810  0.20322  1.0000
  C   C30       1.0  0.79255  0.43011  0.34658  1.0000
  C   C31       1.0  0.80145  0.44508  0.31505  1.0000
  C   C32       1.0  0.82353  0.44713  0.31389  1.0000
  C   C33       1.0  0.83737  0.43471  0.34377  1.0000
  C   C34       1.0  0.85955  0.43703  0.33433  1.0000
  C   C35       1.0  0.87191  0.42733  0.27474  1.0000
  C   C36       1.0  0.89400  0.42883  0.27760  1.0000
  H   H21       1.0  0.90277  0.42161  0.23555  1.0000
  H   H22       1.0  0.82959  0.45780  0.28812  1.0000
  N   N11       1.0  0.86334  0.41655  0.21505  1.0000
  H   H23       1.0  0.84830  0.41549  0.20777  1.0000
  H   H24       1.0  0.87202  0.41012  0.17436  1.0000
  N   N12       1.0  0.78828  0.45768  0.28172  1.0000
  O   O11       1.0  0.79020  0.47070  0.32654  1.0000
  O   O12       1.0  0.79186  0.46077  0.20031  1.0000
  C   C37       1.0  0.50815  0.18332  0.34458  1.0000
  C   C38       1.0  0.52033  0.16992  0.31229  1.0000
  C   C39       1.0  0.51180  0.15380  0.31161  1.0000
  C   C40       1.0  0.49142  0.15040  0.34325  1.0000
  C   C41       1.0  0.48353  0.13393  0.33665  1.0000
  C   C42       1.0  0.46665  0.12961  0.27874  1.0000
  C   C43       1.0  0.45851  0.11341  0.28256  1.0000
  H   H25       1.0  0.44625  0.11041  0.24127  1.0000
  H   H26       1.0  0.52063  0.14440  0.28578  1.0000
  N   N13       1.0  0.45802  0.14042  0.21941  1.0000
  H   H27       1.0  0.46352  0.15147  0.21151  1.0000
  H   H28       1.0  0.44662  0.13719  0.17980  1.0000
  N   N14       1.0  0.54071  0.17267  0.27820  1.0000
  O   O13       1.0  0.55412  0.16453  0.32107  1.0000
  O   O14       1.0  0.54202  0.16901  0.19627  1.0000
  C   C44       1.0  0.50087  0.82602  0.34216  1.0000
  C   C45       1.0  0.48836  0.83944  0.31231  1.0000
  C   C46       1.0  0.49674  0.85561  0.31167  1.0000
  C   C47       1.0  0.51733  0.85902  0.34059  1.0000
  C   C48       1.0  0.52492  0.87557  0.33501  1.0000
  C   C49       1.0  0.54014  0.88054  0.27058  1.0000
  C   C50       1.0  0.54813  0.89678  0.27466  1.0000
  H   H29       1.0  0.55925  0.90027  0.22878  1.0000
  H   H30       1.0  0.48762  0.86504  0.28816  1.0000
  N   N15       1.0  0.54735  0.87028  0.20513  1.0000
  H   H31       1.0  0.54198  0.85918  0.19787  1.0000
  H   H32       1.0  0.55766  0.87394  0.16132  1.0000
  N   N16       1.0  0.46778  0.83667  0.28060  1.0000
  O   O15       1.0  0.45461  0.84473  0.32531  1.0000
  O   O16       1.0  0.46595  0.84044  0.19898  1.0000
  C   C51       1.0  0.02982  0.66358  0.30614  1.0000
  C   C52       1.0  0.02130  0.67966  0.30722  1.0000
  H   H33       1.0  0.03024  0.68898  0.28133  1.0000
  C   C53       1.0  0.04220  0.60115  0.34542  1.0000
  C   C54       1.0  0.02488  0.60537  0.29035  1.0000
  C   C55       1.0  0.01697  0.62166  0.29212  1.0000
  H   H34       1.0  0.00495  0.62466  0.24958  1.0000
  N   N17       1.0  0.04923  0.66135  0.27032  1.0000
  H   H35       1.0  0.05717  0.67051  0.24566  1.0000
  H   H36       1.0  0.05548  0.65051  0.26461  1.0000
  N   N18       1.0  0.01646  0.59352  0.23061  1.0000
  O   O17       1.0  0.01857  0.59784  0.14995  1.0000
  O   O18       1.0  0.99738  0.59106  0.24580  1.0000
  C   C56       1.0  0.97928  0.34582  0.31237  1.0000
  C   C57       1.0  0.98772  0.32971  0.31285  1.0000
  H   H37       1.0  0.97847  0.32039  0.28917  1.0000
  C   C58       1.0  0.96796  0.40839  0.34597  1.0000
  C   C59       1.0  0.98350  0.40341  0.28298  1.0000
  C   C60       1.0  0.99128  0.38715  0.28581  1.0000
  H   H38       1.0  0.00200  0.38356  0.23838  1.0000
  N   N19       1.0  0.95949  0.34807  0.28069  1.0000
  H   H39       1.0  0.95119  0.33889  0.25859  1.0000
  H   H40       1.0  0.95317  0.35891  0.27658  1.0000
  N   N20       1.0  0.99132  0.41326  0.21205  1.0000
  O   O19       1.0  0.97710  0.41844  0.16105  1.0000
  O   O20       1.0  0.00204  0.42511  0.24028  1.0000
  C   C61       1.0  0.55855  0.51728  0.34100  1.0000
  C   C62       1.0  0.55208  0.50114  0.31604  1.0000
  C   C63       1.0  0.53051  0.49696  0.31613  1.0000
  C   C64       1.0  0.51473  0.50824  0.34136  1.0000
  C   C65       1.0  0.49321  0.50299  0.33875  1.0000
  C   C66       1.0  0.47797  0.50998  0.28000  1.0000
  C   C67       1.0  0.45689  0.50454  0.28543  1.0000
  H   H41       1.0  0.44606  0.50957  0.24272  1.0000
  H   H42       1.0  0.52629  0.48536  0.29619  1.0000
  N   N21       1.0  0.48292  0.52154  0.21723  1.0000
  H   H43       1.0  0.49723  0.52515  0.20769  1.0000
  H   H44       1.0  0.47241  0.52601  0.17676  1.0000
  N   N22       1.0  0.56705  0.48931  0.28876  1.0000
  O   O21       1.0  0.56675  0.47684  0.33873  1.0000
  O   O22       1.0  0.56429  0.48482  0.20874  1.0000
  C   C68       1.0  0.98813  0.02427  0.31603  1.0000
  C   C69       1.0  0.96658  0.02846  0.31816  1.0000
  H   H45       1.0  0.96243  0.04004  0.29788  1.0000
  C   C70       1.0  0.05870  0.99184  0.34060  1.0000
  C   C71       1.0  0.04335  0.98460  0.28398  1.0000
  C   C72       1.0  0.02241  0.99035  0.28700  1.0000
  H   H46       1.0  0.01172  0.98521  0.24400  1.0000
  N   N23       1.0  0.00201  0.03574  0.28606  1.0000
  H   H47       1.0  0.99743  0.04658  0.26654  1.0000
  H   H48       1.0  0.01680  0.03331  0.27935  1.0000
  N   N24       1.0  0.04930  0.97217  0.22231  1.0000
  O   O23       1.0  0.04625  0.97652  0.14225  1.0000
  O   O24       1.0  0.03960  0.95898  0.23661  1.0000
  C   C73       1.0  0.36976  0.38755  0.30550  1.0000
  C   C74       1.0  0.36773  0.37016  0.30826  1.0000
  H   H49       1.0  0.35478  0.36500  0.27924  1.0000
  C   C75       1.0  0.40031  0.44706  0.33954  1.0000
  C   C76       1.0  0.41194  0.43589  0.28569  1.0000
  C   C77       1.0  0.40726  0.41886  0.28877  1.0000
  H   H50       1.0  0.41563  0.41103  0.24847  1.0000
  N   N25       1.0  0.35446  0.39650  0.26474  1.0000
  H   H51       1.0  0.34227  0.39123  0.23815  1.0000
  H   H52       1.0  0.35535  0.40838  0.25890  1.0000
  N   N26       1.0  0.42752  0.44194  0.22654  1.0000
  O   O25       1.0  0.42318  0.43890  0.14576  1.0000
  O   O26       1.0  0.44519  0.43600  0.24432  1.0000
  C   C78       1.0  0.63937  0.62175  0.30212  1.0000
  C   C79       1.0  0.64136  0.63914  0.30545  1.0000
  H   H53       1.0  0.65429  0.64435  0.27649  1.0000
  C   C80       1.0  0.60906  0.56211  0.33581  1.0000
  C   C81       1.0  0.59719  0.57329  0.28303  1.0000
  C   C82       1.0  0.60181  0.59034  0.28611  1.0000
  H   H54       1.0  0.59325  0.59817  0.24656  1.0000
  N   N27       1.0  0.65467  0.61287  0.26089  1.0000
  H   H55       1.0  0.66682  0.61819  0.23434  1.0000
  H   H56       1.0  0.65378  0.60100  0.25450  1.0000
  N   N28       1.0  0.58137  0.56727  0.22497  1.0000
  O   O27       1.0  0.58535  0.57039  0.14393  1.0000
  O   O28       1.0  0.56376  0.57315  0.24431  1.0000
  C   C83       1.0  0.12603  0.85968  0.33870  1.0000
  C   C84       1.0  0.10804  0.86732  0.30055  1.0000
  C   C85       1.0  0.10602  0.88469  0.30213  1.0000
  C   C86       1.0  0.12134  0.89499  0.34100  1.0000
  C   C87       1.0  0.11780  0.91243  0.34023  1.0000
  C   C88       1.0  0.12937  0.92352  0.28521  1.0000
  C   C89       1.0  0.12488  0.94060  0.29006  1.0000
  H   H57       1.0  0.13313  0.94850  0.24971  1.0000
  H   H58       1.0  0.09303  0.88990  0.27352  1.0000
  N   N29       1.0  0.14437  0.91832  0.22679  1.0000
  H   H59       1.0  0.14760  0.90673  0.21885  1.0000
  H   H60       1.0  0.15197  0.92604  0.18892  1.0000
  N   N30       1.0  0.09234  0.85774  0.25839  1.0000
  O   O29       1.0  0.07478  0.85983  0.29461  1.0000
  O   O30       1.0  0.09084  0.86095  0.17594  1.0000
  C   C90       1.0  0.88320  0.14956  0.34113  1.0000
  C   C91       1.0  0.90117  0.14186  0.30320  1.0000
  C   C92       1.0  0.90314  0.12448  0.30524  1.0000
  C   C93       1.0  0.88781  0.11424  0.34444  1.0000
  C   C94       1.0  0.89127  0.09678  0.34387  1.0000
  C   C95       1.0  0.87947  0.08568  0.28984  1.0000
  C   C96       1.0  0.88388  0.06859  0.29480  1.0000
  H   H61       1.0  0.87548  0.06071  0.25497  1.0000
  H   H62       1.0  0.91611  0.11923  0.27668  1.0000
  N   N31       1.0  0.86430  0.09088  0.23216  1.0000
  H   H63       1.0  0.86112  0.10247  0.22401  1.0000
  H   H64       1.0  0.85654  0.08316  0.19495  1.0000
  N   N32       1.0  0.91690  0.15138  0.26085  1.0000
  O   O31       1.0  0.93445  0.14930  0.29720  1.0000
  O   O32       1.0  0.91842  0.14810  0.17849  1.0000
  C   C97       1.0  0.29157  0.56267  0.33611  1.0000
  C   C98       1.0  0.31143  0.56551  0.29553  1.0000
  C   C99       1.0  0.32701  0.55309  0.29755  1.0000
  C   C100      1.0  0.32368  0.53769  0.33902  1.0000
  C   C101      1.0  0.34051  0.52595  0.33819  1.0000
  C   C102      1.0  0.34044  0.51156  0.28351  1.0000
  C   C103      1.0  0.35773  0.50063  0.28778  1.0000
  H   H65       1.0  0.35760  0.49036  0.24779  1.0000
  H   H66       1.0  0.34110  0.55540  0.26720  1.0000
  N   N33       1.0  0.32449  0.50801  0.22602  1.0000
  H   H67       1.0  0.31257  0.51531  0.21866  1.0000
  H   H68       1.0  0.32477  0.49822  0.18841  1.0000
  N   N34       1.0  0.31551  0.58047  0.24987  1.0000
  O   O33       1.0  0.33114  0.58778  0.28195  1.0000
  O   O34       1.0  0.31853  0.57817  0.16728  1.0000
  C   C104      1.0  0.71790  0.44644  0.33593  1.0000
  C   C105      1.0  0.69799  0.44367  0.29564  1.0000
  C   C106      1.0  0.68245  0.45612  0.29820  1.0000
  C   C107      1.0  0.68585  0.47148  0.34002  1.0000
  C   C108      1.0  0.66907  0.48326  0.33957  1.0000
  C   C109      1.0  0.66922  0.49773  0.28558  1.0000
  C   C110      1.0  0.65192  0.50867  0.28993  1.0000
  H   H69       1.0  0.65212  0.51897  0.25024  1.0000
  H   H70       1.0  0.66833  0.45386  0.26799  1.0000
  N   N35       1.0  0.68524  0.50137  0.22863  1.0000
  H   H71       1.0  0.69715  0.49408  0.22116  1.0000
  H   H72       1.0  0.68502  0.51122  0.19148  1.0000
  N   N36       1.0  0.69382  0.42875  0.24976  1.0000
  O   O35       1.0  0.67821  0.42144  0.28202  1.0000
  O   O36       1.0  0.69071  0.43110  0.16728  1.0000
  C   C111      1.0  0.20534  0.03461  0.30592  1.0000
  C   C112      1.0  0.22094  0.04705  0.30894  1.0000
  H   H73       1.0  0.23502  0.04476  0.27858  1.0000
  C   C113      1.0  0.13367  0.00364  0.34257  1.0000
  C   C114      1.0  0.13363  0.01811  0.28904  1.0000
  C   C115      1.0  0.15101  0.02896  0.29176  1.0000
  H   H74       1.0  0.15077  0.03922  0.25170  1.0000
  N   N37       1.0  0.20981  0.02021  0.26339  1.0000
  H   H75       1.0  0.22339  0.01830  0.23579  1.0000
  H   H76       1.0  0.19953  0.01147  0.25755  1.0000
  N   N38       1.0  0.11664  0.02121  0.23026  1.0000
  O   O37       1.0  0.12236  0.02137  0.14936  1.0000
  O   O38       1.0  0.10781  0.03462  0.24809  1.0000
  C   C116      1.0  0.80340  0.97448  0.30512  1.0000
  C   C117      1.0  0.78782  0.96202  0.30877  1.0000
  H   H77       1.0  0.77371  0.96426  0.27855  1.0000
  C   C118      1.0  0.87509  0.00558  0.34118  1.0000
  C   C119      1.0  0.87522  0.99101  0.28839  1.0000
  C   C120      1.0  0.85781  0.98018  0.29100  1.0000
  H   H78       1.0  0.85812  0.96986  0.25146  1.0000
  N   N39       1.0  0.79885  0.98883  0.26219  1.0000
  H   H79       1.0  0.78525  0.99069  0.23472  1.0000
  H   H80       1.0  0.80911  0.99757  0.25583  1.0000
  N   N40       1.0  0.89232  0.98779  0.23043  1.0000
  O   O39       1.0  0.88676  0.98769  0.14933  1.0000
  O   O40       1.0  0.90084  0.97426  0.24837  1.0000
  C   C121      1.0  0.23857  0.12061  0.34205  1.0000
  C   C122      1.0  0.21966  0.12701  0.30576  1.0000
  C   C123      1.0  0.21613  0.14423  0.30576  1.0000
  C   C124      1.0  0.23081  0.15545  0.34149  1.0000
  C   C125      1.0  0.22630  0.17268  0.33667  1.0000
  C   C126      1.0  0.23748  0.18364  0.27946  1.0000
  C   C127      1.0  0.23285  0.20067  0.28330  1.0000
  H   H81       1.0  0.24095  0.20853  0.24212  1.0000
  H   H82       1.0  0.20263  0.14864  0.27750  1.0000
  N   N41       1.0  0.25236  0.17839  0.22055  1.0000
  H   H83       1.0  0.25564  0.16680  0.21307  1.0000
  H   H84       1.0  0.25969  0.18605  0.18139  1.0000
  N   N42       1.0  0.20479  0.11633  0.26611  1.0000
  O   O41       1.0  0.18719  0.11767  0.30301  1.0000
  O   O42       1.0  0.20274  0.11910  0.18343  1.0000
  C   C128      1.0  0.77052  0.88846  0.34289  1.0000
  C   C129      1.0  0.78940  0.88210  0.30615  1.0000
  C   C130      1.0  0.79298  0.86488  0.30595  1.0000
  C   C131      1.0  0.77837  0.85363  0.34192  1.0000
  C   C132      1.0  0.78292  0.83642  0.33687  1.0000
  C   C133      1.0  0.77175  0.82548  0.27950  1.0000
  C   C134      1.0  0.77637  0.80844  0.28326  1.0000
  H   H85       1.0  0.76830  0.80059  0.24194  1.0000
  H   H86       1.0  0.80647  0.86050  0.27739  1.0000
  N   N43       1.0  0.75688  0.83074  0.22059  1.0000
  H   H87       1.0  0.75360  0.84234  0.21323  1.0000
  H   H88       1.0  0.74956  0.82309  0.18134  1.0000
  N   N44       1.0  0.80419  0.89282  0.26625  1.0000
  O   O43       1.0  0.82183  0.89151  0.30277  1.0000
  O   O44       1.0  0.80616  0.89006  0.18350  1.0000
  C   C135      1.0  0.25955  0.64919  0.30536  1.0000
  C   C136      1.0  0.25603  0.63198  0.30673  1.0000
  H   H89       1.0  0.24246  0.62764  0.27880  1.0000
  C   C137      1.0  0.29207  0.70716  0.34505  1.0000
  C   C138      1.0  0.30346  0.69612  0.28966  1.0000
  C   C139      1.0  0.29865  0.67911  0.29181  1.0000
  H   H90       1.0  0.30664  0.67135  0.24970  1.0000
  N   N45       1.0  0.24484  0.65907  0.26688  1.0000
  H   H91       1.0  0.23215  0.65454  0.24064  1.0000
  H   H92       1.0  0.24677  0.67088  0.26163  1.0000
  N   N46       1.0  0.31874  0.70229  0.22948  1.0000
  O   O45       1.0  0.31395  0.69948  0.14892  1.0000
  O   O46       1.0  0.33646  0.69623  0.24496  1.0000
  C   C140      1.0  0.74956  0.35984  0.30450  1.0000
  C   C141      1.0  0.75312  0.37704  0.30565  1.0000
  H   H93       1.0  0.76667  0.38135  0.27738  1.0000
  C   C142      1.0  0.71704  0.30194  0.34502  1.0000
  C   C143      1.0  0.70566  0.31297  0.28947  1.0000
  C   C144      1.0  0.71046  0.32998  0.29155  1.0000
  H   H94       1.0  0.70250  0.33773  0.24929  1.0000
  N   N47       1.0  0.76419  0.34993  0.26587  1.0000
  H   H95       1.0  0.77687  0.35442  0.23935  1.0000
  H   H96       1.0  0.76223  0.33811  0.26082  1.0000
  N   N48       1.0  0.69042  0.30677  0.22917  1.0000
  O   O47       1.0  0.69525  0.30956  0.14864  1.0000
  O   O48       1.0  0.67269  0.31283  0.24440  1.0000
  C   C145      1.0  0.33761  0.31080  0.32664  1.0000
  C   C146      1.0  0.33489  0.29540  0.28254  1.0000
  C   C147      1.0  0.31535  0.28729  0.28679  1.0000
  C   C148      1.0  0.29821  0.29401  0.33390  1.0000
  C   C149      1.0  0.27952  0.28440  0.33802  1.0000
  C   C150      1.0  0.26187  0.28740  0.28208  1.0000
  C   C151      1.0  0.24451  0.27659  0.28760  1.0000
  H   H97       1.0  0.23195  0.27860  0.24622  1.0000
  H   H98       1.0  0.31377  0.27614  0.25528  1.0000
  N   N49       1.0  0.26120  0.30006  0.22226  1.0000
  H   H99       1.0  0.27282  0.30766  0.21508  1.0000
  H   H100      1.0  0.24907  0.30185  0.18397  1.0000
  N   N50       1.0  0.35150  0.28821  0.23294  1.0000
  O   O49       1.0  0.35672  0.27444  0.26427  1.0000
  O   O50       1.0  0.34700  0.28658  0.15112  1.0000
  C   C152      1.0  0.67146  0.69845  0.32602  1.0000
  C   C153      1.0  0.67419  0.71389  0.28231  1.0000
  C   C154      1.0  0.69374  0.72197  0.28667  1.0000
  C   C155      1.0  0.71089  0.71519  0.33349  1.0000
  C   C156      1.0  0.72959  0.72477  0.33773  1.0000
  C   C157      1.0  0.74726  0.72175  0.28191  1.0000
  C   C158      1.0  0.76465  0.73253  0.28759  1.0000
  H   H101      1.0  0.77721  0.73051  0.24618  1.0000
  H   H102      1.0  0.69534  0.73314  0.25543  1.0000
  N   N51       1.0  0.74792  0.70910  0.22203  1.0000
  H   H103      1.0  0.73628  0.70152  0.21471  1.0000
  H   H104      1.0  0.76006  0.70729  0.18382  1.0000
  N   N52       1.0  0.65758  0.72114  0.23299  1.0000
  O   O51       1.0  0.65239  0.73489  0.26473  1.0000
  O   O52       1.0  0.66206  0.72284  0.15120  1.0000
  C   C159      1.0  0.20863  0.80961  0.30873  1.0000
  C   C160      1.0  0.18903  0.81776  0.31389  1.0000
  H   H105      1.0  0.18723  0.82873  0.28087  1.0000
  C   C161      1.0  0.26478  0.76266  0.34029  1.0000
  C   C162      1.0  0.24713  0.75980  0.28449  1.0000
  C   C163      1.0  0.22989  0.77070  0.28845  1.0000
  H   H106      1.0  0.21723  0.76845  0.24798  1.0000
  N   N53       1.0  0.22445  0.81680  0.26180  1.0000
  H   H107      1.0  0.22263  0.82742  0.23272  1.0000
  H   H108      1.0  0.23806  0.81159  0.25546  1.0000
  N   N54       1.0  0.24719  0.74642  0.22333  1.0000
  O   O53       1.0  0.24599  0.75125  0.14317  1.0000
  O   O54       1.0  0.23244  0.73660  0.23859  1.0000
  C   C164      1.0  0.80059  0.19956  0.30950  1.0000
  C   C165      1.0  0.82021  0.19143  0.31483  1.0000
  H   H109      1.0  0.82202  0.18044  0.28204  1.0000
  C   C166      1.0  0.74437  0.24646  0.34033  1.0000
  C   C167      1.0  0.76203  0.24935  0.28462  1.0000
  C   C168      1.0  0.77928  0.23847  0.28869  1.0000
  H   H110      1.0  0.79195  0.24073  0.24830  1.0000
  N   N55       1.0  0.78478  0.19232  0.26276  1.0000
  H   H111      1.0  0.78662  0.18168  0.23392  1.0000
  H   H112      1.0  0.77117  0.19751  0.25628  1.0000
  N   N56       1.0  0.76196  0.26272  0.22349  1.0000
  O   O55       1.0  0.76320  0.25791  0.14333  1.0000
  O   O56       1.0  0.77669  0.27256  0.23887  1.0000
  C   C169      1.0  0.41161  0.30342  0.34864  1.0000
  C   C170      1.0  0.43180  0.30679  0.31319  1.0000
  C   C171      1.0  0.44719  0.29423  0.31266  1.0000
  C   C172      1.0  0.44316  0.27834  0.34713  1.0000
  C   C173      1.0  0.45916  0.26613  0.34109  1.0000
  C   C174      1.0  0.45739  0.25203  0.28472  1.0000
  C   C175      1.0  0.47315  0.23982  0.28905  1.0000
  H   H113      1.0  0.47188  0.22968  0.24839  1.0000
  H   H114      1.0  0.46148  0.29670  0.28454  1.0000
  N   N57       1.0  0.44121  0.24986  0.22633  1.0000
  H   H115      1.0  0.43040  0.25814  0.21839  1.0000
  H   H116      1.0  0.44040  0.24021  0.18776  1.0000
  N   N58       1.0  0.43622  0.32237  0.27517  1.0000
  O   O57       1.0  0.45140  0.32915  0.31403  1.0000
  O   O58       1.0  0.44030  0.32129  0.19269  1.0000
  C   C176      1.0  0.59746  0.70584  0.34788  1.0000
  C   C177      1.0  0.57726  0.70249  0.31249  1.0000
  C   C178      1.0  0.56189  0.71507  0.31205  1.0000
  C   C179      1.0  0.56594  0.73094  0.34662  1.0000
  C   C180      1.0  0.54996  0.74318  0.34064  1.0000
  C   C181      1.0  0.55175  0.75727  0.28425  1.0000
  C   C182      1.0  0.53599  0.76949  0.28850  1.0000
  H   H117      1.0  0.53727  0.77961  0.24774  1.0000
  H   H118      1.0  0.54759  0.71261  0.28397  1.0000
  N   N59       1.0  0.56793  0.75943  0.22588  1.0000
  H   H119      1.0  0.57874  0.75115  0.21799  1.0000
  H   H120      1.0  0.56876  0.76907  0.18730  1.0000
  N   N60       1.0  0.57281  0.68692  0.27440  1.0000
  O   O59       1.0  0.55763  0.68015  0.31332  1.0000
  O   O60       1.0  0.56870  0.68802  0.19194  1.0000
  C   C183      1.0  0.08586  0.77500  0.29899  1.0000
  C   C184      1.0  0.10119  0.78754  0.29990  1.0000
  H   H121      1.0  0.11548  0.78496  0.27210  1.0000
  C   C185      1.0  0.01827  0.74137  0.33967  1.0000
  C   C186      1.0  0.01635  0.75567  0.28540  1.0000
  C   C187      1.0  0.03227  0.76776  0.28786  1.0000
  H   H122      1.0  0.03101  0.77777  0.24629  1.0000
  N   N61       1.0  0.09076  0.76027  0.26066  1.0000
  H   H123      1.0  0.10444  0.75831  0.23403  1.0000
  H   H124      1.0  0.08060  0.75144  0.25538  1.0000
  N   N62       1.0  0.99913  0.75736  0.22608  1.0000
  O   O61       1.0  0.00489  0.75794  0.14529  1.0000
  O   O62       1.0  0.98861  0.77002  0.24356  1.0000
  C   C188      1.0  0.92334  0.23426  0.29950  1.0000
  C   C189      1.0  0.90803  0.22170  0.30053  1.0000
  H   H125      1.0  0.89373  0.22427  0.27272  1.0000
  C   C190      1.0  0.99091  0.26795  0.34029  1.0000
  C   C191      1.0  0.99283  0.25366  0.28595  1.0000
  C   C192      1.0  0.97692  0.24156  0.28836  1.0000
  H   H126      1.0  0.97819  0.23156  0.24676  1.0000
  N   N63       1.0  0.91841  0.24897  0.26107  1.0000
  H   H127      1.0  0.90474  0.25092  0.23445  1.0000
  H   H128      1.0  0.92856  0.25781  0.25574  1.0000
  N   N64       1.0  0.01005  0.25198  0.22664  1.0000
  O   O63       1.0  0.00430  0.25141  0.14584  1.0000
  O   O64       1.0  0.02058  0.23932  0.24407  1.0000
  C   C193      1.0  0.06380  0.28342  0.34232  1.0000
  C   C194      1.0  0.08056  0.29337  0.31075  1.0000
  C   C195      1.0  0.10122  0.28701  0.30984  1.0000
  C   C196      1.0  0.10595  0.27098  0.34046  1.0000
  C   C197      1.0  0.12711  0.26530  0.33539  1.0000
  C   C198      1.0  0.13349  0.25235  0.27693  1.0000
  C   C199      1.0  0.15440  0.24663  0.28164  1.0000
  H   H129      1.0  0.15894  0.23730  0.23953  1.0000
  H   H130      1.0  0.11301  0.29423  0.28492  1.0000
  N   N65       1.0  0.12033  0.24532  0.21605  1.0000
  H   H131      1.0  0.10608  0.24918  0.20772  1.0000
  H   H132      1.0  0.12504  0.23660  0.17606  1.0000
  N   N66       1.0  0.07662  0.30941  0.27785  1.0000
  O   O65       1.0  0.08672  0.32002  0.32142  1.0000
  O   O66       1.0  0.08125  0.31071  0.19600  1.0000
  C   C200      1.0  0.94541  0.72580  0.34178  1.0000
  C   C201      1.0  0.92867  0.71582  0.31027  1.0000
  C   C202      1.0  0.90799  0.72215  0.30953  1.0000
  C   C203      1.0  0.90323  0.73816  0.34028  1.0000
  C   C204      1.0  0.88207  0.74382  0.33521  1.0000
  C   C205      1.0  0.87567  0.75676  0.27673  1.0000
  C   C206      1.0  0.85476  0.76248  0.28149  1.0000
  H   H133      1.0  0.85020  0.77179  0.23933  1.0000
  H   H134      1.0  0.89621  0.71491  0.28464  1.0000
  N   N67       1.0  0.88882  0.76380  0.21583  1.0000
  H   H135      1.0  0.90307  0.75994  0.20749  1.0000
  H   H136      1.0  0.88410  0.77252  0.17585  1.0000
  N   N68       1.0  0.93265  0.69980  0.27716  1.0000
  O   O67       1.0  0.92265  0.68915  0.32084  1.0000
  O   O68       1.0  0.92795  0.69851  0.19537  1.0000
  C   C207      1.0  0.41969  0.76109  0.30989  1.0000
  C   C208      1.0  0.44030  0.76745  0.31069  1.0000
  H   H137      1.0  0.45196  0.76015  0.28542  1.0000
  C   C209      1.0  0.33979  0.75365  0.34470  1.0000
  C   C210      1.0  0.34613  0.76682  0.28821  1.0000
  C   C211      1.0  0.36712  0.77237  0.29109  1.0000
  H   H138      1.0  0.37161  0.78155  0.24800  1.0000
  N   N69       1.0  0.41646  0.74579  0.27517  1.0000
  H   H139      1.0  0.42794  0.73927  0.25120  1.0000
  H   H140      1.0  0.40255  0.74107  0.26987  1.0000
  N   N70       1.0  0.33174  0.77373  0.22637  1.0000
  O   O69       1.0  0.33754  0.77170  0.14635  1.0000
  O   O70       1.0  0.32913  0.78884  0.24029  1.0000
  C   C212      1.0  0.58946  0.24808  0.31009  1.0000
  C   C213      1.0  0.56883  0.24175  0.31105  1.0000
  H   H141      1.0  0.55719  0.24906  0.28579  1.0000
  C   C214      1.0  0.66935  0.25545  0.34483  1.0000
  C   C215      1.0  0.66300  0.24228  0.28834  1.0000
  C   C216      1.0  0.64200  0.23674  0.29124  1.0000
  H   H142      1.0  0.63750  0.22757  0.24813  1.0000
  N   N71       1.0  0.59272  0.26337  0.27526  1.0000
  H   H143      1.0  0.58125  0.26989  0.25131  1.0000
  H   H144      1.0  0.60664  0.26805  0.26986  1.0000
  N   N72       1.0  0.67738  0.23538  0.22645  1.0000
  O   O71       1.0  0.67156  0.23742  0.14646  1.0000
  O   O72       1.0  0.67998  0.22027  0.24032  1.0000
  C   C217      1.0  0.42643  0.06902  0.34202  1.0000
  N   N73       1.0  0.43862  0.05523  0.33967  1.0000
  C   C218      1.0  0.46004  0.05583  0.33840  1.0000
  N   N74       1.0  0.46884  0.07112  0.33976  1.0000
  C   C219      1.0  0.45748  0.08526  0.34107  1.0000
  N   N75       1.0  0.43633  0.08382  0.34217  1.0000
  C   C220      1.0  0.58240  0.93989  0.34621  1.0000
  N   N76       1.0  0.57061  0.95388  0.34442  1.0000
  C   C221      1.0  0.54926  0.95344  0.34093  1.0000
  N   N77       1.0  0.53984  0.93840  0.33899  1.0000
  C   C222      1.0  0.55095  0.92414  0.34111  1.0000
  N   N78       1.0  0.57214  0.92522  0.34443  1.0000
  C   C223      1.0  0.08273  0.56902  0.34296  1.0000
  N   N79       1.0  0.07053  0.55523  0.34532  1.0000
  C   C224      1.0  0.04912  0.55583  0.34657  1.0000
  N   N80       1.0  0.04031  0.57112  0.34523  1.0000
  C   C225      1.0  0.05168  0.58526  0.34394  1.0000
  N   N81       1.0  0.07283  0.58382  0.34283  1.0000
  C   C226      1.0  0.92675  0.43989  0.33875  1.0000
  N   N82       1.0  0.93855  0.45388  0.34056  1.0000
  C   C227      1.0  0.95990  0.45344  0.34404  1.0000
  N   N83       1.0  0.96931  0.43840  0.34599  1.0000
  C   C228      1.0  0.95820  0.42414  0.34386  1.0000
  N   N84       1.0  0.93701  0.42522  0.34053  1.0000
  C   C229      1.0  0.40454  0.46433  0.34048  1.0000
  N   N85       1.0  0.38880  0.47563  0.34102  1.0000
  C   C230      1.0  0.39250  0.49216  0.34229  1.0000
  N   N86       1.0  0.41286  0.49721  0.34296  1.0000
  C   C231      1.0  0.42917  0.48641  0.34350  1.0000
  N   N87       1.0  0.42454  0.47007  0.34208  1.0000
  C   C232      1.0  0.60489  0.54481  0.33719  1.0000
  N   N88       1.0  0.62064  0.53355  0.33998  1.0000
  C   C233      1.0  0.61701  0.51704  0.34312  1.0000
  N   N89       1.0  0.59664  0.51201  0.34347  1.0000
  C   C234      1.0  0.58010  0.52263  0.34076  1.0000
  N   N90       1.0  0.58494  0.53896  0.33778  1.0000
  C   C235      1.0  0.10462  0.96433  0.34450  1.0000
  N   N91       1.0  0.12035  0.97563  0.34395  1.0000
  C   C236      1.0  0.11666  0.99216  0.34268  1.0000
  N   N92       1.0  0.09630  0.99721  0.34200  1.0000
  C   C237      1.0  0.07998  0.98641  0.34148  1.0000
  N   N93       1.0  0.08462  0.97007  0.34289  1.0000
  C   C238      1.0  0.90426  0.04481  0.34780  1.0000
  N   N94       1.0  0.88851  0.03355  0.34500  1.0000
  C   C239      1.0  0.89215  0.01704  0.34186  1.0000
  N   N95       1.0  0.91251  0.01201  0.34151  1.0000
  C   C240      1.0  0.92906  0.02263  0.34422  1.0000
  N   N96       1.0  0.92421  0.03896  0.34720  1.0000
  C   C241      1.0  0.27020  0.08246  0.33836  1.0000
  N   N97       1.0  0.25462  0.07096  0.34194  1.0000
  C   C242      1.0  0.23384  0.07494  0.34591  1.0000
  N   N98       1.0  0.22901  0.09128  0.34512  1.0000
  C   C243      1.0  0.24365  0.10341  0.34182  1.0000
  N   N99       1.0  0.26394  0.09846  0.33887  1.0000
  C   C244      1.0  0.73871  0.92651  0.34044  1.0000
  N   N100      1.0  0.75423  0.93807  0.34346  1.0000
  C   C245      1.0  0.77505  0.93414  0.34663  1.0000
  N   N101      1.0  0.77995  0.91781  0.34564  1.0000
  C   C246      1.0  0.76537  0.90564  0.34288  1.0000
  N   N102      1.0  0.74506  0.91053  0.34070  1.0000
  C   C247      1.0  0.23896  0.58246  0.34661  1.0000
  N   N103      1.0  0.25453  0.57095  0.34305  1.0000
  C   C248      1.0  0.27532  0.57494  0.33909  1.0000
  N   N104      1.0  0.28014  0.59128  0.33986  1.0000
  C   C249      1.0  0.26550  0.60341  0.34315  1.0000
  N   N105      1.0  0.24522  0.59846  0.34611  1.0000
  C   C250      1.0  0.77045  0.42651  0.34453  1.0000
  N   N106      1.0  0.75492  0.43806  0.34152  1.0000
  C   C251      1.0  0.73411  0.43414  0.33834  1.0000
  N   N107      1.0  0.72920  0.41781  0.33933  1.0000
  C   C252      1.0  0.74379  0.40564  0.34209  1.0000
  N   N108      1.0  0.76409  0.41053  0.34428  1.0000
  C   C253      1.0  0.35762  0.31862  0.33265  1.0000
  N   N109      1.0  0.36069  0.33522  0.33683  1.0000
  C   C254      1.0  0.38017  0.34211  0.34404  1.0000
  N   N110      1.0  0.39677  0.33155  0.34723  1.0000
  C   C255      1.0  0.39464  0.31489  0.34523  1.0000
  N   N111      1.0  0.37488  0.30903  0.33815  1.0000
  C   C256      1.0  0.65145  0.69063  0.33178  1.0000
  N   N112      1.0  0.64837  0.67403  0.33536  1.0000
  C   C257      1.0  0.62889  0.66713  0.34224  1.0000
  N   N113      1.0  0.61228  0.67769  0.34573  1.0000
  C   C258      1.0  0.61442  0.69435  0.34430  1.0000
  N   N114      1.0  0.63418  0.70021  0.33749  1.0000
  C   C259      1.0  0.15153  0.81862  0.35227  1.0000
  N   N115      1.0  0.14846  0.83522  0.34812  1.0000
  C   C260      1.0  0.12899  0.84211  0.34093  1.0000
  N   N116      1.0  0.11238  0.83155  0.33774  1.0000
  C   C261      1.0  0.11451  0.81489  0.33973  1.0000
  N   N117      1.0  0.13427  0.80903  0.34679  1.0000
  C   C262      1.0  0.85771  0.19063  0.35316  1.0000
  N   N118      1.0  0.86078  0.17403  0.34960  1.0000
  C   C263      1.0  0.88026  0.16713  0.34273  1.0000
  N   N119      1.0  0.89687  0.17769  0.33925  1.0000
  C   C264      1.0  0.89474  0.19435  0.34069  1.0000
  N   N120      1.0  0.87497  0.20021  0.34747  1.0000
  C   C265      1.0  0.22693  0.25177  0.34327  1.0000
  N   N121      1.0  0.20698  0.25757  0.34224  1.0000
  C   C266      1.0  0.19014  0.24733  0.34095  1.0000
  N   N122      1.0  0.19373  0.23081  0.33994  1.0000
  C   C267      1.0  0.21343  0.22445  0.34061  1.0000
  N   N123      1.0  0.22975  0.23518  0.34198  1.0000
  C   C268      1.0  0.78224  0.75735  0.34323  1.0000
  N   N124      1.0  0.80219  0.75153  0.34217  1.0000
  C   C269      1.0  0.81903  0.76177  0.34087  1.0000
  N   N125      1.0  0.81545  0.77829  0.33989  1.0000
  C   C270      1.0  0.79576  0.78465  0.34058  1.0000
  N   N126      1.0  0.77943  0.77393  0.34196  1.0000
  C   C271      1.0  0.28222  0.75177  0.34173  1.0000
  N   N127      1.0  0.30217  0.75757  0.34275  1.0000
  C   C272      1.0  0.31901  0.74733  0.34404  1.0000
  N   N128      1.0  0.31542  0.73081  0.34504  1.0000
  C   C273      1.0  0.29573  0.72445  0.34438  1.0000
  N   N129      1.0  0.27940  0.73518  0.34301  1.0000
  C   C274      1.0  0.72691  0.25735  0.34175  1.0000
  N   N130      1.0  0.70696  0.25153  0.34280  1.0000
  C   C275      1.0  0.69012  0.26177  0.34411  1.0000
  N   N131      1.0  0.69370  0.27829  0.34508  1.0000
  C   C276      1.0  0.71339  0.28465  0.34439  1.0000
  N   N132      1.0  0.72973  0.27393  0.34302  1.0000
  C   C277      1.0  0.01528  0.30917  0.34280  1.0000
  N   N133      1.0  0.03586  0.30460  0.34246  1.0000
  C   C278      1.0  0.04227  0.28857  0.34166  1.0000
  N   N134      1.0  0.02697  0.27694  0.34041  1.0000
  C   C279      1.0  0.00630  0.28060  0.34064  1.0000
  N   N135      1.0  0.00095  0.29675  0.34248  1.0000
  C   C280      1.0  0.99398  0.70014  0.34105  1.0000
  N   N136      1.0  0.97338  0.70466  0.34113  1.0000
  C   C281      1.0  0.96695  0.72069  0.34090  1.0000
  N   N137      1.0  0.98223  0.73234  0.33986  1.0000
  C   C282      1.0  0.00291  0.72871  0.33979  1.0000
  N   N138      1.0  0.00830  0.71256  0.34101  1.0000
  C   C283      1.0  0.49388  0.80917  0.34219  1.0000
  N   N139      1.0  0.47329  0.80460  0.34253  1.0000
  C   C284      1.0  0.46688  0.78857  0.34332  1.0000
  N   N140      1.0  0.48219  0.77694  0.34457  1.0000
  C   C285      1.0  0.50286  0.78060  0.34434  1.0000
  N   N141      1.0  0.50821  0.79675  0.34250  1.0000
  C   C286      1.0  0.51518  0.20014  0.34395  1.0000
  N   N142      1.0  0.53577  0.20466  0.34387  1.0000
  C   C287      1.0  0.54221  0.22069  0.34409  1.0000
  N   N143      1.0  0.52693  0.23234  0.34514  1.0000
  C   C288      1.0  0.50625  0.22871  0.34520  1.0000
  N   N144      1.0  0.50086  0.21256  0.34399  1.0000
  C   C289      1.0  0.47572  0.01098  0.36647  1.0000
  C   C290      1.0  0.46410  0.02587  0.36398  1.0000
  H   H145      1.0  0.44884  0.02556  0.38480  1.0000
  C   C291      1.0  0.53679  0.96807  0.33982  1.0000
  C   C292      1.0  0.54061  0.98156  0.39816  1.0000
  C   C293      1.0  0.52720  0.99547  0.39576  1.0000
  H   H146      1.0  0.52997  0.00491  0.43986  1.0000
  N   N145      1.0  0.46608  0.99712  0.39691  1.0000
  H   H147      1.0  0.45156  0.99727  0.41650  1.0000
  H   H148      1.0  0.47350  0.98676  0.40327  1.0000
  N   N146      1.0  0.55718  0.98063  0.46118  1.0000
  O   O73       1.0  0.55056  0.98119  0.54075  1.0000
  O   O74       1.0  0.57020  0.99201  0.44975  1.0000
  C   C294      1.0  0.03635  0.54116  0.34798  1.0000
  C   C295      1.0  0.01490  0.54107  0.37441  1.0000
  C   C296      1.0  0.00329  0.52620  0.37338  1.0000
  C   C297      1.0  0.01211  0.51106  0.34627  1.0000
  C   C298      1.0  0.99916  0.49656  0.34888  1.0000
  C   C299      1.0  0.00273  0.48323  0.40926  1.0000
  C   C300      1.0  0.98958  0.46918  0.40482  1.0000
  H   H149      1.0  0.99230  0.45964  0.44835  1.0000
  H   H150      1.0  0.98801  0.52647  0.39410  1.0000
  N   N147      1.0  0.01817  0.48352  0.47235  1.0000
  H   H151      1.0  0.02707  0.49307  0.48088  1.0000
  H   H152      1.0  0.02023  0.47440  0.51381  1.0000
  N   N148      1.0  0.00505  0.55571  0.40418  1.0000
  O   O75       1.0  0.98971  0.55948  0.35547  1.0000
  O   O76       1.0  0.99903  0.55466  0.48448  1.0000
  C   C301      1.0  0.29227  0.07875  0.33542  1.0000
  C   C302      1.0  0.30111  0.06372  0.36655  1.0000
  C   C303      1.0  0.32317  0.06155  0.36683  1.0000
  C   C304      1.0  0.33704  0.07391  0.33654  1.0000
  C   C305      1.0  0.35921  0.07156  0.34603  1.0000
  C   C306      1.0  0.37148  0.08111  0.40664  1.0000
  C   C307      1.0  0.39356  0.07965  0.40397  1.0000
  H   H153      1.0  0.40227  0.08679  0.44677  1.0000
  H   H154      1.0  0.32920  0.05086  0.39248  1.0000
  N   N149      1.0  0.36283  0.09172  0.46705  1.0000
  H   H155      1.0  0.34779  0.09275  0.47414  1.0000
  H   H156      1.0  0.37146  0.09806  0.50836  1.0000
  N   N150      1.0  0.28791  0.05119  0.40047  1.0000
  O   O77       1.0  0.28963  0.03815  0.35565  1.0000
  O   O78       1.0  0.29164  0.04810  0.48174  1.0000
  C   C308      1.0  0.71660  0.93010  0.33840  1.0000
  C   C309      1.0  0.70771  0.94508  0.36994  1.0000
  C   C310      1.0  0.68563  0.94713  0.37109  1.0000
  C   C311      1.0  0.67179  0.93471  0.34121  1.0000
  C   C312      1.0  0.64960  0.93703  0.35064  1.0000
  C   C313      1.0  0.63724  0.92732  0.41022  1.0000
  C   C314      1.0  0.61516  0.92883  0.40736  1.0000
  H   H157      1.0  0.60638  0.92160  0.44938  1.0000
  H   H158      1.0  0.67956  0.95780  0.39687  1.0000
  N   N151      1.0  0.64581  0.91654  0.46990  1.0000
  H   H159      1.0  0.66085  0.91548  0.47718  1.0000
  H   H160      1.0  0.63713  0.91011  0.51057  1.0000
  N   N152      1.0  0.72087  0.95768  0.40326  1.0000
  O   O79       1.0  0.71896  0.97070  0.35845  1.0000
  O   O80       1.0  0.71730  0.96077  0.48467  1.0000
  C   C315      1.0  0.18077  0.58872  0.38342  1.0000
  C   C316      1.0  0.20277  0.59081  0.38255  1.0000
  H   H161      1.0  0.20863  0.60160  0.40763  1.0000
  C   C317      1.0  0.10510  0.56874  0.33998  1.0000
  C   C318      1.0  0.11745  0.55872  0.39733  1.0000
  C   C319      1.0  0.13958  0.56031  0.39632  1.0000
  H   H162      1.0  0.14819  0.55351  0.44099  1.0000
  N   N153      1.0  0.16873  0.60103  0.41795  1.0000
  H   H163      1.0  0.17495  0.61102  0.44208  1.0000
  H   H164      1.0  0.15365  0.60000  0.42349  1.0000
  N   N154      1.0  0.10742  0.54800  0.45880  1.0000
  O   O81       1.0  0.11140  0.55182  0.53894  1.0000
  O   O82       1.0  0.11279  0.53332  0.44605  1.0000
  C   C320      1.0  0.82866  0.41996  0.37929  1.0000
  C   C321      1.0  0.80664  0.41798  0.37916  1.0000
  H   H165      1.0  0.80074  0.40723  0.40464  1.0000
  C   C322      1.0  0.90439  0.43998  0.33556  1.0000
  C   C323      1.0  0.89195  0.45011  0.39202  1.0000
  C   C324      1.0  0.86983  0.44846  0.39089  1.0000
  H   H166      1.0  0.86117  0.45535  0.43494  1.0000
  N   N155      1.0  0.84065  0.40763  0.41387  1.0000
  H   H167      1.0  0.83439  0.39769  0.43844  1.0000
  H   H168      1.0  0.85574  0.40860  0.41910  1.0000
  N   N156      1.0  0.90186  0.46102  0.45283  1.0000
  O   O83       1.0  0.89786  0.45739  0.53322  1.0000
  O   O84       1.0  0.89644  0.47565  0.43890  1.0000
  C   C325      1.0  0.47933  0.16358  0.37886  1.0000
  C   C326      1.0  0.48785  0.17966  0.37777  1.0000
  H   H169      1.0  0.47891  0.18898  0.40367  1.0000
  C   C327      1.0  0.46695  0.10115  0.33959  1.0000
  C   C328      1.0  0.48427  0.10537  0.39465  1.0000
  C   C329      1.0  0.49218  0.12166  0.39287  1.0000
  H   H170      1.0  0.50421  0.12466  0.43539  1.0000
  N   N157      1.0  0.45992  0.16135  0.41468  1.0000
  H   H171      1.0  0.45198  0.17051  0.43935  1.0000
  H   H172      1.0  0.45367  0.15051  0.42039  1.0000
  N   N158      1.0  0.49270  0.09352  0.45436  1.0000
  O   O85       1.0  0.49060  0.09784  0.53503  1.0000
  O   O86       1.0  0.51177  0.09106  0.43916  1.0000
  C   C330      1.0  0.52987  0.84582  0.37261  1.0000
  C   C331      1.0  0.52144  0.82971  0.37212  1.0000
  H   H173      1.0  0.53069  0.82039  0.39580  1.0000
  C   C332      1.0  0.54119  0.90840  0.33898  1.0000
  C   C333      1.0  0.52565  0.90341  0.40200  1.0000
  C   C334      1.0  0.51788  0.88714  0.39918  1.0000
  H   H174      1.0  0.50716  0.88355  0.44663  1.0000
  N   N159      1.0  0.54966  0.84807  0.40428  1.0000
  H   H175      1.0  0.55797  0.83889  0.42638  1.0000
  H   H176      1.0  0.55598  0.85891  0.40838  1.0000
  N   N160      1.0  0.51784  0.91326  0.47295  1.0000
  O   O87       1.0  0.53207  0.91844  0.52393  1.0000
  O   O88       1.0  0.50712  0.92511  0.44473  1.0000
  C   C335      1.0  0.00101  0.68332  0.34042  1.0000
  C   C336      1.0  0.98882  0.66992  0.37270  1.0000
  C   C337      1.0  0.99735  0.65380  0.37337  1.0000
  C   C338      1.0  0.01774  0.65040  0.34174  1.0000
  C   C339      1.0  0.02562  0.63393  0.34834  1.0000
  C   C340      1.0  0.04250  0.62961  0.40626  1.0000
  C   C341      1.0  0.05064  0.61341  0.40245  1.0000
  H   H177      1.0  0.06290  0.61041  0.44375  1.0000
  H   H178      1.0  0.98852  0.64440  0.39919  1.0000
  N   N161      1.0  0.05113  0.64042  0.46560  1.0000
  H   H179      1.0  0.04563  0.65147  0.47350  1.0000
  H   H180      1.0  0.06252  0.63719  0.50522  1.0000
  N   N162      1.0  0.96844  0.67267  0.40678  1.0000
  O   O89       1.0  0.95503  0.66454  0.36391  1.0000
  O   O90       1.0  0.96713  0.66900  0.48871  1.0000
  C   C342      1.0  0.00829  0.32602  0.34282  1.0000
  C   C343      1.0  0.02079  0.33944  0.37268  1.0000
  C   C344      1.0  0.01241  0.35561  0.37331  1.0000
  C   C345      1.0  0.99183  0.35902  0.34438  1.0000
  C   C346      1.0  0.98423  0.37556  0.34996  1.0000
  C   C347      1.0  0.96901  0.38054  0.41439  1.0000
  C   C348      1.0  0.96102  0.39678  0.41030  1.0000
  H   H181      1.0  0.94990  0.40027  0.45617  1.0000
  H   H182      1.0  0.02153  0.36504  0.39683  1.0000
  N   N163      1.0  0.96180  0.37028  0.47983  1.0000
  H   H183      1.0  0.96717  0.35918  0.48711  1.0000
  H   H184      1.0  0.95149  0.37394  0.52364  1.0000
  N   N164      1.0  0.04137  0.33668  0.40440  1.0000
  O   O91       1.0  0.05454  0.34473  0.35969  1.0000
  O   O92       1.0  0.04320  0.34044  0.48601  1.0000
  C   C349      1.0  0.52102  0.52427  0.36895  1.0000
  C   C350      1.0  0.54257  0.52846  0.36683  1.0000
  H   H185      1.0  0.54672  0.54004  0.38711  1.0000
  C   C351      1.0  0.45046  0.49184  0.34436  1.0000
  C   C352      1.0  0.46580  0.48461  0.40101  1.0000
  C   C353      1.0  0.48674  0.49035  0.39798  1.0000
  H   H186      1.0  0.49743  0.48522  0.44100  1.0000
  N   N165      1.0  0.50714  0.53574  0.39891  1.0000
  H   H187      1.0  0.51173  0.54658  0.41844  1.0000
  H   H188      1.0  0.49235  0.53331  0.40561  1.0000
  N   N166      1.0  0.45985  0.47218  0.46270  1.0000
  O   O93       1.0  0.46290  0.47653  0.54276  1.0000
  O   O94       1.0  0.46956  0.45899  0.44845  1.0000
  C   C354      1.0  0.95061  0.01728  0.34399  1.0000
  C   C355      1.0  0.95708  0.00114  0.36894  1.0000
  C   C356      1.0  0.97864  0.99696  0.36885  1.0000
  C   C357      1.0  0.99442  0.00824  0.34362  1.0000
  C   C358      1.0  0.01595  0.00299  0.34622  1.0000
  C   C359      1.0  0.03119  0.00998  0.40495  1.0000
  C   C360      1.0  0.05227  0.00455  0.39947  1.0000
  H   H189      1.0  0.06310  0.00957  0.44225  1.0000
  H   H190      1.0  0.98287  0.98536  0.38877  1.0000
  N   N167      1.0  0.02623  0.02154  0.46773  1.0000
  H   H191      1.0  0.01192  0.02515  0.47730  1.0000
  H   H192      1.0  0.03675  0.02602  0.50818  1.0000
  N   N168      1.0  0.94210  0.98931  0.39619  1.0000
  O   O95       1.0  0.94241  0.97684  0.34621  1.0000
  O   O96       1.0  0.94486  0.98482  0.47621  1.0000
  C   C361      1.0  0.38312  0.35968  0.34628  1.0000
  C   C362      1.0  0.40111  0.36732  0.38443  1.0000
  C   C363      1.0  0.40313  0.38469  0.38285  1.0000
  C   C364      1.0  0.38782  0.39499  0.34398  1.0000
  C   C365      1.0  0.39136  0.41243  0.34475  1.0000
  C   C366      1.0  0.37979  0.42352  0.39976  1.0000
  C   C367      1.0  0.38427  0.44060  0.39491  1.0000
  H   H193      1.0  0.37603  0.44850  0.43526  1.0000
  H   H194      1.0  0.41613  0.38990  0.41146  1.0000
  N   N169      1.0  0.36478  0.41832  0.45818  1.0000
  H   H195      1.0  0.36155  0.40673  0.46612  1.0000
  H   H196      1.0  0.35719  0.42604  0.49605  1.0000
  N   N170      1.0  0.41682  0.35774  0.42660  1.0000
  O   O97       1.0  0.43438  0.35983  0.39038  1.0000
  O   O98       1.0  0.41832  0.36095  0.50904  1.0000
  C   C368      1.0  0.62596  0.64956  0.34386  1.0000
  C   C369      1.0  0.60799  0.64186  0.38178  1.0000
  C   C370      1.0  0.60601  0.62448  0.37974  1.0000
  C   C371      1.0  0.62135  0.61424  0.34054  1.0000
  C   C372      1.0  0.61788  0.59679  0.34112  1.0000
  C   C373      1.0  0.62969  0.58568  0.39515  1.0000
  C   C374      1.0  0.62527  0.56859  0.39019  1.0000
  H   H197      1.0  0.63367  0.56071  0.43002  1.0000
  H   H198      1.0  0.59304  0.61923  0.40830  1.0000
  N   N171      1.0  0.64485  0.59088  0.45283  1.0000
  H   H199      1.0  0.64803  0.60247  0.46098  1.0000
  H   H200      1.0  0.65261  0.58316  0.49004  1.0000
  N   N172      1.0  0.59226  0.65138  0.42414  1.0000
  O   O99       1.0  0.57471  0.64930  0.38778  1.0000
  O   O100      1.0  0.59074  0.64810  0.50649  1.0000
  C   C375      1.0  0.13940  0.88755  0.37948  1.0000
  C   C376      1.0  0.14142  0.87016  0.37671  1.0000
  H   H201      1.0  0.15438  0.86500  0.40573  1.0000
  C   C377      1.0  0.10884  0.94706  0.34543  1.0000
  C   C378      1.0  0.09722  0.93589  0.39929  1.0000
  C   C379      1.0  0.10190  0.91886  0.39621  1.0000
  H   H202      1.0  0.09353  0.91103  0.43652  1.0000
  N   N173      1.0  0.15470  0.89650  0.42023  1.0000
  H   H203      1.0  0.16688  0.89123  0.44681  1.0000
  H   H204      1.0  0.15381  0.90838  0.42607  1.0000
  N   N174      1.0  0.08163  0.94194  0.45844  1.0000
  O   O101      1.0  0.08597  0.93890  0.53923  1.0000
  O   O102      1.0  0.06397  0.93600  0.44066  1.0000
  C   C380      1.0  0.86979  0.12175  0.38286  1.0000
  C   C381      1.0  0.86780  0.13914  0.37953  1.0000
  H   H205      1.0  0.85486  0.14435  0.40848  1.0000
  C   C382      1.0  0.90009  0.06211  0.34918  1.0000
  C   C383      1.0  0.91197  0.07329  0.40195  1.0000
  C   C384      1.0  0.90735  0.09034  0.39888  1.0000
  H   H206      1.0  0.91590  0.09817  0.43842  1.0000
  N   N175      1.0  0.85449  0.11287  0.42409  1.0000
  H   H207      1.0  0.84233  0.11819  0.45063  1.0000
  H   H208      1.0  0.85538  0.10100  0.43048  1.0000
  N   N176      1.0  0.92778  0.06727  0.46001  1.0000
  O   O103      1.0  0.92381  0.07039  0.54105  1.0000
  O   O104      1.0  0.94539  0.07315  0.44066  1.0000
  C   C385      1.0  0.30382  0.53461  0.37907  1.0000
  C   C386      1.0  0.28822  0.54705  0.37604  1.0000
  H   H209      1.0  0.27413  0.54475  0.40640  1.0000
  C   C387      1.0  0.37548  0.50364  0.34239  1.0000
  C   C388      1.0  0.37552  0.51811  0.39594  1.0000
  C   C389      1.0  0.35815  0.52896  0.39322  1.0000
  H   H210      1.0  0.35839  0.53921  0.43329  1.0000
  N   N177      1.0  0.29935  0.52021  0.42158  1.0000
  H   H211      1.0  0.28576  0.51830  0.44917  1.0000
  H   H212      1.0  0.30962  0.51147  0.42742  1.0000
  N   N178      1.0  0.39251  0.52121  0.45473  1.0000
  O   O105      1.0  0.38679  0.52137  0.53563  1.0000
  O   O106      1.0  0.40135  0.53462  0.43690  1.0000
  C   C390      1.0  0.70576  0.47448  0.37986  1.0000
  C   C391      1.0  0.72133  0.46202  0.37621  1.0000
  H   H213      1.0  0.73544  0.46426  0.40643  1.0000
  C   C392      1.0  0.63406  0.50558  0.34381  1.0000
  C   C393      1.0  0.63394  0.49101  0.39659  1.0000
  C   C394      1.0  0.65134  0.48018  0.39398  1.0000
  H   H214      1.0  0.65104  0.46986  0.43351  1.0000
  N   N179      1.0  0.71030  0.48883  0.42279  1.0000
  H   H215      1.0  0.72391  0.49069  0.45026  1.0000
  H   H216      1.0  0.70004  0.49757  0.42915  1.0000
  N   N180      1.0  0.61684  0.48779  0.45454  1.0000
  O   O107      1.0  0.62239  0.48768  0.53565  1.0000
  O   O108      1.0  0.60831  0.47426  0.43661  1.0000
  C   C395      1.0  0.21759  0.06267  0.34888  1.0000
  C   C396      1.0  0.19773  0.06551  0.38947  1.0000
  C   C397      1.0  0.18215  0.05309  0.38744  1.0000
  C   C398      1.0  0.18548  0.03769  0.34596  1.0000
  C   C399      1.0  0.16865  0.02595  0.34678  1.0000
  C   C400      1.0  0.16872  0.01156  0.40146  1.0000
  C   C401      1.0  0.15143  0.00063  0.39718  1.0000
  H   H217      1.0  0.15156  0.99036  0.43717  1.0000
  H   H218      1.0  0.16805  0.05539  0.41779  1.0000
  N   N181      1.0  0.18467  0.00801  0.45894  1.0000
  H   H219      1.0  0.19659  0.01530  0.46630  1.0000
  H   H220      1.0  0.18439  0.99822  0.49655  1.0000
  N   N182      1.0  0.19365  0.08047  0.43512  1.0000
  O   O109      1.0  0.17801  0.08778  0.40304  1.0000
  O   O110      1.0  0.19063  0.07817  0.51771  1.0000
  C   C402      1.0  0.79126  0.94644  0.34905  1.0000
  C   C403      1.0  0.81117  0.94367  0.38934  1.0000
  C   C404      1.0  0.82670  0.95612  0.38679  1.0000
  C   C405      1.0  0.82330  0.97148  0.34497  1.0000
  C   C406      1.0  0.84009  0.98326  0.34541  1.0000
  C   C407      1.0  0.83994  0.99773  0.39940  1.0000
  C   C408      1.0  0.85723  0.00867  0.39506  1.0000
  H   H221      1.0  0.85704  0.01897  0.43475  1.0000
  H   H222      1.0  0.84083  0.95386  0.41699  1.0000
  N   N183      1.0  0.82392  0.00137  0.45636  1.0000
  H   H223      1.0  0.81200  0.99408  0.46383  1.0000
  H   H224      1.0  0.82414  0.01122  0.49350  1.0000
  N   N184      1.0  0.81533  0.92875  0.43522  1.0000
  O   O111      1.0  0.83094  0.92144  0.40296  1.0000
  O   O112      1.0  0.81844  0.93110  0.51770  1.0000
  C   C409      1.0  0.24961  0.14919  0.37962  1.0000
  C   C410      1.0  0.25313  0.13198  0.37824  1.0000
  H   H225      1.0  0.26670  0.12764  0.40617  1.0000
  C   C411      1.0  0.21709  0.20716  0.33994  1.0000
  C   C412      1.0  0.20569  0.19611  0.39532  1.0000
  C   C413      1.0  0.21050  0.17910  0.39317  1.0000
  H   H226      1.0  0.20252  0.17134  0.43528  1.0000
  N   N185      1.0  0.26431  0.15907  0.41809  1.0000
  H   H227      1.0  0.27701  0.15454  0.44432  1.0000
  H   H228      1.0  0.26238  0.17088  0.42335  1.0000
  N   N186      1.0  0.19041  0.20229  0.45549  1.0000
  O   O113      1.0  0.19520  0.19948  0.53606  1.0000
  O   O114      1.0  0.17269  0.19623  0.44001  1.0000
  C   C414      1.0  0.75960  0.85984  0.38048  1.0000
  C   C415      1.0  0.75603  0.87704  0.37933  1.0000
  H   H229      1.0  0.74249  0.88135  0.40760  1.0000
  C   C416      1.0  0.79212  0.80194  0.33996  1.0000
  C   C417      1.0  0.80349  0.81297  0.39551  1.0000
  C   C418      1.0  0.79870  0.82998  0.39343  1.0000
  H   H230      1.0  0.80665  0.83773  0.43569  1.0000
  N   N187      1.0  0.74497  0.84993  0.41912  1.0000
  H   H231      1.0  0.73228  0.85442  0.44562  1.0000
  H   H232      1.0  0.74692  0.83811  0.42416  1.0000
  N   N188      1.0  0.81874  0.80677  0.45582  1.0000
  O   O115      1.0  0.81390  0.80956  0.53634  1.0000
  O   O116      1.0  0.83646  0.81283  0.44058  1.0000
  C   C419      1.0  0.27059  0.62060  0.34293  1.0000
  C   C420      1.0  0.28949  0.62701  0.37922  1.0000
  C   C421      1.0  0.29302  0.64424  0.37921  1.0000
  C   C422      1.0  0.27834  0.65545  0.34349  1.0000
  C   C423      1.0  0.28286  0.67268  0.34831  1.0000
  C   C424      1.0  0.27168  0.68364  0.40553  1.0000
  C   C425      1.0  0.27630  0.70067  0.40168  1.0000
  H   H233      1.0  0.26821  0.70853  0.44286  1.0000
  H   H234      1.0  0.30653  0.64864  0.40748  1.0000
  N   N189      1.0  0.25679  0.67839  0.46443  1.0000
  H   H235      1.0  0.25351  0.66680  0.47190  1.0000
  H   H236      1.0  0.24946  0.68605  0.50360  1.0000
  N   N190      1.0  0.30436  0.61633  0.41887  1.0000
  O   O117      1.0  0.32196  0.61767  0.38198  1.0000
  O   O118      1.0  0.30642  0.61910  0.50156  1.0000
  C   C426      1.0  0.73864  0.38846  0.34209  1.0000
  C   C427      1.0  0.71976  0.38210  0.37883  1.0000
  C   C428      1.0  0.71617  0.36488  0.37903  1.0000
  C   C429      1.0  0.73078  0.35363  0.34307  1.0000
  C   C430      1.0  0.72624  0.33642  0.34811  1.0000
  C   C431      1.0  0.73740  0.32548  0.40548  1.0000
  C   C432      1.0  0.73278  0.30844  0.40171  1.0000
  H   H237      1.0  0.74086  0.30059  0.44303  1.0000
  H   H238      1.0  0.70268  0.36050  0.40758  1.0000
  N   N191      1.0  0.75227  0.33074  0.46438  1.0000
  H   H239      1.0  0.75556  0.34234  0.47174  1.0000
  H   H240      1.0  0.75960  0.32309  0.50363  1.0000
  N   N192      1.0  0.70497  0.39282  0.41873  1.0000
  O   O119      1.0  0.68732  0.39151  0.38221  1.0000
  O   O120      1.0  0.70299  0.39006  0.50148  1.0000
  C   C433      1.0  0.30052  0.30960  0.37624  1.0000
  C   C434      1.0  0.32013  0.31775  0.37107  1.0000
  H   H241      1.0  0.32192  0.32872  0.40409  1.0000
  C   C435      1.0  0.24438  0.26266  0.34470  1.0000
  C   C436      1.0  0.26203  0.25980  0.40049  1.0000
  C   C437      1.0  0.27927  0.27070  0.39652  1.0000
  H   H242      1.0  0.29193  0.26845  0.43698  1.0000
  N   N193      1.0  0.28470  0.31679  0.42319  1.0000
  H   H243      1.0  0.28653  0.32742  0.45227  1.0000
  H   H244      1.0  0.27110  0.31159  0.42954  1.0000
  N   N194      1.0  0.26197  0.24642  0.46163  1.0000
  O   O121      1.0  0.26317  0.25124  0.54180  1.0000
  O   O122      1.0  0.27672  0.23660  0.44636  1.0000
  C   C438      1.0  0.70856  0.69956  0.37546  1.0000
  C   C439      1.0  0.68894  0.69143  0.37012  1.0000
  H   H245      1.0  0.68713  0.68044  0.40290  1.0000
  C   C440      1.0  0.76478  0.74647  0.34464  1.0000
  C   C441      1.0  0.74713  0.74935  0.40036  1.0000
  C   C442      1.0  0.72987  0.73847  0.39630  1.0000
  H   H246      1.0  0.71720  0.74073  0.43669  1.0000
  N   N195      1.0  0.72437  0.69232  0.42218  1.0000
  H   H247      1.0  0.72254  0.68167  0.45101  1.0000
  H   H248      1.0  0.73799  0.69751  0.42866  1.0000
  N   N196      1.0  0.74719  0.76272  0.46149  1.0000
  O   O123      1.0  0.74596  0.75791  0.54165  1.0000
  O   O124      1.0  0.73246  0.77256  0.44611  1.0000
  C   C443      1.0  0.17154  0.81080  0.35830  1.0000
  C   C444      1.0  0.17426  0.79540  0.40240  1.0000
  C   C445      1.0  0.19380  0.78729  0.39818  1.0000
  C   C446      1.0  0.21094  0.79401  0.35108  1.0000
  C   C447      1.0  0.22963  0.78440  0.34696  1.0000
  C   C448      1.0  0.24728  0.78740  0.40292  1.0000
  C   C449      1.0  0.26464  0.77659  0.39741  1.0000
  H   H249      1.0  0.27721  0.77860  0.43879  1.0000
  H   H250      1.0  0.19539  0.77614  0.42968  1.0000
  N   N197      1.0  0.24795  0.80006  0.46274  1.0000
  H   H251      1.0  0.23633  0.80766  0.46991  1.0000
  H   H252      1.0  0.26008  0.80185  0.50103  1.0000
  N   N198      1.0  0.15765  0.78821  0.45200  1.0000
  O   O125      1.0  0.15243  0.77444  0.42067  1.0000
  O   O126      1.0  0.16215  0.78658  0.53382  1.0000
  C   C450      1.0  0.83769  0.19844  0.35896  1.0000
  C   C451      1.0  0.83496  0.21389  0.40267  1.0000
  C   C452      1.0  0.81541  0.22197  0.39832  1.0000
  C   C453      1.0  0.79827  0.21519  0.35149  1.0000
  C   C454      1.0  0.77956  0.22477  0.34724  1.0000
  C   C455      1.0  0.76189  0.22175  0.40306  1.0000
  C   C456      1.0  0.74450  0.23253  0.39739  1.0000
  H   H253      1.0  0.73194  0.23051  0.43878  1.0000
  H   H254      1.0  0.81381  0.23314  0.42957  1.0000
  N   N199      1.0  0.76123  0.20909  0.46293  1.0000
  H   H255      1.0  0.77287  0.20152  0.47026  1.0000
  H   H256      1.0  0.74910  0.20729  0.50114  1.0000
  N   N200      1.0  0.85157  0.22114  0.45200  1.0000
  O   O127      1.0  0.85676  0.23488  0.42028  1.0000
  O   O128      1.0  0.84709  0.22284  0.53380  1.0000
  C   C457      1.0  0.42329  0.27500  0.38597  1.0000
  C   C458      1.0  0.40796  0.28754  0.38505  1.0000
  H   H257      1.0  0.39367  0.28496  0.41285  1.0000
  C   C459      1.0  0.49089  0.24137  0.34531  1.0000
  C   C460      1.0  0.49280  0.25567  0.39958  1.0000
  C   C461      1.0  0.47688  0.26776  0.39712  1.0000
  H   H258      1.0  0.47814  0.27777  0.43868  1.0000
  N   N201      1.0  0.41839  0.26027  0.42430  1.0000
  H   H259      1.0  0.40471  0.25831  0.45092  1.0000
  H   H260      1.0  0.42855  0.25144  0.42958  1.0000
  N   N202      1.0  0.51002  0.25736  0.45890  1.0000
  O   O129      1.0  0.50426  0.25794  0.53970  1.0000
  O   O130      1.0  0.52054  0.27002  0.44143  1.0000
  C   C462      1.0  0.58581  0.73426  0.38548  1.0000
  C   C463      1.0  0.60113  0.72170  0.38446  1.0000
  H   H261      1.0  0.61542  0.72427  0.41227  1.0000
  C   C464      1.0  0.51824  0.76795  0.34469  1.0000
  C   C465      1.0  0.51632  0.75366  0.39903  1.0000
  C   C466      1.0  0.53223  0.74156  0.39662  1.0000
  H   H262      1.0  0.53096  0.73155  0.43822  1.0000
  N   N203      1.0  0.59074  0.74897  0.42392  1.0000
  H   H263      1.0  0.60442  0.75092  0.45055  1.0000
  H   H264      1.0  0.58059  0.75781  0.42925  1.0000
  N   N204      1.0  0.49910  0.75197  0.45833  1.0000
  O   O131      1.0  0.50485  0.75141  0.53914  1.0000
  O   O132      1.0  0.48858  0.73932  0.44090  1.0000
  C   C467      1.0  0.09754  0.80341  0.33632  1.0000
  C   C468      1.0  0.07736  0.80679  0.37179  1.0000
  C   C469      1.0  0.06197  0.79423  0.37232  1.0000
  C   C470      1.0  0.06599  0.77834  0.33784  1.0000
  C   C471      1.0  0.04999  0.76613  0.34389  1.0000
  C   C472      1.0  0.05176  0.75203  0.40025  1.0000
  C   C473      1.0  0.03600  0.73982  0.39593  1.0000
  H   H265      1.0  0.03728  0.72968  0.43659  1.0000
  H   H266      1.0  0.04767  0.79670  0.40044  1.0000
  N   N205      1.0  0.06794  0.74986  0.45864  1.0000
  H   H267      1.0  0.07875  0.75814  0.46657  1.0000
  H   H268      1.0  0.06876  0.74021  0.49720  1.0000
  N   N206      1.0  0.07294  0.82237  0.40981  1.0000
  O   O133      1.0  0.05776  0.82915  0.37096  1.0000
  O   O134      1.0  0.06886  0.82129  0.49230  1.0000
  C   C474      1.0  0.91170  0.20584  0.33710  1.0000
  C   C475      1.0  0.93189  0.20249  0.37250  1.0000
  C   C476      1.0  0.94727  0.21507  0.37293  1.0000
  C   C477      1.0  0.94322  0.23094  0.33836  1.0000
  C   C478      1.0  0.95919  0.24318  0.34435  1.0000
  C   C479      1.0  0.95741  0.25727  0.40074  1.0000
  C   C480      1.0  0.97316  0.26949  0.39648  1.0000
  H   H269      1.0  0.97189  0.27961  0.43725  1.0000
  H   H270      1.0  0.96157  0.21261  0.40100  1.0000
  N   N207      1.0  0.94122  0.25943  0.45911  1.0000
  H   H271      1.0  0.93042  0.25115  0.46700  1.0000
  H   H272      1.0  0.94040  0.26907  0.49769  1.0000
  N   N208      1.0  0.93635  0.18692  0.41058  1.0000
  O   O135      1.0  0.95152  0.18015  0.37166  1.0000
  O   O136      1.0  0.94045  0.18802  0.49303  1.0000
  C   C481      1.0  0.08947  0.26109  0.37510  1.0000
  C   C482      1.0  0.06885  0.26745  0.37430  1.0000
  H   H273      1.0  0.05719  0.26015  0.39958  1.0000
  C   C483      1.0  0.16936  0.25365  0.34028  1.0000
  C   C484      1.0  0.16302  0.26682  0.39677  1.0000
  C   C485      1.0  0.14203  0.27237  0.39390  1.0000
  H   H274      1.0  0.13755  0.28155  0.43698  1.0000
  N   N209      1.0  0.09270  0.24579  0.40982  1.0000
  H   H275      1.0  0.08121  0.23927  0.43379  1.0000
  H   H276      1.0  0.10660  0.24107  0.41511  1.0000
  N   N210      1.0  0.17742  0.27373  0.45861  1.0000
  O   O137      1.0  0.17161  0.27170  0.53863  1.0000
  O   O138      1.0  0.18002  0.28884  0.44470  1.0000
  C   C486      1.0  0.91969  0.74808  0.37490  1.0000
  C   C487      1.0  0.94032  0.74175  0.37395  1.0000
  H   H277      1.0  0.95197  0.74906  0.39921  1.0000
  C   C488      1.0  0.83981  0.75545  0.34015  1.0000
  C   C489      1.0  0.84616  0.74228  0.39664  1.0000
  C   C490      1.0  0.86715  0.73674  0.39373  1.0000
  H   H278      1.0  0.87165  0.72757  0.43685  1.0000
  N   N211      1.0  0.91643  0.76336  0.40973  1.0000
  H   H279      1.0  0.92790  0.76989  0.43369  1.0000
  H   H280      1.0  0.90251  0.76805  0.41513  1.0000
  N   N212      1.0  0.83177  0.73538  0.45852  1.0000
  O   O139      1.0  0.83759  0.73742  0.53852  1.0000
  O   O140      1.0  0.82918  0.72027  0.44465  1.0000
  C   C491      1.0  0.44536  0.78342  0.34268  1.0000
  C   C492      1.0  0.42859  0.79337  0.37422  1.0000
  C   C493      1.0  0.40793  0.78701  0.37514  1.0000
  C   C494      1.0  0.40321  0.77098  0.34452  1.0000
  C   C495      1.0  0.38205  0.76530  0.34960  1.0000
  C   C496      1.0  0.37566  0.75235  0.40806  1.0000
  C   C497      1.0  0.35476  0.74663  0.40334  1.0000
  H   H281      1.0  0.35021  0.73731  0.44545  1.0000
  H   H282      1.0  0.39614  0.79424  0.40005  1.0000
  N   N213      1.0  0.38882  0.74532  0.46894  1.0000
  H   H283      1.0  0.40307  0.74918  0.47726  1.0000
  H   H284      1.0  0.38411  0.73660  0.50892  1.0000
  N   N214      1.0  0.43254  0.80941  0.40712  1.0000
  O   O141      1.0  0.42243  0.82002  0.36354  1.0000
  O   O142      1.0  0.42790  0.81071  0.48897  1.0000
  C   C498      1.0  0.56374  0.22580  0.34321  1.0000
  C   C499      1.0  0.58049  0.21582  0.37471  1.0000
  C   C500      1.0  0.60117  0.22215  0.37544  1.0000
  C   C501      1.0  0.60592  0.23816  0.34470  1.0000
  C   C502      1.0  0.62709  0.24382  0.34976  1.0000
  C   C503      1.0  0.63348  0.25676  0.40824  1.0000
  C   C504      1.0  0.65439  0.26248  0.40349  1.0000
  H   H285      1.0  0.65895  0.27179  0.44564  1.0000
  H   H286      1.0  0.61295  0.21491  0.40033  1.0000
  N   N215      1.0  0.62033  0.26380  0.46915  1.0000
  H   H287      1.0  0.60608  0.25994  0.47749  1.0000
  H   H288      1.0  0.62505  0.27252  0.50914  1.0000
  N   N216      1.0  0.57651  0.19980  0.40781  1.0000
  O   O143      1.0  0.58650  0.18915  0.36412  1.0000
  O   O144      1.0  0.58121  0.19851  0.48959  1.0000
