data_image0
_chemical_formula_structural       C6H3COH3C2H2C4HCOH3C2H2C4HCOH3C2H2C4HCOH3C6H3COH3C6H3COH3C6H3COH3C6H3COH3C2H2C4HCOH3C2H2C4HCOH3C6H3COH3C6H3COH3C2H2C4HCOH3C2H2C4HCOH3C6H3COH3C6H3COH3C2H2C4HCOH3C2H2C4HCOH3C6H3COH3C6H3COH3C2H2C4HCOH3C2H2C4HCOH3C2H2C4HCOH3C6H3COH3CNCNCNCNCNCNCNCNCNCNCNCNCNCNCNCNCNCNCNCNCNCNCNCNCNCNCNCNCNCNCNCNCNCNCNCNCNCNCNCNCNCNCNCNCNCNCNCNC2H2C4HCOH3C6H3COH3C6H3COH3C6H3COH3C2H2C4HCOH3C2H2C4HCOH3C2H2C4HCOH3C2H2C4HCOH3C6H3COH3C6H3COH3C2H2C4HCOH3C2H2C4HCOH3C6H3COH3C6H3COH3C2H2C4HCOH3C2H2C4HCOH3C6H3COH3C6H3COH3C2H2C4HCOH3C2H2C4HCOH3C6H3COH3C6H3COH3C6H3COH3C2H2C4HCOH3
_chemical_formula_sum              "C384 H288 O48 N48"
_cell_length_a       81.8372
_cell_length_b       42.1936
_cell_length_c       14.8692
_cell_angle_alpha    90
_cell_angle_beta     90
_cell_angle_gamma    90

_space_group_name_H-M_alt    "P 1"
_space_group_IT_number       1

loop_
  _space_group_symop_operation_xyz
  'x, y, z'

loop_
  _atom_site_type_symbol
  _atom_site_label
  _atom_site_symmetry_multiplicity
  _atom_site_fract_x
  _atom_site_fract_y
  _atom_site_fract_z
  _atom_site_occupancy
  C   C1        1.0  0.48373  0.42909  0.33127  1.0000
  C   C2        1.0  0.49674  0.43484  0.27081  1.0000
  C   C3        1.0  0.50512  0.46424  0.26762  1.0000
  C   C4        1.0  0.50094  0.48825  0.33109  1.0000
  C   C5        1.0  0.50133  0.54493  0.30031  1.0000
  C   C6        1.0  0.50884  0.57486  0.30138  1.0000
  H   H1        1.0  0.48989  0.54295  0.27285  1.0000
  H   H2        1.0  0.50254  0.59357  0.27458  1.0000
  H   H3        1.0  0.50005  0.41729  0.22673  1.0000
  C   C7        1.0  0.51782  0.46815  0.19644  1.0000
  O   O1        1.0  0.51028  0.46573  0.10978  1.0000
  H   H4        1.0  0.52406  0.49097  0.20046  1.0000
  H   H5        1.0  0.52703  0.44957  0.20422  1.0000
  H   H6        1.0  0.51894  0.46756  0.06411  1.0000
  C   C8        1.0  0.02108  0.98273  0.29367  1.0000
  C   C9        1.0  0.02969  0.95381  0.29430  1.0000
  H   H7        1.0  0.02443  0.99970  0.24799  1.0000
  H   H8        1.0  0.03883  0.95037  0.24832  1.0000
  C   C10       1.0  0.99950  0.01805  0.34818  1.0000
  C   C11       1.0  0.98407  0.07917  0.34737  1.0000
  C   C12       1.0  0.97610  0.05214  0.31194  1.0000
  C   C13       1.0  0.98353  0.02166  0.31079  1.0000
  H   H9        1.0  0.96485  0.05512  0.28335  1.0000
  C   C14       1.0  0.97511  0.99420  0.26697  1.0000
  O   O2        1.0  0.95909  0.99989  0.23133  1.0000
  H   H10       1.0  0.97427  0.97440  0.31410  1.0000
  H   H11       1.0  0.98264  0.98649  0.21046  1.0000
  H   H12       1.0  0.95151  0.00271  0.28218  1.0000
  C   C15       1.0  0.40893  0.36242  0.29479  1.0000
  C   C16       1.0  0.42547  0.37175  0.29592  1.0000
  H   H13       1.0  0.40135  0.37227  0.24763  1.0000
  H   H14       1.0  0.42946  0.38776  0.24907  1.0000
  C   C17       1.0  0.38626  0.32901  0.34607  1.0000
  C   C18       1.0  0.35261  0.30957  0.34236  1.0000
  C   C19       1.0  0.36519  0.29000  0.30774  1.0000
  C   C20       1.0  0.38190  0.29913  0.30793  1.0000
  H   H15       1.0  0.36199  0.26873  0.27998  1.0000
  C   C21       1.0  0.39457  0.27826  0.26573  1.0000
  O   O3        1.0  0.38908  0.24877  0.22847  1.0000
  H   H16       1.0  0.40422  0.27302  0.31428  1.0000
  H   H17       1.0  0.40011  0.29140  0.21034  1.0000
  H   H18       1.0  0.38613  0.23458  0.27851  1.0000
  C   C22       1.0  0.59965  0.64604  0.29348  1.0000
  C   C23       1.0  0.58309  0.63680  0.29491  1.0000
  H   H19       1.0  0.60717  0.63630  0.24589  1.0000
  H   H20       1.0  0.57903  0.62089  0.24798  1.0000
  C   C24       1.0  0.62241  0.67928  0.34478  1.0000
  C   C25       1.0  0.65604  0.69886  0.34139  1.0000
  C   C26       1.0  0.64344  0.71844  0.30706  1.0000
  C   C27       1.0  0.62674  0.70926  0.30718  1.0000
  H   H21       1.0  0.64662  0.73979  0.27972  1.0000
  C   C28       1.0  0.61403  0.73020  0.26554  1.0000
  O   O4        1.0  0.61950  0.75979  0.22878  1.0000
  H   H22       1.0  0.60440  0.73530  0.31430  1.0000
  H   H23       1.0  0.60848  0.71718  0.20995  1.0000
  H   H24       1.0  0.62245  0.77387  0.27906  1.0000
  C   C29       1.0  0.07210  0.85734  0.32894  1.0000
  C   C30       1.0  0.07821  0.83466  0.26750  1.0000
  C   C31       1.0  0.09495  0.82594  0.26474  1.0000
  C   C32       1.0  0.10589  0.83917  0.32936  1.0000
  C   C33       1.0  0.13507  0.84895  0.30515  1.0000
  C   C34       1.0  0.15158  0.83954  0.30776  1.0000
  H   H25       1.0  0.13223  0.87044  0.27721  1.0000
  H   H26       1.0  0.16018  0.85446  0.28124  1.0000
  H   H27       1.0  0.07027  0.82441  0.22278  1.0000
  C   C35       1.0  0.10002  0.80310  0.19341  1.0000
  O   O5        1.0  0.09708  0.81682  0.10682  1.0000
  H   H28       1.0  0.11295  0.79684  0.19771  1.0000
  H   H29       1.0  0.09294  0.78125  0.20068  1.0000
  H   H30       1.0  0.10012  0.80102  0.06105  1.0000
  C   C36       1.0  0.93684  0.15106  0.32917  1.0000
  C   C37       1.0  0.93063  0.17352  0.26735  1.0000
  C   C38       1.0  0.91388  0.18219  0.26501  1.0000
  C   C39       1.0  0.90303  0.16912  0.33037  1.0000
  C   C40       1.0  0.87384  0.15933  0.30680  1.0000
  C   C41       1.0  0.85734  0.16882  0.30920  1.0000
  H   H31       1.0  0.87665  0.13779  0.27909  1.0000
  H   H32       1.0  0.84872  0.15388  0.28293  1.0000
  H   H33       1.0  0.93849  0.18365  0.22203  1.0000
  C   C42       1.0  0.90871  0.20481  0.19333  1.0000
  O   O6        1.0  0.91155  0.19085  0.10695  1.0000
  H   H34       1.0  0.89579  0.21107  0.19796  1.0000
  H   H35       1.0  0.91579  0.22669  0.19984  1.0000
  H   H36       1.0  0.90844  0.20651  0.06093  1.0000
  C   C43       1.0  0.54260  0.17919  0.35277  1.0000
  C   C44       1.0  0.54516  0.20130  0.28293  1.0000
  C   C45       1.0  0.53593  0.22974  0.27706  1.0000
  C   C46       1.0  0.52423  0.23661  0.34549  1.0000
  C   C47       1.0  0.49757  0.26021  0.31733  1.0000
  C   C48       1.0  0.48665  0.28592  0.31795  1.0000
  H   H37       1.0  0.49336  0.23852  0.29680  1.0000
  H   H38       1.0  0.47491  0.28215  0.29694  1.0000
  H   H39       1.0  0.55315  0.19568  0.23232  1.0000
  C   C49       1.0  0.53858  0.25018  0.19658  1.0000
  O   O7        1.0  0.53376  0.23327  0.11741  1.0000
  H   H40       1.0  0.53163  0.27225  0.19978  1.0000
  H   H41       1.0  0.55153  0.25644  0.19251  1.0000
  H   H42       1.0  0.53599  0.24696  0.06521  1.0000
  C   C50       1.0  0.46646  0.82997  0.35763  1.0000
  C   C51       1.0  0.46380  0.80778  0.28809  1.0000
  C   C52       1.0  0.47297  0.77929  0.28226  1.0000
  C   C53       1.0  0.48471  0.77243  0.35055  1.0000
  C   C54       1.0  0.51129  0.74865  0.32212  1.0000
  C   C55       1.0  0.52214  0.72285  0.32255  1.0000
  H   H43       1.0  0.51553  0.77030  0.30140  1.0000
  H   H44       1.0  0.53388  0.72653  0.30117  1.0000
  H   H45       1.0  0.45577  0.81337  0.23761  1.0000
  C   C56       1.0  0.47026  0.75881  0.20192  1.0000
  O   O8        1.0  0.47507  0.77565  0.12259  1.0000
  H   H46       1.0  0.47718  0.73671  0.20512  1.0000
  H   H47       1.0  0.45730  0.75261  0.19806  1.0000
  H   H48       1.0  0.47280  0.76194  0.07049  1.0000
  C   C57       1.0  0.98687  0.71468  0.26801  1.0000
  C   C58       1.0  0.97801  0.68622  0.26517  1.0000
  H   H49       1.0  0.99541  0.71882  0.21898  1.0000
  H   H50       1.0  0.98047  0.67036  0.21477  1.0000
  C   C59       1.0  0.99481  0.76399  0.33942  1.0000
  C   C60       1.0  0.01697  0.81643  0.33947  1.0000
  C   C61       1.0  0.00050  0.82002  0.31187  1.0000
  C   C62       1.0  0.98930  0.79434  0.31029  1.0000
  H   H51       1.0  0.99675  0.84174  0.28957  1.0000
  C   C63       1.0  0.97230  0.79870  0.27520  1.0000
  O   O9        1.0  0.96774  0.83012  0.24848  1.0000
  H   H52       1.0  0.96347  0.79048  0.32519  1.0000
  H   H53       1.0  0.97094  0.78381  0.21562  1.0000
  H   H54       1.0  0.96671  0.84320  0.30308  1.0000
  C   C64       1.0  0.02172  0.29440  0.26313  1.0000
  C   C65       1.0  0.03052  0.32292  0.26043  1.0000
  H   H55       1.0  0.01317  0.29025  0.21419  1.0000
  H   H56       1.0  0.02804  0.33879  0.21011  1.0000
  C   C66       1.0  0.01392  0.24499  0.33430  1.0000
  C   C67       1.0  0.99187  0.19240  0.33463  1.0000
  C   C68       1.0  0.00833  0.18894  0.30664  1.0000
  C   C69       1.0  0.01948  0.21470  0.30500  1.0000
  H   H57       1.0  0.01212  0.16723  0.28440  1.0000
  C   C70       1.0  0.03648  0.21047  0.26980  1.0000
  O   O10       1.0  0.04110  0.17907  0.24308  1.0000
  H   H58       1.0  0.04530  0.21875  0.31974  1.0000
  H   H59       1.0  0.03779  0.22537  0.21021  1.0000
  H   H60       1.0  0.04216  0.16601  0.29768  1.0000
  C   C71       1.0  0.30478  0.05323  0.33246  1.0000
  C   C72       1.0  0.31479  0.06948  0.27010  1.0000
  C   C73       1.0  0.31600  0.10303  0.26808  1.0000
  C   C74       1.0  0.30747  0.12117  0.33414  1.0000
  C   C75       1.0  0.29750  0.17557  0.31214  1.0000
  C   C76       1.0  0.29956  0.20875  0.31510  1.0000
  H   H61       1.0  0.28703  0.16664  0.28417  1.0000
  H   H62       1.0  0.29056  0.22279  0.28882  1.0000
  H   H63       1.0  0.32142  0.05649  0.22465  1.0000
  C   C77       1.0  0.32645  0.11726  0.19640  1.0000
  O   O11       1.0  0.31991  0.10924  0.11000  1.0000
  H   H64       1.0  0.32714  0.14305  0.20116  1.0000
  H   H65       1.0  0.33887  0.10795  0.20280  1.0000
  H   H66       1.0  0.32724  0.11815  0.06401  1.0000
  C   C78       1.0  0.70406  0.95530  0.33305  1.0000
  C   C79       1.0  0.69402  0.93913  0.27060  1.0000
  C   C80       1.0  0.69276  0.90559  0.26844  1.0000
  C   C81       1.0  0.70125  0.88736  0.33448  1.0000
  C   C82       1.0  0.71119  0.83294  0.31232  1.0000
  C   C83       1.0  0.70910  0.79976  0.31500  1.0000
  H   H67       1.0  0.72167  0.84187  0.28452  1.0000
  H   H68       1.0  0.71812  0.78572  0.28883  1.0000
  H   H69       1.0  0.68743  0.95219  0.22516  1.0000
  C   C84       1.0  0.68231  0.89147  0.19662  1.0000
  O   O12       1.0  0.68888  0.89950  0.11030  1.0000
  H   H70       1.0  0.68157  0.86568  0.20124  1.0000
  H   H71       1.0  0.66990  0.90085  0.20296  1.0000
  H   H72       1.0  0.68154  0.89065  0.06421  1.0000
  C   C85       1.0  0.21169  0.60498  0.28912  1.0000
  C   C86       1.0  0.21321  0.57165  0.29074  1.0000
  H   H73       1.0  0.21785  0.61735  0.24057  1.0000
  H   H74       1.0  0.22023  0.56081  0.24282  1.0000
  C   C87       1.0  0.19907  0.65477  0.33983  1.0000
  C   C88       1.0  0.19473  0.72251  0.33538  1.0000
  C   C89       1.0  0.18271  0.70153  0.30120  1.0000
  C   C90       1.0  0.18457  0.66804  0.30195  1.0000
  H   H75       1.0  0.17238  0.71108  0.27371  1.0000
  C   C91       1.0  0.17176  0.64720  0.26092  1.0000
  O   O13       1.0  0.15763  0.66254  0.22393  1.0000
  H   H76       1.0  0.16755  0.62979  0.31015  1.0000
  H   H77       1.0  0.17741  0.63421  0.20558  1.0000
  H   H78       1.0  0.15099  0.67070  0.27407  1.0000
  C   C92       1.0  0.79717  0.40347  0.28877  1.0000
  C   C93       1.0  0.79561  0.43680  0.29017  1.0000
  H   H79       1.0  0.79101  0.39104  0.24032  1.0000
  H   H80       1.0  0.78854  0.44758  0.24233  1.0000
  C   C94       1.0  0.80984  0.35376  0.33976  1.0000
  C   C95       1.0  0.81422  0.28601  0.33578  1.0000
  C   C96       1.0  0.82625  0.30699  0.30165  1.0000
  C   C97       1.0  0.82437  0.34047  0.30219  1.0000
  H   H81       1.0  0.83660  0.29744  0.27437  1.0000
  C   C98       1.0  0.83719  0.36132  0.26118  1.0000
  O   O14       1.0  0.85134  0.34597  0.22448  1.0000
  H   H82       1.0  0.84137  0.37877  0.31034  1.0000
  H   H83       1.0  0.83155  0.37425  0.20569  1.0000
  H   H84       1.0  0.85797  0.33786  0.27476  1.0000
  C   C99       1.0  0.22913  0.44713  0.33340  1.0000
  C   C100      1.0  0.22918  0.42120  0.27302  1.0000
  C   C101      1.0  0.24201  0.39857  0.27068  1.0000
  C   C102      1.0  0.25492  0.40082  0.33488  1.0000
  C   C103      1.0  0.28338  0.38549  0.30869  1.0000
  C   C104      1.0  0.29630  0.36347  0.31043  1.0000
  H   H85       1.0  0.28549  0.40744  0.28164  1.0000
  H   H86       1.0  0.30734  0.37026  0.28438  1.0000
  H   H87       1.0  0.21972  0.41901  0.22823  1.0000
  C   C105      1.0  0.24114  0.37368  0.19951  1.0000
  O   O15       1.0  0.24173  0.38841  0.11279  1.0000
  H   H88       1.0  0.25116  0.35668  0.20387  1.0000
  H   H89       1.0  0.22970  0.36053  0.20696  1.0000
  H   H90       1.0  0.24071  0.37161  0.06717  1.0000
  C   C106      1.0  0.77953  0.56134  0.33268  1.0000
  C   C107      1.0  0.77946  0.58730  0.27237  1.0000
  C   C108      1.0  0.76664  0.60994  0.27016  1.0000
  C   C109      1.0  0.75374  0.60767  0.33441  1.0000
  C   C110      1.0  0.72528  0.62300  0.30822  1.0000
  C   C111      1.0  0.71235  0.64503  0.30986  1.0000
  H   H91       1.0  0.72317  0.60106  0.28109  1.0000
  H   H92       1.0  0.70133  0.63825  0.28374  1.0000
  H   H93       1.0  0.78891  0.58951  0.22753  1.0000
  C   C112      1.0  0.76750  0.63485  0.19907  1.0000
  O   O16       1.0  0.76689  0.62016  0.11231  1.0000
  H   H94       1.0  0.75748  0.65186  0.20352  1.0000
  H   H95       1.0  0.77894  0.64800  0.20650  1.0000
  H   H96       1.0  0.76791  0.63697  0.06673  1.0000
  C   C113      1.0  0.25375  0.92714  0.29017  1.0000
  C   C114      1.0  0.26627  0.95014  0.29175  1.0000
  H   H97       1.0  0.24459  0.92950  0.24373  1.0000
  H   H98       1.0  0.26595  0.96820  0.24582  1.0000
  C   C115      1.0  0.24108  0.87762  0.34223  1.0000
  C   C116      1.0  0.21470  0.83240  0.34015  1.0000
  C   C117      1.0  0.23037  0.82474  0.30605  1.0000
  C   C118      1.0  0.24356  0.84671  0.30541  1.0000
  H   H99       1.0  0.23203  0.80276  0.27869  1.0000
  C   C119      1.0  0.25955  0.83803  0.26305  1.0000
  O   O17       1.0  0.26099  0.80658  0.22735  1.0000
  H   H100      1.0  0.26949  0.84155  0.31105  1.0000
  H   H101      1.0  0.26162  0.85415  0.20676  1.0000
  H   H102      1.0  0.26146  0.79162  0.27815  1.0000
  C   C120      1.0  0.75519  0.08133  0.29072  1.0000
  C   C121      1.0  0.74266  0.05835  0.29235  1.0000
  H   H103      1.0  0.76434  0.07895  0.24427  1.0000
  H   H104      1.0  0.74298  0.04025  0.24655  1.0000
  C   C122      1.0  0.76787  0.13087  0.34263  1.0000
  C   C123      1.0  0.79425  0.17611  0.34070  1.0000
  C   C124      1.0  0.77858  0.18375  0.30645  1.0000
  C   C125      1.0  0.76539  0.16178  0.30580  1.0000
  H   H105      1.0  0.77692  0.20574  0.27914  1.0000
  C   C126      1.0  0.74940  0.17045  0.26338  1.0000
  O   O18       1.0  0.74797  0.20190  0.22764  1.0000
  H   H106      1.0  0.73946  0.16693  0.31136  1.0000
  H   H107      1.0  0.74735  0.15432  0.20711  1.0000
  H   H108      1.0  0.74749  0.21686  0.27843  1.0000
  C   C127      1.0  0.17066  0.46016  0.33396  1.0000
  C   C128      1.0  0.15857  0.47295  0.27665  1.0000
  C   C129      1.0  0.14244  0.46074  0.27394  1.0000
  C   C130      1.0  0.13808  0.43586  0.33431  1.0000
  C   C131      1.0  0.11683  0.39644  0.30433  1.0000
  C   C132      1.0  0.10047  0.38614  0.30723  1.0000
  H   H109      1.0  0.12516  0.38312  0.26949  1.0000
  H   H110      1.0  0.09734  0.36589  0.27353  1.0000
  H   H111      1.0  0.16164  0.49134  0.23485  1.0000
  C   C133      1.0  0.13094  0.47508  0.20753  1.0000
  O   O19       1.0  0.13693  0.46953  0.11841  1.0000
  H   H112      1.0  0.11864  0.46522  0.21232  1.0000
  H   H113      1.0  0.13007  0.50057  0.22009  1.0000
  H   H114      1.0  0.12938  0.47985  0.07600  1.0000
  C   C134      1.0  0.83800  0.54852  0.33271  1.0000
  C   C135      1.0  0.85012  0.53565  0.27573  1.0000
  C   C136      1.0  0.86625  0.54789  0.27296  1.0000
  C   C137      1.0  0.87056  0.57293  0.33288  1.0000
  C   C138      1.0  0.89189  0.61218  0.30247  1.0000
  C   C139      1.0  0.90826  0.62241  0.30561  1.0000
  H   H115      1.0  0.88361  0.62541  0.26697  1.0000
  H   H116      1.0  0.91145  0.64259  0.27170  1.0000
  H   H117      1.0  0.84708  0.51715  0.23426  1.0000
  C   C140      1.0  0.87779  0.53341  0.20702  1.0000
  O   O20       1.0  0.87184  0.53873  0.11770  1.0000
  H   H118      1.0  0.89009  0.54331  0.21180  1.0000
  H   H119      1.0  0.87866  0.50795  0.22011  1.0000
  H   H120      1.0  0.87942  0.52832  0.07562  1.0000
  C   C141      1.0  0.35854  0.92261  0.29388  1.0000
  C   C142      1.0  0.34241  0.93417  0.29528  1.0000
  H   H121      1.0  0.36141  0.90486  0.24963  1.0000
  H   H122      1.0  0.33404  0.92463  0.25187  1.0000
  C   C143      1.0  0.38717  0.92524  0.33905  1.0000
  C   C144      1.0  0.42045  0.90462  0.33443  1.0000
  C   C145      1.0  0.41542  0.93284  0.29082  1.0000
  C   C146      1.0  0.39902  0.94359  0.29177  1.0000
  H   H123      1.0  0.42402  0.94590  0.25743  1.0000
  C   C147      1.0  0.39429  0.97324  0.24268  1.0000
  O   O21       1.0  0.40709  0.99016  0.19753  1.0000
  H   H124      1.0  0.38828  0.98971  0.28873  1.0000
  H   H125      1.0  0.38544  0.96675  0.19098  1.0000
  H   H126      1.0  0.41406  0.00022  0.24342  1.0000
  C   C148      1.0  0.65045  0.08626  0.29573  1.0000
  C   C149      1.0  0.66656  0.07462  0.29699  1.0000
  H   H127      1.0  0.64760  0.10413  0.25180  1.0000
  H   H128      1.0  0.67496  0.08427  0.25392  1.0000
  C   C150      1.0  0.62178  0.08351  0.34034  1.0000
  C   C151      1.0  0.58849  0.10402  0.33512  1.0000
  C   C152      1.0  0.59360  0.07597  0.29096  1.0000
  C   C153      1.0  0.61001  0.06527  0.29218  1.0000
  H   H129      1.0  0.58506  0.06302  0.25674  1.0000
  C   C154      1.0  0.61483  0.03583  0.24238  1.0000
  O   O22       1.0  0.60211  0.01905  0.19613  1.0000
  H   H130      1.0  0.62079  0.01920  0.28817  1.0000
  H   H131      1.0  0.62375  0.04254  0.19126  1.0000
  H   H132      1.0  0.59509  0.00878  0.24139  1.0000
  C   C155      1.0  0.98611  0.51833  0.28131  1.0000
  C   C156      1.0  0.97436  0.54256  0.28191  1.0000
  H   H133      1.0  0.98501  0.50052  0.23488  1.0000
  H   H134      1.0  0.96509  0.54197  0.23562  1.0000
  C   C157      1.0  0.01083  0.49358  0.33743  1.0000
  C   C158      1.0  0.03295  0.44165  0.33466  1.0000
  C   C159      1.0  0.03756  0.47162  0.30035  1.0000
  C   C160      1.0  0.02671  0.49780  0.29994  1.0000
  H   H135      1.0  0.04893  0.47405  0.27273  1.0000
  C   C161      1.0  0.03164  0.52860  0.25784  1.0000
  O   O23       1.0  0.04790  0.53051  0.22230  1.0000
  H   H136      1.0  0.03010  0.54791  0.30607  1.0000
  H   H137      1.0  0.02340  0.53312  0.20157  1.0000
  H   H138      1.0  0.05561  0.53087  0.27317  1.0000
  C   C162      1.0  0.53292  0.06823  0.34231  1.0000
  C   C163      1.0  0.51987  0.06842  0.28019  1.0000
  C   C164      1.0  0.50834  0.04346  0.27671  1.0000
  C   C165      1.0  0.50952  0.01864  0.34141  1.0000
  C   C166      1.0  0.50268  0.96369  0.31305  1.0000
  C   C167      1.0  0.49182  0.93800  0.31517  1.0000
  H   H139      1.0  0.51406  0.96037  0.28583  1.0000
  H   H140      1.0  0.49558  0.91681  0.28882  1.0000
  H   H141      1.0  0.51902  0.08663  0.23479  1.0000
  C   C168      1.0  0.49577  0.04471  0.20409  1.0000
  O   O24       1.0  0.50369  0.04312  0.11831  1.0000
  H   H142      1.0  0.48701  0.02525  0.20841  1.0000
  H   H143      1.0  0.48894  0.06690  0.20984  1.0000
  H   H144      1.0  0.49519  0.04477  0.07165  1.0000
  C   C169      1.0  0.45376  0.36363  0.35020  1.0000
  N   N1        1.0  0.46004  0.39353  0.34329  1.0000
  C   C170      1.0  0.47648  0.39851  0.33680  1.0000
  N   N2        1.0  0.48650  0.37282  0.33757  1.0000
  C   C171      1.0  0.48083  0.34267  0.34441  1.0000
  N   N3        1.0  0.46437  0.33876  0.35055  1.0000
  C   C172      1.0  0.55487  0.64490  0.35069  1.0000
  N   N4        1.0  0.54847  0.61509  0.34453  1.0000
  C   C173      1.0  0.53198  0.61000  0.34069  1.0000
  N   N5        1.0  0.52211  0.63593  0.34297  1.0000
  C   C174      1.0  0.52785  0.66606  0.34856  1.0000
  N   N6        1.0  0.54433  0.66983  0.35248  1.0000
  C   C175      1.0  0.05504  0.86362  0.33409  1.0000
  N   N7        1.0  0.04875  0.89352  0.34096  1.0000
  C   C176      1.0  0.03231  0.89851  0.34742  1.0000
  N   N8        1.0  0.02229  0.87282  0.34667  1.0000
  C   C177      1.0  0.02797  0.84266  0.33987  1.0000
  N   N9        1.0  0.04443  0.83876  0.33375  1.0000
  C   C178      1.0  0.95392  0.14490  0.33358  1.0000
  N   N10       1.0  0.96033  0.11509  0.33972  1.0000
  C   C179      1.0  0.97682  0.11001  0.34359  1.0000
  N   N11       1.0  0.98669  0.13593  0.34131  1.0000
  C   C180      1.0  0.98095  0.16606  0.33572  1.0000
  N   N12       1.0  0.96447  0.16983  0.33179  1.0000
  C   C181      1.0  0.31681  0.25611  0.34725  1.0000
  N   N13       1.0  0.30446  0.27787  0.34640  1.0000
  C   C182      1.0  0.30723  0.30983  0.34464  1.0000
  N   N14       1.0  0.32313  0.31964  0.34340  1.0000
  C   C183      1.0  0.33597  0.29910  0.34348  1.0000
  N   N15       1.0  0.33234  0.26763  0.34552  1.0000
  C   C184      1.0  0.69183  0.75240  0.34672  1.0000
  N   N16       1.0  0.70419  0.73064  0.34592  1.0000
  C   C185      1.0  0.70142  0.69867  0.34405  1.0000
  N   N17       1.0  0.68553  0.68886  0.34264  1.0000
  C   C186      1.0  0.67268  0.70938  0.34268  1.0000
  N   N18       1.0  0.67630  0.74085  0.34483  1.0000
  C   C187      1.0  0.19199  0.75611  0.33702  1.0000
  N   N19       1.0  0.20434  0.77788  0.33786  1.0000
  C   C188      1.0  0.20157  0.80984  0.33961  1.0000
  N   N20       1.0  0.18567  0.81965  0.34085  1.0000
  C   C189      1.0  0.17283  0.79911  0.34077  1.0000
  N   N21       1.0  0.17645  0.76764  0.33875  1.0000
  C   C190      1.0  0.81697  0.25240  0.33756  1.0000
  N   N22       1.0  0.80461  0.23064  0.33835  1.0000
  C   C191      1.0  0.80738  0.19867  0.34022  1.0000
  N   N23       1.0  0.82327  0.18886  0.34163  1.0000
  C   C192      1.0  0.83612  0.20939  0.34159  1.0000
  N   N24       1.0  0.83250  0.24086  0.33944  1.0000
  C   C193      1.0  0.04928  0.36063  0.33052  1.0000
  N   N25       1.0  0.06563  0.36644  0.33849  1.0000
  C   C194      1.0  0.07144  0.39673  0.34426  1.0000
  N   N26       1.0  0.06041  0.42081  0.34183  1.0000
  C   C195      1.0  0.04409  0.41593  0.33485  1.0000
  N   N27       1.0  0.03881  0.38557  0.32949  1.0000
  C   C196      1.0  0.95934  0.64845  0.33534  1.0000
  N   N28       1.0  0.94297  0.64241  0.34042  1.0000
  C   C197      1.0  0.93722  0.61201  0.34492  1.0000
  N   N29       1.0  0.94832  0.58798  0.34395  1.0000
  C   C198      1.0  0.96460  0.59337  0.34018  1.0000
  N   N30       1.0  0.96991  0.62369  0.33625  1.0000
  C   C199      1.0  0.45953  0.86064  0.35363  1.0000
  N   N31       1.0  0.44318  0.86644  0.34574  1.0000
  C   C200      1.0  0.43736  0.89673  0.34004  1.0000
  N   N32       1.0  0.44840  0.92082  0.34246  1.0000
  C   C201      1.0  0.46472  0.91594  0.34941  1.0000
  N   N33       1.0  0.47000  0.88558  0.35472  1.0000
  C   C202      1.0  0.54947  0.14847  0.34886  1.0000
  N   N34       1.0  0.56584  0.14242  0.34383  1.0000
  C   C203      1.0  0.57158  0.11201  0.33936  1.0000
  N   N35       1.0  0.56048  0.08799  0.34033  1.0000
  C   C204      1.0  0.54420  0.09339  0.34408  1.0000
  N   N36       1.0  0.53889  0.12371  0.34799  1.0000
  C   C205      1.0  0.20341  0.51953  0.34601  1.0000
  N   N37       1.0  0.21688  0.50039  0.34278  1.0000
  C   C206      1.0  0.21547  0.46812  0.33707  1.0000
  N   N38       1.0  0.20017  0.45540  0.33480  1.0000
  C   C207      1.0  0.18652  0.47366  0.33724  1.0000
  N   N39       1.0  0.18844  0.50556  0.34272  1.0000
  C   C208      1.0  0.80532  0.48902  0.34527  1.0000
  N   N40       1.0  0.79182  0.50811  0.34211  1.0000
  C   C209      1.0  0.79321  0.54039  0.33628  1.0000
  N   N41       1.0  0.80849  0.55315  0.33381  1.0000
  C   C210      1.0  0.82216  0.53495  0.33617  1.0000
  N   N42       1.0  0.82028  0.50305  0.34178  1.0000
  C   C211      1.0  0.30540  0.01952  0.33827  1.0000
  N   N43       1.0  0.29192  0.00038  0.34148  1.0000
  C   C212      1.0  0.29334  0.96811  0.34718  1.0000
  N   N44       1.0  0.30863  0.95539  0.34945  1.0000
  C   C213      1.0  0.32228  0.97365  0.34701  1.0000
  N   N45       1.0  0.32037  0.00555  0.34155  1.0000
  C   C214      1.0  0.70348  0.98902  0.33899  1.0000
  N   N46       1.0  0.71698  0.00811  0.34214  1.0000
  C   C215      1.0  0.71559  0.04038  0.34798  1.0000
  N   N47       1.0  0.70031  0.05315  0.35044  1.0000
  C   C216      1.0  0.68664  0.03494  0.34810  1.0000
  N   N48       1.0  0.68853  0.00304  0.34248  1.0000
  C   C217      1.0  0.48772  0.48273  0.39052  1.0000
  C   C218      1.0  0.47909  0.45382  0.38983  1.0000
  H   H145      1.0  0.48438  0.49970  0.43621  1.0000
  H   H146      1.0  0.46997  0.45038  0.43589  1.0000
  C   C219      1.0  0.50930  0.51804  0.33601  1.0000
  C   C220      1.0  0.52473  0.57917  0.33686  1.0000
  C   C221      1.0  0.53270  0.55214  0.37224  1.0000
  C   C222      1.0  0.52527  0.52166  0.37343  1.0000
  H   H147      1.0  0.54395  0.55512  0.40094  1.0000
  C   C223      1.0  0.53369  0.49421  0.41729  1.0000
  O   O25       1.0  0.54971  0.49989  0.45293  1.0000
  H   H148      1.0  0.53453  0.47440  0.37018  1.0000
  H   H149      1.0  0.52616  0.48650  0.47381  1.0000
  H   H150      1.0  0.55728  0.50271  0.40207  1.0000
  C   C224      1.0  0.02507  0.92909  0.35293  1.0000
  C   C225      1.0  0.01206  0.93484  0.41341  1.0000
  C   C226      1.0  0.00368  0.96425  0.41659  1.0000
  C   C227      1.0  0.00786  0.98825  0.35313  1.0000
  C   C228      1.0  0.00748  0.04493  0.38390  1.0000
  C   C229      1.0  0.99996  0.07487  0.38286  1.0000
  H   H151      1.0  0.01891  0.04296  0.41137  1.0000
  H   H152      1.0  0.00626  0.09357  0.40967  1.0000
  H   H153      1.0  0.00876  0.91730  0.45751  1.0000
  C   C230      1.0  0.99099  0.96816  0.48780  1.0000
  O   O26       1.0  0.99853  0.96575  0.57444  1.0000
  H   H154      1.0  0.98474  0.99098  0.48378  1.0000
  H   H155      1.0  0.98177  0.94958  0.48006  1.0000
  H   H156      1.0  0.98988  0.96758  0.62013  1.0000
  C   C231      1.0  0.43669  0.35736  0.35536  1.0000
  C   C232      1.0  0.43059  0.33467  0.41679  1.0000
  C   C233      1.0  0.41385  0.32594  0.41953  1.0000
  C   C234      1.0  0.40291  0.33917  0.35491  1.0000
  C   C235      1.0  0.37372  0.34894  0.37911  1.0000
  C   C236      1.0  0.35722  0.33953  0.37649  1.0000
  H   H157      1.0  0.37656  0.37044  0.40704  1.0000
  H   H158      1.0  0.34861  0.35445  0.40300  1.0000
  H   H159      1.0  0.43852  0.32442  0.46151  1.0000
  C   C237      1.0  0.40877  0.30310  0.49088  1.0000
  O   O27       1.0  0.41171  0.31683  0.57746  1.0000
  H   H160      1.0  0.39585  0.29684  0.48657  1.0000
  H   H161      1.0  0.41586  0.28126  0.48362  1.0000
  H   H162      1.0  0.40867  0.30103  0.62324  1.0000
  C   C238      1.0  0.57196  0.65107  0.35508  1.0000
  C   C239      1.0  0.57817  0.67352  0.41690  1.0000
  C   C240      1.0  0.59491  0.68219  0.41925  1.0000
  C   C241      1.0  0.60576  0.66912  0.35390  1.0000
  C   C242      1.0  0.63496  0.65932  0.37748  1.0000
  C   C243      1.0  0.65146  0.66881  0.37507  1.0000
  H   H163      1.0  0.63215  0.63779  0.40520  1.0000
  H   H164      1.0  0.66008  0.65387  0.40136  1.0000
  H   H165      1.0  0.57030  0.68366  0.46221  1.0000
  C   C244      1.0  0.60009  0.70482  0.49092  1.0000
  O   O28       1.0  0.59725  0.69087  0.57731  1.0000
  H   H166      1.0  0.61301  0.71107  0.48630  1.0000
  H   H167      1.0  0.59301  0.72670  0.48439  1.0000
  H   H168      1.0  0.60035  0.70653  0.62332  1.0000
  C   C245      1.0  0.09986  0.86243  0.38947  1.0000
  C   C246      1.0  0.08332  0.87176  0.38835  1.0000
  H   H169      1.0  0.10745  0.87228  0.43661  1.0000
  H   H170      1.0  0.07934  0.88777  0.43518  1.0000
  C   C247      1.0  0.12254  0.82901  0.33820  1.0000
  C   C248      1.0  0.15619  0.80958  0.34190  1.0000
  C   C249      1.0  0.14361  0.79001  0.37654  1.0000
  C   C250      1.0  0.12690  0.79913  0.37635  1.0000
  H   H171      1.0  0.14681  0.76874  0.40430  1.0000
  C   C251      1.0  0.11422  0.77827  0.41856  1.0000
  O   O29       1.0  0.11972  0.74878  0.45583  1.0000
  H   H172      1.0  0.10458  0.77302  0.37002  1.0000
  H   H173      1.0  0.10868  0.79141  0.47396  1.0000
  H   H174      1.0  0.12267  0.73458  0.40580  1.0000
  C   C252      1.0  0.90915  0.14605  0.39080  1.0000
  C   C253      1.0  0.92571  0.13680  0.38936  1.0000
  H   H175      1.0  0.90163  0.13631  0.43841  1.0000
  H   H176      1.0  0.92977  0.12090  0.43631  1.0000
  C   C254      1.0  0.88639  0.17928  0.33949  1.0000
  C   C255      1.0  0.85276  0.19886  0.34287  1.0000
  C   C256      1.0  0.86536  0.21845  0.37720  1.0000
  C   C257      1.0  0.88206  0.20927  0.37708  1.0000
  H   H177      1.0  0.86218  0.23980  0.40453  1.0000
  C   C258      1.0  0.89476  0.23021  0.41871  1.0000
  O   O30       1.0  0.88930  0.25980  0.45545  1.0000
  H   H178      1.0  0.90440  0.23530  0.36993  1.0000
  H   H179      1.0  0.90032  0.21719  0.47430  1.0000
  H   H180      1.0  0.88635  0.27388  0.40518  1.0000
  C   C259      1.0  0.52194  0.21470  0.41627  1.0000
  C   C260      1.0  0.53080  0.18624  0.41909  1.0000
  H   H181      1.0  0.51341  0.21883  0.46531  1.0000
  H   H182      1.0  0.52835  0.17039  0.46950  1.0000
  C   C261      1.0  0.51399  0.26399  0.34486  1.0000
  C   C262      1.0  0.49183  0.31643  0.34482  1.0000
  C   C263      1.0  0.50830  0.32003  0.37238  1.0000
  C   C264      1.0  0.51950  0.29435  0.37396  1.0000
  H   H183      1.0  0.51205  0.34176  0.39466  1.0000
  C   C265      1.0  0.53650  0.29871  0.40902  1.0000
  O   O31       1.0  0.54106  0.33015  0.43571  1.0000
  H   H184      1.0  0.54533  0.29050  0.35900  1.0000
  H   H185      1.0  0.53787  0.28383  0.46860  1.0000
  H   H186      1.0  0.54208  0.34321  0.38111  1.0000
  C   C266      1.0  0.48708  0.79440  0.42111  1.0000
  C   C267      1.0  0.47828  0.82293  0.42379  1.0000
  H   H187      1.0  0.49563  0.79026  0.47005  1.0000
  H   H188      1.0  0.48077  0.83880  0.47408  1.0000
  C   C268      1.0  0.49488  0.74498  0.34997  1.0000
  C   C269      1.0  0.51692  0.69239  0.34964  1.0000
  C   C270      1.0  0.50047  0.68894  0.37764  1.0000
  C   C271      1.0  0.48932  0.71469  0.37928  1.0000
  H   H189      1.0  0.49667  0.66723  0.39989  1.0000
  C   C272      1.0  0.47232  0.71047  0.41449  1.0000
  O   O32       1.0  0.46770  0.67907  0.44122  1.0000
  H   H190      1.0  0.46349  0.71875  0.36455  1.0000
  H   H191      1.0  0.47100  0.72537  0.47407  1.0000
  H   H192      1.0  0.46664  0.66601  0.38663  1.0000
  C   C273      1.0  0.96622  0.67917  0.33148  1.0000
  C   C274      1.0  0.96364  0.70129  0.40129  1.0000
  C   C275      1.0  0.97286  0.72972  0.40716  1.0000
  C   C276      1.0  0.98457  0.73660  0.33876  1.0000
  C   C277      1.0  0.01123  0.76021  0.36699  1.0000
  C   C278      1.0  0.02214  0.78592  0.36636  1.0000
  H   H193      1.0  0.01544  0.73852  0.38753  1.0000
  H   H194      1.0  0.03389  0.78215  0.38740  1.0000
  H   H195      1.0  0.95564  0.69566  0.45186  1.0000
  C   C279      1.0  0.97020  0.75017  0.48761  1.0000
  O   O33       1.0  0.97501  0.73328  0.56682  1.0000
  H   H196      1.0  0.97714  0.77225  0.48443  1.0000
  H   H197      1.0  0.95725  0.75643  0.49164  1.0000
  H   H198      1.0  0.97277  0.74696  0.61900  1.0000
  C   C280      1.0  0.04235  0.32996  0.32657  1.0000
  C   C281      1.0  0.04501  0.30778  0.39614  1.0000
  C   C282      1.0  0.03582  0.27930  0.40199  1.0000
  C   C283      1.0  0.02409  0.27244  0.33371  1.0000
  C   C284      1.0  0.99751  0.24865  0.36213  1.0000
  C   C285      1.0  0.98665  0.22286  0.36171  1.0000
  H   H199      1.0  0.99327  0.27030  0.38284  1.0000
  H   H200      1.0  0.97492  0.22653  0.38308  1.0000
  H   H201      1.0  0.05303  0.31337  0.44662  1.0000
  C   C286      1.0  0.03853  0.25883  0.48236  1.0000
  O   O34       1.0  0.03373  0.27567  0.56167  1.0000
  H   H202      1.0  0.03161  0.23673  0.47917  1.0000
  H   H203      1.0  0.05149  0.25261  0.48623  1.0000
  H   H204      1.0  0.03599  0.26197  0.61378  1.0000
  C   C287      1.0  0.29711  0.10497  0.39511  1.0000
  C   C288      1.0  0.29559  0.07164  0.39349  1.0000
  H   H205      1.0  0.29094  0.11734  0.44363  1.0000
  H   H206      1.0  0.28856  0.06080  0.44140  1.0000
  C   C289      1.0  0.30973  0.15477  0.34443  1.0000
  C   C290      1.0  0.31407  0.22251  0.34889  1.0000
  C   C291      1.0  0.32609  0.20152  0.38308  1.0000
  C   C292      1.0  0.32423  0.16804  0.38233  1.0000
  H   H207      1.0  0.33642  0.21107  0.41058  1.0000
  C   C293      1.0  0.33704  0.14719  0.42338  1.0000
  O   O35       1.0  0.35116  0.16254  0.46038  1.0000
  H   H208      1.0  0.34125  0.12979  0.37416  1.0000
  H   H209      1.0  0.33138  0.13420  0.47870  1.0000
  H   H210      1.0  0.35781  0.17070  0.41025  1.0000
  C   C294      1.0  0.71163  0.90347  0.39553  1.0000
  C   C295      1.0  0.71319  0.93679  0.39412  1.0000
  H   H211      1.0  0.71778  0.89103  0.44400  1.0000
  H   H212      1.0  0.72025  0.94757  0.44199  1.0000
  C   C296      1.0  0.69896  0.85375  0.34451  1.0000
  C   C297      1.0  0.69458  0.78600  0.34848  1.0000
  C   C298      1.0  0.68255  0.80699  0.38260  1.0000
  C   C299      1.0  0.68443  0.84047  0.38205  1.0000
  H   H213      1.0  0.67220  0.79744  0.40986  1.0000
  C   C300      1.0  0.67161  0.86131  0.42304  1.0000
  O   O36       1.0  0.65746  0.84597  0.45972  1.0000
  H   H214      1.0  0.66743  0.87877  0.37387  1.0000
  H   H215      1.0  0.67724  0.87425  0.47854  1.0000
  H   H216      1.0  0.65083  0.83786  0.40943  1.0000
  C   C301      1.0  0.20403  0.55324  0.35183  1.0000
  C   C302      1.0  0.19402  0.56949  0.41418  1.0000
  C   C303      1.0  0.19281  0.60304  0.41620  1.0000
  C   C304      1.0  0.20133  0.62118  0.35012  1.0000
  C   C305      1.0  0.21130  0.67558  0.37210  1.0000
  C   C306      1.0  0.20924  0.70876  0.36914  1.0000
  H   H217      1.0  0.22177  0.66665  0.40006  1.0000
  H   H218      1.0  0.21824  0.72280  0.39542  1.0000
  H   H219      1.0  0.18739  0.55650  0.45964  1.0000
  C   C307      1.0  0.18236  0.61726  0.48788  1.0000
  O   O37       1.0  0.18890  0.60925  0.57428  1.0000
  H   H220      1.0  0.18167  0.64305  0.48312  1.0000
  H   H221      1.0  0.16994  0.60795  0.48151  1.0000
  H   H222      1.0  0.18157  0.61817  0.62028  1.0000
  C   C308      1.0  0.80475  0.45530  0.35120  1.0000
  C   C309      1.0  0.81479  0.43914  0.41364  1.0000
  C   C310      1.0  0.81604  0.40559  0.41581  1.0000
  C   C311      1.0  0.80756  0.38737  0.34979  1.0000
  C   C312      1.0  0.79761  0.33295  0.37197  1.0000
  C   C313      1.0  0.79969  0.29977  0.36930  1.0000
  H   H223      1.0  0.78713  0.34188  0.39979  1.0000
  H   H224      1.0  0.79068  0.28573  0.39548  1.0000
  H   H225      1.0  0.82139  0.45219  0.45907  1.0000
  C   C314      1.0  0.82650  0.39147  0.48761  1.0000
  O   O38       1.0  0.81994  0.39951  0.57394  1.0000
  H   H226      1.0  0.82724  0.36569  0.48299  1.0000
  H   H227      1.0  0.83891  0.40085  0.48125  1.0000
  H   H228      1.0  0.82728  0.39066  0.62002  1.0000
  C   C315      1.0  0.25505  0.42714  0.39409  1.0000
  C   C316      1.0  0.24254  0.45014  0.39251  1.0000
  H   H229      1.0  0.26421  0.42950  0.44053  1.0000
  H   H230      1.0  0.24285  0.46819  0.43844  1.0000
  C   C317      1.0  0.26772  0.37761  0.34202  1.0000
  C   C318      1.0  0.29410  0.33239  0.34409  1.0000
  C   C319      1.0  0.27843  0.32474  0.37820  1.0000
  C   C320      1.0  0.26524  0.34671  0.37884  1.0000
  H   H231      1.0  0.27677  0.30275  0.40557  1.0000
  C   C321      1.0  0.24925  0.33803  0.42120  1.0000
  O   O39       1.0  0.24781  0.30657  0.45690  1.0000
  H   H232      1.0  0.23930  0.34155  0.37321  1.0000
  H   H233      1.0  0.24718  0.35415  0.47749  1.0000
  H   H234      1.0  0.24734  0.29162  0.40610  1.0000
  C   C322      1.0  0.75361  0.58133  0.39355  1.0000
  C   C323      1.0  0.76614  0.55835  0.39192  1.0000
  H   H235      1.0  0.74446  0.57895  0.44002  1.0000
  H   H236      1.0  0.76583  0.54025  0.43773  1.0000
  C   C324      1.0  0.74093  0.63087  0.34163  1.0000
  C   C325      1.0  0.71455  0.67610  0.34356  1.0000
  C   C326      1.0  0.73022  0.68375  0.37781  1.0000
  C   C327      1.0  0.74341  0.66177  0.37846  1.0000
  H   H237      1.0  0.73188  0.70574  0.40511  1.0000
  C   C328      1.0  0.75940  0.67045  0.42087  1.0000
  O   O40       1.0  0.76083  0.70190  0.45660  1.0000
  H   H238      1.0  0.76934  0.66693  0.37289  1.0000
  H   H239      1.0  0.76146  0.65432  0.47714  1.0000
  H   H240      1.0  0.76131  0.71686  0.40581  1.0000
  C   C329      1.0  0.27968  0.94713  0.35084  1.0000
  C   C330      1.0  0.27962  0.92120  0.41123  1.0000
  C   C331      1.0  0.26679  0.89857  0.41358  1.0000
  C   C332      1.0  0.25388  0.90082  0.34938  1.0000
  C   C333      1.0  0.22542  0.88550  0.37556  1.0000
  C   C334      1.0  0.21249  0.86348  0.37382  1.0000
  H   H241      1.0  0.22331  0.90744  0.40262  1.0000
  H   H242      1.0  0.20146  0.87026  0.39987  1.0000
  H   H243      1.0  0.28908  0.91900  0.45602  1.0000
  C   C335      1.0  0.26766  0.87368  0.48474  1.0000
  O   O41       1.0  0.26707  0.88841  0.57146  1.0000
  H   H244      1.0  0.25764  0.85668  0.48038  1.0000
  H   H245      1.0  0.27910  0.86052  0.47729  1.0000
  H   H246      1.0  0.26809  0.87161  0.61708  1.0000
  C   C336      1.0  0.72927  0.06135  0.35156  1.0000
  C   C337      1.0  0.72933  0.08730  0.41187  1.0000
  C   C338      1.0  0.74216  0.10995  0.41409  1.0000
  C   C339      1.0  0.75506  0.10767  0.34985  1.0000
  C   C340      1.0  0.78352  0.12300  0.37605  1.0000
  C   C341      1.0  0.79645  0.14503  0.37441  1.0000
  H   H247      1.0  0.78563  0.10107  0.40319  1.0000
  H   H248      1.0  0.80747  0.13826  0.40054  1.0000
  H   H249      1.0  0.71988  0.08951  0.45670  1.0000
  C   C342      1.0  0.74130  0.13486  0.48517  1.0000
  O   O42       1.0  0.74190  0.12017  0.57194  1.0000
  H   H250      1.0  0.75132  0.15186  0.48072  1.0000
  H   H251      1.0  0.72985  0.14801  0.47773  1.0000
  H   H252      1.0  0.74088  0.13698  0.61751  1.0000
  C   C343      1.0  0.15027  0.42262  0.39037  1.0000
  C   C344      1.0  0.16640  0.43418  0.38897  1.0000
  H   H253      1.0  0.14739  0.40487  0.43461  1.0000
  H   H254      1.0  0.17477  0.42464  0.43237  1.0000
  C   C345      1.0  0.12163  0.42525  0.34521  1.0000
  C   C346      1.0  0.08835  0.40462  0.34987  1.0000
  C   C347      1.0  0.09338  0.43284  0.39347  1.0000
  C   C348      1.0  0.10978  0.44360  0.39250  1.0000
  H   H255      1.0  0.08479  0.44590  0.42687  1.0000
  C   C349      1.0  0.11451  0.47324  0.44159  1.0000
  O   O43       1.0  0.10171  0.49016  0.48675  1.0000
  H   H256      1.0  0.12052  0.48972  0.39554  1.0000
  H   H257      1.0  0.12337  0.46676  0.49328  1.0000
  H   H258      1.0  0.09475  0.50022  0.44087  1.0000
  C   C350      1.0  0.85835  0.58628  0.38854  1.0000
  C   C351      1.0  0.84224  0.57463  0.38729  1.0000
  H   H259      1.0  0.86120  0.60414  0.43248  1.0000
  H   H260      1.0  0.83384  0.58427  0.43035  1.0000
  C   C352      1.0  0.88702  0.58352  0.34395  1.0000
  C   C353      1.0  0.92031  0.60403  0.34917  1.0000
  C   C354      1.0  0.91520  0.57597  0.39334  1.0000
  C   C355      1.0  0.89879  0.56528  0.39211  1.0000
  H   H261      1.0  0.92373  0.56303  0.42756  1.0000
  C   C356      1.0  0.89397  0.53584  0.44192  1.0000
  O   O44       1.0  0.90668  0.51906  0.48818  1.0000
  H   H262      1.0  0.88800  0.51921  0.39613  1.0000
  H   H263      1.0  0.88504  0.54256  0.49304  1.0000
  H   H264      1.0  0.91370  0.50879  0.44292  1.0000
  C   C357      1.0  0.33814  0.96015  0.35030  1.0000
  C   C358      1.0  0.35023  0.97294  0.40762  1.0000
  C   C359      1.0  0.36636  0.96073  0.41033  1.0000
  C   C360      1.0  0.37072  0.93584  0.34995  1.0000
  C   C361      1.0  0.39197  0.89643  0.37992  1.0000
  C   C362      1.0  0.40834  0.88613  0.37702  1.0000
  H   H265      1.0  0.38364  0.88311  0.41475  1.0000
  H   H266      1.0  0.41147  0.86588  0.41072  1.0000
  H   H267      1.0  0.34716  0.99132  0.44943  1.0000
  C   C363      1.0  0.37786  0.97506  0.47675  1.0000
  O   O45       1.0  0.37187  0.96951  0.56586  1.0000
  H   H268      1.0  0.39017  0.96520  0.47196  1.0000
  H   H269      1.0  0.37873  0.00055  0.46420  1.0000
  H   H270      1.0  0.37943  0.97982  0.60827  1.0000
  C   C364      1.0  0.67079  0.04851  0.35155  1.0000
  C   C365      1.0  0.65868  0.03563  0.40854  1.0000
  C   C366      1.0  0.64255  0.04788  0.41132  1.0000
  C   C367      1.0  0.63824  0.07292  0.35139  1.0000
  C   C368      1.0  0.61691  0.11217  0.38181  1.0000
  C   C369      1.0  0.60054  0.12240  0.37867  1.0000
  H   H271      1.0  0.62519  0.12540  0.41730  1.0000
  H   H272      1.0  0.59736  0.14259  0.41257  1.0000
  H   H273      1.0  0.66172  0.01713  0.45001  1.0000
  C   C370      1.0  0.63102  0.03339  0.47726  1.0000
  O   O46       1.0  0.63696  0.03871  0.56658  1.0000
  H   H274      1.0  0.61872  0.04329  0.47249  1.0000
  H   H275      1.0  0.63014  0.00794  0.46417  1.0000
  H   H276      1.0  0.62938  0.02831  0.60866  1.0000
  C   C371      1.0  0.97588  0.56821  0.34199  1.0000
  C   C372      1.0  0.98892  0.56839  0.40410  1.0000
  C   C373      1.0  0.00046  0.54344  0.40760  1.0000
  C   C374      1.0  0.99928  0.51862  0.34290  1.0000
  C   C375      1.0  0.00612  0.46367  0.37128  1.0000
  C   C376      1.0  0.01699  0.43798  0.36909  1.0000
  H   H277      1.0  0.99475  0.46035  0.39847  1.0000
  H   H278      1.0  0.01323  0.41679  0.39544  1.0000
  H   H279      1.0  0.98978  0.58662  0.44948  1.0000
  C   C377      1.0  0.01303  0.54470  0.48020  1.0000
  O   O47       1.0  0.00512  0.54312  0.56599  1.0000
  H   H280      1.0  0.02179  0.52524  0.47591  1.0000
  H   H281      1.0  0.01986  0.56689  0.47442  1.0000
  H   H282      1.0  0.01361  0.54478  0.61265  1.0000
  C   C378      1.0  0.52269  0.01836  0.40302  1.0000
  C   C379      1.0  0.53443  0.04260  0.40246  1.0000
  H   H283      1.0  0.52379  0.00054  0.44944  1.0000
  H   H284      1.0  0.54371  0.04200  0.44866  1.0000
  C   C380      1.0  0.49797  0.99360  0.34689  1.0000
  C   C381      1.0  0.47585  0.94166  0.34963  1.0000
  C   C382      1.0  0.47125  0.97162  0.38400  1.0000
  C   C383      1.0  0.48209  0.99781  0.38436  1.0000
  H   H285      1.0  0.45987  0.97406  0.41154  1.0000
  C   C384      1.0  0.47716  0.02861  0.42645  1.0000
  O   O48       1.0  0.46089  0.03051  0.46200  1.0000
  H   H286      1.0  0.47869  0.04792  0.37820  1.0000
  H   H287      1.0  0.48540  0.03314  0.48271  1.0000
  H   H288      1.0  0.45319  0.03086  0.41113  1.0000
