data_image0
_chemical_formula_structural       C4HNO2C4HNO2C4HNO2C4HNO2C4HNO2C4HNO2C2HNO2C2HNO2C2HNO2C2HNO2C2HNO2C2HNO2C2HNO2C2HNO2C2HNO2C2HNO2C2HNO2C2HNO2NC18H12NC18H12NC18H12NC18H12NC18H12NC18H12NC18H12NC18H12NC18H12NC18H12NC18H12NC18H12C2HNO2C2HNO2C2HNO2C2HNO2C2HNO2C2HNO2C4HNO2C4HNO2C4HNO2C4HNO2C4HNO2C4HNO2C4HNO2C4HNO2C4HNO2C4HNO2C4HNO2C4HNO2
_chemical_formula_sum              "C324 H180 N48 O72"
_cell_length_a       64.4346
_cell_length_b       64.4347
_cell_length_c       14.7574
_cell_angle_alpha    90
_cell_angle_beta     90
_cell_angle_gamma    120

_space_group_name_H-M_alt    "P 1"
_space_group_IT_number       1

loop_
  _space_group_symop_operation_xyz
  'x, y, z'

loop_
  _atom_site_type_symbol
  _atom_site_label
  _atom_site_symmetry_multiplicity
  _atom_site_fract_x
  _atom_site_fract_y
  _atom_site_fract_z
  _atom_site_occupancy
  C   C1        1.0  0.21700  0.41676  0.35199  1.0000
  C   C2        1.0  0.21253  0.40300  0.27177  1.0000
  C   C3        1.0  0.20013  0.37750  0.27045  1.0000
  C   C4        1.0  0.19056  0.36411  0.35180  1.0000
  H   H1        1.0  0.21821  0.41151  0.21089  1.0000
  N   N1        1.0  0.19802  0.36534  0.18782  1.0000
  O   O1        1.0  0.21817  0.37039  0.15669  1.0000
  O   O2        1.0  0.18695  0.37003  0.12855  1.0000
  C   C5        1.0  0.59113  0.79168  0.35204  1.0000
  C   C6        1.0  0.60488  0.80097  0.27182  1.0000
  C   C7        1.0  0.63038  0.81406  0.27048  1.0000
  C   C8        1.0  0.64378  0.81789  0.35182  1.0000
  H   H2        1.0  0.59637  0.79812  0.21094  1.0000
  N   N2        1.0  0.64254  0.82411  0.18784  1.0000
  O   O3        1.0  0.63748  0.83920  0.15669  1.0000
  O   O4        1.0  0.63785  0.80834  0.12859  1.0000
  C   C9        1.0  0.21621  0.79090  0.35204  1.0000
  C   C10       1.0  0.20691  0.79537  0.27183  1.0000
  C   C11       1.0  0.19382  0.80776  0.27050  1.0000
  C   C12       1.0  0.18999  0.81734  0.35183  1.0000
  H   H3        1.0  0.20974  0.78968  0.21095  1.0000
  N   N3        1.0  0.18375  0.80986  0.18788  1.0000
  O   O5        1.0  0.16866  0.78971  0.15677  1.0000
  O   O6        1.0  0.19951  0.82093  0.12859  1.0000
  C   C13       1.0  0.79923  0.58280  0.35201  1.0000
  C   C14       1.0  0.80370  0.59656  0.27180  1.0000
  C   C15       1.0  0.81609  0.62205  0.27048  1.0000
  C   C16       1.0  0.82567  0.63545  0.35182  1.0000
  H   H4        1.0  0.79801  0.58805  0.21092  1.0000
  N   N4        1.0  0.81820  0.63422  0.18786  1.0000
  O   O7        1.0  0.79805  0.62916  0.15674  1.0000
  O   O8        1.0  0.82927  0.62953  0.12857  1.0000
  C   C17       1.0  0.42510  0.20788  0.35201  1.0000
  C   C18       1.0  0.41134  0.19859  0.27180  1.0000
  C   C19       1.0  0.38585  0.18550  0.27047  1.0000
  C   C20       1.0  0.37245  0.18166  0.35182  1.0000
  H   H5        1.0  0.41985  0.20143  0.21091  1.0000
  N   N5        1.0  0.37368  0.17544  0.18784  1.0000
  O   O9        1.0  0.37874  0.16035  0.15669  1.0000
  O   O10       1.0  0.37838  0.19121  0.12859  1.0000
  C   C21       1.0  0.80000  0.20866  0.35201  1.0000
  C   C22       1.0  0.80929  0.20418  0.27180  1.0000
  C   C23       1.0  0.82238  0.19179  0.27047  1.0000
  C   C24       1.0  0.82622  0.18222  0.35182  1.0000
  H   H6        1.0  0.80644  0.20985  0.21090  1.0000
  N   N6        1.0  0.83243  0.18967  0.18783  1.0000
  O   O11       1.0  0.84752  0.20981  0.15666  1.0000
  O   O12       1.0  0.81666  0.17859  0.12859  1.0000
  C   C25       1.0  0.18860  0.19372  0.27069  1.0000
  C   C26       1.0  0.20127  0.18089  0.27300  1.0000
  H   H7        1.0  0.19865  0.16955  0.22031  1.0000
  N   N7        1.0  0.17357  0.19100  0.19611  1.0000
  O   O13       1.0  0.15700  0.16968  0.18692  1.0000
  O   O14       1.0  0.18529  0.19778  0.12343  1.0000
  C   C27       1.0  0.81418  0.98633  0.27067  1.0000
  C   C28       1.0  0.82702  0.01183  0.27300  1.0000
  H   H8        1.0  0.83835  0.02055  0.22029  1.0000
  N   N8        1.0  0.81689  0.97402  0.19609  1.0000
  O   O15       1.0  0.83821  0.97876  0.18688  1.0000
  O   O16       1.0  0.81011  0.97895  0.12342  1.0000
  C   C29       1.0  0.02156  0.81930  0.27068  1.0000
  C   C30       1.0  0.99607  0.80664  0.27301  1.0000
  H   H9        1.0  0.98734  0.80925  0.22029  1.0000
  N   N9        1.0  0.03387  0.83432  0.19610  1.0000
  O   O17       1.0  0.02913  0.85090  0.18689  1.0000
  O   O18       1.0  0.02894  0.82261  0.12343  1.0000
  C   C31       1.0  0.82763  0.80585  0.27067  1.0000
  C   C32       1.0  0.81496  0.81868  0.27299  1.0000
  H   H10       1.0  0.81758  0.83002  0.22029  1.0000
  N   N10       1.0  0.84265  0.80856  0.19610  1.0000
  O   O19       1.0  0.85922  0.82988  0.18690  1.0000
  O   O20       1.0  0.83094  0.80178  0.12342  1.0000
  C   C33       1.0  0.20206  0.01324  0.27068  1.0000
  C   C34       1.0  0.18922  0.98774  0.27299  1.0000
  H   H11       1.0  0.17789  0.97902  0.22030  1.0000
  N   N11       1.0  0.19934  0.02555  0.19610  1.0000
  O   O21       1.0  0.17803  0.02081  0.18688  1.0000
  O   O22       1.0  0.20613  0.02062  0.12342  1.0000
  C   C35       1.0  0.99466  0.18026  0.27068  1.0000
  C   C36       1.0  0.02015  0.19292  0.27301  1.0000
  H   H12       1.0  0.02888  0.19031  0.22029  1.0000
  N   N12       1.0  0.98235  0.16524  0.19609  1.0000
  O   O23       1.0  0.98709  0.14867  0.18688  1.0000
  O   O24       1.0  0.98728  0.17696  0.12342  1.0000
  C   C37       1.0  0.24235  0.60694  0.27079  1.0000
  C   C38       1.0  0.24263  0.62901  0.27981  1.0000
  H   H13       1.0  0.24036  0.63634  0.22198  1.0000
  N   N13       1.0  0.23696  0.59513  0.18566  1.0000
  O   O25       1.0  0.21621  0.58939  0.15954  1.0000
  O   O26       1.0  0.25168  0.60780  0.12542  1.0000
  C   C39       1.0  0.40094  0.62685  0.27098  1.0000
  C   C40       1.0  0.37886  0.60505  0.28000  1.0000
  H   H14       1.0  0.37154  0.59546  0.22217  1.0000
  N   N14       1.0  0.41275  0.63326  0.18587  1.0000
  O   O27       1.0  0.41849  0.61824  0.15981  1.0000
  O   O28       1.0  0.40009  0.63530  0.12558  1.0000
  C   C41       1.0  0.38101  0.76551  0.27083  1.0000
  C   C42       1.0  0.40281  0.76524  0.27986  1.0000
  H   H15       1.0  0.41240  0.76750  0.22202  1.0000
  N   N15       1.0  0.37459  0.77089  0.18570  1.0000
  O   O29       1.0  0.38960  0.79165  0.15958  1.0000
  O   O30       1.0  0.37254  0.75618  0.12546  1.0000
  C   C43       1.0  0.77386  0.39260  0.27090  1.0000
  C   C44       1.0  0.77358  0.37053  0.27993  1.0000
  H   H16       1.0  0.77585  0.36320  0.22210  1.0000
  N   N16       1.0  0.77925  0.40441  0.18576  1.0000
  O   O31       1.0  0.80000  0.41015  0.15965  1.0000
  O   O32       1.0  0.76453  0.39174  0.12552  1.0000
  C   C45       1.0  0.61524  0.37271  0.27081  1.0000
  C   C46       1.0  0.63731  0.39450  0.27981  1.0000
  H   H17       1.0  0.64464  0.40409  0.22198  1.0000
  N   N17       1.0  0.60343  0.36629  0.18569  1.0000
  O   O33       1.0  0.59768  0.38130  0.15960  1.0000
  O   O34       1.0  0.61609  0.36424  0.12542  1.0000
  C   C47       1.0  0.63516  0.23396  0.27091  1.0000
  C   C48       1.0  0.61336  0.23422  0.27993  1.0000
  H   H18       1.0  0.60377  0.23195  0.22208  1.0000
  N   N18       1.0  0.64158  0.22856  0.18579  1.0000
  O   O35       1.0  0.62658  0.20780  0.15974  1.0000
  O   O36       1.0  0.64361  0.24326  0.12551  1.0000
  N   N19       1.0  0.13785  0.26009  0.34755  1.0000
  C   C49       1.0  0.11209  0.24709  0.34756  1.0000
  C   C50       1.0  0.15069  0.28592  0.34972  1.0000
  C   C51       1.0  0.15053  0.24698  0.34494  1.0000
  C   C52       1.0  0.14831  0.23128  0.41606  1.0000
  C   C53       1.0  0.16105  0.21869  0.41505  1.0000
  C   C54       1.0  0.17709  0.22162  0.34396  1.0000
  C   C55       1.0  0.17942  0.23756  0.27318  1.0000
  C   C56       1.0  0.16631  0.24981  0.27330  1.0000
  C   C57       1.0  0.09904  0.24034  0.26563  1.0000
  C   C58       1.0  0.07370  0.22803  0.26512  1.0000
  C   C59       1.0  0.05991  0.22118  0.34626  1.0000
  C   C60       1.0  0.07343  0.22787  0.42810  1.0000
  C   C61       1.0  0.09878  0.24073  0.42888  1.0000
  C   C62       1.0  0.14578  0.29955  0.28712  1.0000
  C   C63       1.0  0.15829  0.32486  0.28951  1.0000
  C   C64       1.0  0.17726  0.33802  0.35152  1.0000
  C   C65       1.0  0.18244  0.32423  0.41286  1.0000
  C   C66       1.0  0.16917  0.29888  0.41332  1.0000
  H   H19       1.0  0.06544  0.22454  0.20340  1.0000
  H   H20       1.0  0.10805  0.24479  0.20529  1.0000
  H   H21       1.0  0.10760  0.24523  0.48962  1.0000
  H   H22       1.0  0.06494  0.22311  0.48939  1.0000
  H   H23       1.0  0.13724  0.22884  0.46954  1.0000
  H   H24       1.0  0.15843  0.20719  0.46730  1.0000
  H   H25       1.0  0.13256  0.29105  0.23992  1.0000
  H   H26       1.0  0.15327  0.33369  0.24489  1.0000
  H   H27       1.0  0.19626  0.33261  0.45790  1.0000
  H   H28       1.0  0.17357  0.28980  0.45912  1.0000
  H   H29       1.0  0.16863  0.26123  0.22116  1.0000
  H   H30       1.0  0.19102  0.24063  0.22086  1.0000
  N   N20       1.0  0.74780  0.86920  0.34755  1.0000
  C   C67       1.0  0.76079  0.85644  0.34755  1.0000
  C   C68       1.0  0.72196  0.85622  0.34970  1.0000
  C   C69       1.0  0.76091  0.89499  0.34492  1.0000
  C   C70       1.0  0.77661  0.90848  0.41604  1.0000
  C   C71       1.0  0.78920  0.93380  0.41504  1.0000
  C   C72       1.0  0.78628  0.94692  0.34394  1.0000
  C   C73       1.0  0.77033  0.93331  0.27317  1.0000
  C   C74       1.0  0.75808  0.90794  0.27327  1.0000
  C   C75       1.0  0.76755  0.85014  0.26562  1.0000
  C   C76       1.0  0.77984  0.83710  0.26511  1.0000
  C   C77       1.0  0.78671  0.83017  0.34625  1.0000
  C   C78       1.0  0.78002  0.83700  0.42809  1.0000
  C   C79       1.0  0.76715  0.84950  0.42888  1.0000
  C   C80       1.0  0.70834  0.83768  0.28710  1.0000
  C   C81       1.0  0.68302  0.82487  0.28953  1.0000
  C   C82       1.0  0.66987  0.83068  0.35152  1.0000
  C   C83       1.0  0.68366  0.84966  0.41285  1.0000
  C   C84       1.0  0.70901  0.86174  0.41330  1.0000
  H   H31       1.0  0.78335  0.83235  0.20340  1.0000
  H   H32       1.0  0.76309  0.85471  0.20527  1.0000
  H   H33       1.0  0.76265  0.85381  0.48962  1.0000
  H   H34       1.0  0.78478  0.83328  0.48938  1.0000
  H   H35       1.0  0.77905  0.89985  0.46953  1.0000
  H   H36       1.0  0.80070  0.94268  0.46728  1.0000
  H   H37       1.0  0.71684  0.83296  0.23994  1.0000
  H   H38       1.0  0.67419  0.81102  0.24493  1.0000
  H   H39       1.0  0.67528  0.85510  0.45788  1.0000
  H   H40       1.0  0.71809  0.87523  0.45910  1.0000
  H   H41       1.0  0.74665  0.89885  0.22114  1.0000
  H   H42       1.0  0.76727  0.94185  0.22085  1.0000
  N   N21       1.0  0.13869  0.87005  0.34757  1.0000
  C   C85       1.0  0.15145  0.89581  0.34757  1.0000
  C   C86       1.0  0.15167  0.85720  0.34972  1.0000
  C   C87       1.0  0.11290  0.85737  0.34496  1.0000
  C   C88       1.0  0.09941  0.85959  0.41606  1.0000
  C   C89       1.0  0.07409  0.84686  0.41505  1.0000
  C   C90       1.0  0.06097  0.83081  0.34396  1.0000
  C   C91       1.0  0.07459  0.82849  0.27318  1.0000
  C   C92       1.0  0.09995  0.84160  0.27329  1.0000
  C   C93       1.0  0.15775  0.90886  0.26564  1.0000
  C   C94       1.0  0.17079  0.93419  0.26513  1.0000
  C   C95       1.0  0.17772  0.94799  0.34627  1.0000
  C   C96       1.0  0.17089  0.93447  0.42811  1.0000
  C   C97       1.0  0.15839  0.90912  0.42890  1.0000
  C   C98       1.0  0.17020  0.86211  0.28710  1.0000
  C   C99       1.0  0.18302  0.84961  0.28953  1.0000
  C   C100      1.0  0.17720  0.83064  0.35154  1.0000
  C   C101      1.0  0.15824  0.82546  0.41290  1.0000
  C   C102      1.0  0.14616  0.83873  0.41335  1.0000
  H   H43       1.0  0.17554  0.94245  0.20341  1.0000
  H   H44       1.0  0.15319  0.89984  0.20530  1.0000
  H   H45       1.0  0.15408  0.90030  0.48964  1.0000
  H   H46       1.0  0.17461  0.94296  0.48939  1.0000
  H   H47       1.0  0.10804  0.87066  0.46955  1.0000
  H   H48       1.0  0.06521  0.84948  0.46730  1.0000
  H   H49       1.0  0.17493  0.87533  0.23993  1.0000
  H   H50       1.0  0.19686  0.85462  0.24491  1.0000
  H   H51       1.0  0.15280  0.81164  0.45795  1.0000
  H   H52       1.0  0.13267  0.83433  0.45916  1.0000
  H   H53       1.0  0.10904  0.83927  0.22117  1.0000
  H   H54       1.0  0.06605  0.81688  0.22087  1.0000
  N   N22       1.0  0.87837  0.73947  0.34755  1.0000
  C   C103      1.0  0.90413  0.75247  0.34757  1.0000
  C   C104      1.0  0.86553  0.71364  0.34972  1.0000
  C   C105      1.0  0.86569  0.75257  0.34494  1.0000
  C   C106      1.0  0.86791  0.76828  0.41605  1.0000
  C   C107      1.0  0.85518  0.78087  0.41504  1.0000
  C   C108      1.0  0.83913  0.77795  0.34394  1.0000
  C   C109      1.0  0.83681  0.76201  0.27316  1.0000
  C   C110      1.0  0.84992  0.74975  0.27328  1.0000
  C   C111      1.0  0.91718  0.75922  0.26564  1.0000
  C   C112      1.0  0.94252  0.77152  0.26513  1.0000
  C   C113      1.0  0.95632  0.77838  0.34627  1.0000
  C   C114      1.0  0.94279  0.77169  0.42810  1.0000
  C   C115      1.0  0.91744  0.75883  0.42889  1.0000
  C   C116      1.0  0.87045  0.70001  0.28714  1.0000
  C   C117      1.0  0.85794  0.67470  0.28954  1.0000
  C   C118      1.0  0.83897  0.66154  0.35154  1.0000
  C   C119      1.0  0.83379  0.67533  0.41289  1.0000
  C   C120      1.0  0.84706  0.70068  0.41336  1.0000
  H   H55       1.0  0.95078  0.77502  0.20341  1.0000
  H   H56       1.0  0.90817  0.75476  0.20529  1.0000
  H   H57       1.0  0.90862  0.75433  0.48963  1.0000
  H   H58       1.0  0.95128  0.77646  0.48939  1.0000
  H   H59       1.0  0.87898  0.77072  0.46953  1.0000
  H   H60       1.0  0.85780  0.79237  0.46728  1.0000
  H   H61       1.0  0.88365  0.70851  0.23992  1.0000
  H   H62       1.0  0.86295  0.66586  0.24491  1.0000
  H   H63       1.0  0.81997  0.66695  0.45792  1.0000
  H   H64       1.0  0.84265  0.70976  0.45912  1.0000
  H   H65       1.0  0.84759  0.73832  0.22116  1.0000
  H   H66       1.0  0.82520  0.75893  0.22086  1.0000
  N   N23       1.0  0.26843  0.13036  0.34756  1.0000
  C   C121      1.0  0.25544  0.14312  0.34757  1.0000
  C   C122      1.0  0.29427  0.14335  0.34974  1.0000
  C   C123      1.0  0.25533  0.10458  0.34495  1.0000
  C   C124      1.0  0.23962  0.09109  0.41605  1.0000
  C   C125      1.0  0.22703  0.06576  0.41505  1.0000
  C   C126      1.0  0.22996  0.05264  0.34396  1.0000
  C   C127      1.0  0.24590  0.06626  0.27319  1.0000
  C   C128      1.0  0.25815  0.09162  0.27330  1.0000
  C   C129      1.0  0.24867  0.14941  0.26564  1.0000
  C   C130      1.0  0.23638  0.16245  0.26513  1.0000
  C   C131      1.0  0.22952  0.16939  0.34627  1.0000
  C   C132      1.0  0.23621  0.16256  0.42810  1.0000
  C   C133      1.0  0.24908  0.15008  0.42889  1.0000
  C   C134      1.0  0.30789  0.16190  0.28715  1.0000
  C   C135      1.0  0.33321  0.17470  0.28956  1.0000
  C   C136      1.0  0.34636  0.16888  0.35154  1.0000
  C   C137      1.0  0.33257  0.14991  0.41288  1.0000
  C   C138      1.0  0.30722  0.13784  0.41337  1.0000
  H   H67       1.0  0.23288  0.16721  0.20341  1.0000
  H   H68       1.0  0.25314  0.14486  0.20529  1.0000
  H   H69       1.0  0.25358  0.14576  0.48963  1.0000
  H   H70       1.0  0.23145  0.16629  0.48939  1.0000
  H   H71       1.0  0.23718  0.09972  0.46953  1.0000
  H   H72       1.0  0.21552  0.05689  0.46728  1.0000
  H   H73       1.0  0.29939  0.16661  0.23995  1.0000
  H   H74       1.0  0.34204  0.18855  0.24494  1.0000
  H   H75       1.0  0.34095  0.14446  0.45788  1.0000
  H   H76       1.0  0.29814  0.12433  0.45908  1.0000
  H   H77       1.0  0.26958  0.10072  0.22118  1.0000
  H   H78       1.0  0.24897  0.05772  0.22089  1.0000
  N   N24       1.0  0.87753  0.12952  0.34755  1.0000
  C   C139      1.0  0.86478  0.10376  0.34755  1.0000
  C   C140      1.0  0.86454  0.14236  0.34972  1.0000
  C   C141      1.0  0.90332  0.14220  0.34494  1.0000
  C   C142      1.0  0.91681  0.13998  0.41605  1.0000
  C   C143      1.0  0.94213  0.15271  0.41503  1.0000
  C   C144      1.0  0.95525  0.16876  0.34394  1.0000
  C   C145      1.0  0.94164  0.17109  0.27318  1.0000
  C   C146      1.0  0.91627  0.15797  0.27327  1.0000
  C   C147      1.0  0.85849  0.09071  0.26563  1.0000
  C   C148      1.0  0.84545  0.06537  0.26511  1.0000
  C   C149      1.0  0.83851  0.05158  0.34625  1.0000
  C   C150      1.0  0.84533  0.06510  0.42810  1.0000
  C   C151      1.0  0.85782  0.09045  0.42888  1.0000
  C   C152      1.0  0.84599  0.13744  0.28714  1.0000
  C   C153      1.0  0.83319  0.14994  0.28956  1.0000
  C   C154      1.0  0.83901  0.16892  0.35153  1.0000
  C   C155      1.0  0.85798  0.17411  0.41285  1.0000
  C   C156      1.0  0.87006  0.16083  0.41335  1.0000
  H   H79       1.0  0.84069  0.05712  0.20340  1.0000
  H   H80       1.0  0.86304  0.09973  0.20528  1.0000
  H   H81       1.0  0.86214  0.09927  0.48962  1.0000
  H   H82       1.0  0.84161  0.05661  0.48938  1.0000
  H   H83       1.0  0.90818  0.12891  0.46953  1.0000
  H   H84       1.0  0.95101  0.15009  0.46728  1.0000
  H   H85       1.0  0.84128  0.12422  0.23995  1.0000
  H   H86       1.0  0.81933  0.14492  0.24495  1.0000
  H   H87       1.0  0.86343  0.18794  0.45786  1.0000
  H   H88       1.0  0.88357  0.16526  0.45906  1.0000
  H   H89       1.0  0.90718  0.16031  0.22116  1.0000
  H   H90       1.0  0.95017  0.18269  0.22086  1.0000
  N   N25       1.0  0.26916  0.52124  0.35206  1.0000
  C   C157      1.0  0.29447  0.53507  0.36932  1.0000
  C   C158      1.0  0.25622  0.49547  0.35187  1.0000
  C   C159      1.0  0.25806  0.53552  0.33618  1.0000
  C   C160      1.0  0.26739  0.55342  0.26817  1.0000
  C   C161      1.0  0.26349  0.57308  0.27112  1.0000
  C   C162      1.0  0.24873  0.57491  0.33812  1.0000
  C   C163      1.0  0.23726  0.55551  0.39968  1.0000
  C   C164      1.0  0.24234  0.53660  0.40035  1.0000
  C   C165      1.0  0.31118  0.53723  0.30282  1.0000
  C   C166      1.0  0.33508  0.55630  0.30478  1.0000
  C   C167      1.0  0.34331  0.57490  0.37057  1.0000
  C   C168      1.0  0.32660  0.57156  0.44007  1.0000
  C   C169      1.0  0.30305  0.55186  0.44101  1.0000
  C   C170      1.0  0.25814  0.48219  0.27953  1.0000
  C   C171      1.0  0.24582  0.45685  0.28038  1.0000
  C   C172      1.0  0.23013  0.44305  0.35197  1.0000
  C   C173      1.0  0.22819  0.45681  0.42358  1.0000
  C   C174      1.0  0.24112  0.48215  0.42438  1.0000
  H   H91       1.0  0.34605  0.55696  0.25358  1.0000
  H   H92       1.0  0.30565  0.52609  0.24798  1.0000
  H   H93       1.0  0.29124  0.55166  0.48784  1.0000
  H   H94       1.0  0.33060  0.58444  0.48799  1.0000
  H   H95       1.0  0.27963  0.55389  0.22290  1.0000
  H   H96       1.0  0.27300  0.58693  0.22714  1.0000
  H   H97       1.0  0.26868  0.49094  0.22502  1.0000
  H   H98       1.0  0.24892  0.44866  0.22711  1.0000
  H   H99       1.0  0.21695  0.44860  0.47696  1.0000
  H   H100      1.0  0.23941  0.49087  0.47915  1.0000
  H   H101      1.0  0.23589  0.52468  0.45270  1.0000
  H   H102      1.0  0.22626  0.55579  0.44908  1.0000
  N   N26       1.0  0.48665  0.73934  0.35224  1.0000
  C   C175      1.0  0.47282  0.75084  0.36918  1.0000
  C   C176      1.0  0.51242  0.75218  0.35199  1.0000
  C   C177      1.0  0.47237  0.71396  0.33633  1.0000
  C   C178      1.0  0.45451  0.70538  0.26817  1.0000
  C   C179      1.0  0.43482  0.68185  0.27127  1.0000
  C   C180      1.0  0.43297  0.66525  0.33830  1.0000
  C   C181      1.0  0.45237  0.67317  0.39985  1.0000
  C   C182      1.0  0.47124  0.69717  0.40067  1.0000
  C   C183      1.0  0.47063  0.76537  0.30265  1.0000
  C   C184      1.0  0.45155  0.77018  0.30454  1.0000
  C   C185      1.0  0.43297  0.75986  0.37042  1.0000
  C   C186      1.0  0.43634  0.74655  0.44008  1.0000
  C   C187      1.0  0.45598  0.74260  0.44070  1.0000
  C   C188      1.0  0.52569  0.76738  0.27965  1.0000
  C   C189      1.0  0.55103  0.78040  0.28048  1.0000
  C   C190      1.0  0.56483  0.77851  0.35204  1.0000
  C   C191      1.0  0.55108  0.76280  0.42364  1.0000
  C   C192      1.0  0.52575  0.75039  0.42447  1.0000
  H   H103      1.0  0.45089  0.78049  0.25331  1.0000
  H   H104      1.0  0.48178  0.77098  0.24781  1.0000
  H   H105      1.0  0.45625  0.73109  0.48786  1.0000
  H   H106      1.0  0.42346  0.73765  0.48800  1.0000
  H   H107      1.0  0.45400  0.71715  0.22299  1.0000
  H   H108      1.0  0.42097  0.67751  0.22730  1.0000
  H   H109      1.0  0.51693  0.76916  0.22515  1.0000
  H   H110      1.0  0.55922  0.79169  0.22721  1.0000
  H   H111      1.0  0.55930  0.75978  0.47701  1.0000
  H   H112      1.0  0.51703  0.73996  0.47924  1.0000
  H   H113      1.0  0.48319  0.70264  0.45293  1.0000
  H   H114      1.0  0.45207  0.66191  0.44934  1.0000
  N   N27       1.0  0.26853  0.73874  0.35227  1.0000
  C   C193      1.0  0.25702  0.71341  0.36920  1.0000
  C   C194      1.0  0.25570  0.75168  0.35199  1.0000
  C   C195      1.0  0.29389  0.74982  0.33624  1.0000
  C   C196      1.0  0.30247  0.74054  0.26808  1.0000
  C   C197      1.0  0.32601  0.74439  0.27114  1.0000
  C   C198      1.0  0.34261  0.75914  0.33817  1.0000
  C   C199      1.0  0.33469  0.77062  0.39972  1.0000
  C   C200      1.0  0.31069  0.76550  0.40052  1.0000
  C   C201      1.0  0.24248  0.69669  0.30267  1.0000
  C   C202      1.0  0.23765  0.67279  0.30460  1.0000
  C   C203      1.0  0.24801  0.66456  0.37037  1.0000
  C   C204      1.0  0.26135  0.68124  0.43998  1.0000
  C   C205      1.0  0.26526  0.70482  0.44073  1.0000
  C   C206      1.0  0.24049  0.74975  0.27966  1.0000
  C   C207      1.0  0.22748  0.76208  0.28047  1.0000
  C   C208      1.0  0.22938  0.77778  0.35204  1.0000
  C   C209      1.0  0.24508  0.77973  0.42364  1.0000
  C   C210      1.0  0.25749  0.76680  0.42447  1.0000
  H   H115      1.0  0.22737  0.66184  0.25330  1.0000
  H   H116      1.0  0.23688  0.70223  0.24783  1.0000
  H   H117      1.0  0.27676  0.71659  0.48791  1.0000
  H   H118      1.0  0.27020  0.67724  0.48803  1.0000
  H   H119      1.0  0.29070  0.72824  0.22294  1.0000
  H   H120      1.0  0.33035  0.73486  0.22725  1.0000
  H   H121      1.0  0.23871  0.73921  0.22517  1.0000
  H   H122      1.0  0.21618  0.75897  0.22723  1.0000
  H   H123      1.0  0.24810  0.79097  0.47701  1.0000
  H   H124      1.0  0.26792  0.76851  0.47924  1.0000
  H   H125      1.0  0.30523  0.77199  0.45277  1.0000
  H   H126      1.0  0.34597  0.78161  0.44913  1.0000
  N   N28       1.0  0.74706  0.47832  0.35217  1.0000
  C   C211      1.0  0.72174  0.46451  0.36914  1.0000
  C   C212      1.0  0.76001  0.50409  0.35192  1.0000
  C   C213      1.0  0.75815  0.46403  0.33630  1.0000
  C   C214      1.0  0.74882  0.44612  0.26833  1.0000
  C   C215      1.0  0.75273  0.42648  0.27117  1.0000
  C   C216      1.0  0.76749  0.42464  0.33821  1.0000
  C   C217      1.0  0.77895  0.44403  0.39979  1.0000
  C   C218      1.0  0.77385  0.46293  0.40052  1.0000
  C   C219      1.0  0.70502  0.46232  0.30259  1.0000
  C   C220      1.0  0.68112  0.44324  0.30448  1.0000
  C   C221      1.0  0.67287  0.42466  0.37032  1.0000
  C   C222      1.0  0.68956  0.42802  0.43995  1.0000
  C   C223      1.0  0.71314  0.44767  0.44068  1.0000
  C   C224      1.0  0.75808  0.51737  0.27959  1.0000
  C   C225      1.0  0.77041  0.54271  0.28041  1.0000
  C   C226      1.0  0.78610  0.55651  0.35200  1.0000
  C   C227      1.0  0.78805  0.54275  0.42360  1.0000
  C   C228      1.0  0.77512  0.51741  0.42441  1.0000
  H   H127      1.0  0.67016  0.44259  0.25326  1.0000
  H   H128      1.0  0.71056  0.47346  0.24775  1.0000
  H   H129      1.0  0.72491  0.44795  0.48788  1.0000
  H   H130      1.0  0.68556  0.41517  0.48804  1.0000
  H   H131      1.0  0.73660  0.44566  0.22291  1.0000
  H   H132      1.0  0.74323  0.41263  0.22721  1.0000
  H   H133      1.0  0.74754  0.50861  0.22510  1.0000
  H   H134      1.0  0.76729  0.55090  0.22717  1.0000
  H   H135      1.0  0.79929  0.55097  0.47697  1.0000
  H   H136      1.0  0.77683  0.50869  0.47918  1.0000
  H   H137      1.0  0.78032  0.47486  0.45285  1.0000
  H   H138      1.0  0.78993  0.44374  0.44922  1.0000
  N   N29       1.0  0.52958  0.26019  0.35217  1.0000
  C   C229      1.0  0.54341  0.24868  0.36913  1.0000
  C   C230      1.0  0.50382  0.24736  0.35192  1.0000
  C   C231      1.0  0.54388  0.28558  0.33631  1.0000
  C   C232      1.0  0.56176  0.29414  0.26826  1.0000
  C   C233      1.0  0.58141  0.31769  0.27120  1.0000
  C   C234      1.0  0.58322  0.33430  0.33815  1.0000
  C   C235      1.0  0.56383  0.32636  0.39972  1.0000
  C   C236      1.0  0.54494  0.30236  0.40052  1.0000
  C   C237      1.0  0.54556  0.23413  0.30261  1.0000
  C   C238      1.0  0.56463  0.22931  0.30456  1.0000
  C   C239      1.0  0.58321  0.23963  0.37045  1.0000
  C   C240      1.0  0.57986  0.25298  0.44002  1.0000
  C   C241      1.0  0.56021  0.25691  0.44075  1.0000
  C   C242      1.0  0.49053  0.23218  0.27953  1.0000
  C   C243      1.0  0.46519  0.21917  0.28036  1.0000
  C   C244      1.0  0.45139  0.22104  0.35200  1.0000
  C   C245      1.0  0.46516  0.23673  0.42364  1.0000
  C   C246      1.0  0.49049  0.24913  0.42446  1.0000
  H   H139      1.0  0.56528  0.21899  0.25336  1.0000
  H   H140      1.0  0.53442  0.22853  0.24777  1.0000
  H   H141      1.0  0.55994  0.26842  0.48790  1.0000
  H   H142      1.0  0.59271  0.26182  0.48811  1.0000
  H   H143      1.0  0.56222  0.28238  0.22284  1.0000
  H   H144      1.0  0.59524  0.32206  0.22709  1.0000
  H   H145      1.0  0.49929  0.23042  0.22500  1.0000
  H   H146      1.0  0.45701  0.20789  0.22708  1.0000
  H   H147      1.0  0.45694  0.23974  0.47706  1.0000
  H   H148      1.0  0.49921  0.25954  0.47927  1.0000
  H   H149      1.0  0.53302  0.29689  0.45286  1.0000
  H   H150      1.0  0.56411  0.33763  0.44917  1.0000
  N   N30       1.0  0.74768  0.26082  0.35217  1.0000
  C   C247      1.0  0.75918  0.28614  0.36933  1.0000
  C   C248      1.0  0.76051  0.24788  0.35192  1.0000
  C   C249      1.0  0.72230  0.24976  0.33628  1.0000
  C   C250      1.0  0.71374  0.25907  0.26825  1.0000
  C   C251      1.0  0.69018  0.25517  0.27122  1.0000
  C   C252      1.0  0.67359  0.24038  0.33822  1.0000
  C   C253      1.0  0.68152  0.22890  0.39972  1.0000
  C   C254      1.0  0.70553  0.23404  0.40052  1.0000
  C   C255      1.0  0.77371  0.30284  0.30274  1.0000
  C   C256      1.0  0.77854  0.32674  0.30466  1.0000
  C   C257      1.0  0.76820  0.33499  0.37050  1.0000
  C   C258      1.0  0.75490  0.31831  0.44018  1.0000
  C   C259      1.0  0.75100  0.29474  0.44103  1.0000
  C   C260      1.0  0.77570  0.24979  0.27955  1.0000
  C   C261      1.0  0.78871  0.23746  0.28038  1.0000
  C   C262      1.0  0.78683  0.22178  0.35200  1.0000
  C   C263      1.0  0.77114  0.21985  0.42364  1.0000
  C   C264      1.0  0.75874  0.23278  0.42445  1.0000
  H   H151      1.0  0.78880  0.33767  0.25330  1.0000
  H   H152      1.0  0.77926  0.29727  0.24781  1.0000
  H   H153      1.0  0.73947  0.28294  0.48807  1.0000
  H   H154      1.0  0.74605  0.32232  0.48826  1.0000
  H   H155      1.0  0.72548  0.27128  0.22281  1.0000
  H   H156      1.0  0.68580  0.26462  0.22713  1.0000
  H   H157      1.0  0.77747  0.26031  0.22504  1.0000
  H   H158      1.0  0.80000  0.24056  0.22711  1.0000
  H   H159      1.0  0.76813  0.20863  0.47704  1.0000
  H   H160      1.0  0.74832  0.23109  0.47926  1.0000
  H   H161      1.0  0.71100  0.22758  0.45284  1.0000
  H   H162      1.0  0.67027  0.21794  0.44924  1.0000
  C   C265      1.0  0.19449  0.37747  0.43326  1.0000
  C   C266      1.0  0.20770  0.40296  0.43213  1.0000
  H   H163      1.0  0.21055  0.41145  0.49307  1.0000
  N   N31       1.0  0.18436  0.36525  0.51572  1.0000
  O   O37       1.0  0.16938  0.37043  0.54709  1.0000
  O   O38       1.0  0.20011  0.36978  0.57489  1.0000
  C   C267      1.0  0.63042  0.80846  0.43329  1.0000
  C   C268      1.0  0.60493  0.79617  0.43218  1.0000
  H   H164      1.0  0.59644  0.79053  0.49312  1.0000
  N   N32       1.0  0.64264  0.81056  0.51575  1.0000
  O   O39       1.0  0.63747  0.79041  0.54714  1.0000
  O   O40       1.0  0.63812  0.82179  0.57490  1.0000
  C   C269      1.0  0.19944  0.81343  0.43330  1.0000
  C   C270      1.0  0.21172  0.80022  0.43218  1.0000
  H   H165      1.0  0.21736  0.79737  0.49312  1.0000
  N   N33       1.0  0.19734  0.82355  0.51575  1.0000
  O   O41       1.0  0.21750  0.83854  0.54711  1.0000
  O   O42       1.0  0.18612  0.80780  0.57493  1.0000
  C   C271      1.0  0.82175  0.62209  0.43329  1.0000
  C   C272      1.0  0.80854  0.59660  0.43216  1.0000
  H   H166      1.0  0.80569  0.58811  0.49309  1.0000
  N   N34       1.0  0.83187  0.63431  0.51575  1.0000
  O   O43       1.0  0.84685  0.62913  0.54711  1.0000
  O   O44       1.0  0.81612  0.62978  0.57491  1.0000
  C   C273      1.0  0.38581  0.19110  0.43329  1.0000
  C   C274      1.0  0.41131  0.20338  0.43216  1.0000
  H   H167      1.0  0.41979  0.20902  0.49310  1.0000
  N   N35       1.0  0.37360  0.18900  0.51576  1.0000
  O   O45       1.0  0.37877  0.20916  0.54715  1.0000
  O   O46       1.0  0.37812  0.17777  0.57490  1.0000
  C   C275      1.0  0.81679  0.18615  0.43329  1.0000
  C   C276      1.0  0.80450  0.19936  0.43216  1.0000
  H   H168      1.0  0.79887  0.20222  0.49310  1.0000
  N   N36       1.0  0.81890  0.17604  0.51575  1.0000
  O   O47       1.0  0.79874  0.16106  0.54716  1.0000
  O   O48       1.0  0.83013  0.19180  0.57489  1.0000
  C   C277      1.0  0.21652  0.18259  0.34546  1.0000
  C   C278      1.0  0.21820  0.19805  0.41706  1.0000
  C   C279      1.0  0.20542  0.21077  0.41804  1.0000
  C   C280      1.0  0.19036  0.20888  0.34405  1.0000
  H   H169      1.0  0.22940  0.20068  0.47027  1.0000
  N   N37       1.0  0.20805  0.22593  0.49204  1.0000
  O   O49       1.0  0.22935  0.24252  0.50131  1.0000
  O   O50       1.0  0.20120  0.21437  0.56505  1.0000
  C   C281      1.0  0.82531  0.02538  0.34545  1.0000
  C   C282      1.0  0.80985  0.01160  0.41704  1.0000
  C   C283      1.0  0.79713  0.98610  0.41802  1.0000
  C   C284      1.0  0.79902  0.97293  0.34404  1.0000
  H   H170      1.0  0.80721  0.02017  0.47025  1.0000
  N   N38       1.0  0.78196  0.97356  0.49202  1.0000
  O   O51       1.0  0.76537  0.97828  0.50128  1.0000
  O   O52       1.0  0.79352  0.97828  0.56503  1.0000
  C   C285      1.0  0.98251  0.79139  0.34547  1.0000
  C   C286      1.0  0.99629  0.78971  0.41708  1.0000
  C   C287      1.0  0.02179  0.80249  0.41805  1.0000
  C   C288      1.0  0.03496  0.81755  0.34406  1.0000
  H   H171      1.0  0.98773  0.77850  0.47027  1.0000
  N   N39       1.0  0.03433  0.79986  0.49205  1.0000
  O   O53       1.0  0.02961  0.77855  0.50132  1.0000
  O   O54       1.0  0.02962  0.80671  0.56506  1.0000
  C   C289      1.0  0.79972  0.81698  0.34545  1.0000
  C   C290      1.0  0.79803  0.80153  0.41706  1.0000
  C   C291      1.0  0.81081  0.78880  0.41803  1.0000
  C   C292      1.0  0.82587  0.79069  0.34404  1.0000
  H   H172      1.0  0.78683  0.79888  0.47026  1.0000
  N   N40       1.0  0.80818  0.77363  0.49203  1.0000
  O   O55       1.0  0.78687  0.75705  0.50129  1.0000
  O   O56       1.0  0.81503  0.78519  0.56504  1.0000
  C   C293      1.0  0.19091  0.97419  0.34547  1.0000
  C   C294      1.0  0.20638  0.98796  0.41706  1.0000
  C   C295      1.0  0.21910  0.01347  0.41805  1.0000
  C   C296      1.0  0.21721  0.02664  0.34405  1.0000
  H   H173      1.0  0.20901  0.97940  0.47029  1.0000
  N   N41       1.0  0.23426  0.02600  0.49206  1.0000
  O   O57       1.0  0.25085  0.02128  0.50135  1.0000
  O   O58       1.0  0.22270  0.02129  0.56506  1.0000
  C   C297      1.0  0.03371  0.20817  0.34546  1.0000
  C   C298      1.0  0.01993  0.20986  0.41705  1.0000
  C   C299      1.0  0.99443  0.19708  0.41803  1.0000
  C   C300      1.0  0.98126  0.18202  0.34404  1.0000
  H   H174      1.0  0.02850  0.22106  0.47026  1.0000
  N   N42       1.0  0.98189  0.19971  0.49204  1.0000
  O   O59       1.0  0.98661  0.22102  0.50130  1.0000
  O   O60       1.0  0.98661  0.19286  0.56504  1.0000
  C   C301      1.0  0.24657  0.64129  0.36344  1.0000
  C   C302      1.0  0.25037  0.62996  0.43882  1.0000
  C   C303      1.0  0.25131  0.60848  0.43190  1.0000
  C   C304      1.0  0.24705  0.59640  0.34713  1.0000
  H   H175      1.0  0.25292  0.63753  0.50159  1.0000
  N   N43       1.0  0.25775  0.59982  0.50913  1.0000
  O   O61       1.0  0.27850  0.61450  0.53652  1.0000
  O   O62       1.0  0.24325  0.59506  0.57345  1.0000
  C   C305      1.0  0.36656  0.59673  0.36361  1.0000
  C   C306      1.0  0.37789  0.61186  0.43898  1.0000
  C   C307      1.0  0.39937  0.63429  0.43206  1.0000
  C   C308      1.0  0.41147  0.64210  0.34730  1.0000
  H   H176      1.0  0.37032  0.60686  0.50174  1.0000
  N   N44       1.0  0.40803  0.64940  0.50926  1.0000
  O   O63       1.0  0.39336  0.65548  0.53658  1.0000
  O   O64       1.0  0.41278  0.63966  0.57362  1.0000
  C   C309      1.0  0.41114  0.76128  0.36348  1.0000
  C   C310      1.0  0.39601  0.75748  0.43886  1.0000
  C   C311      1.0  0.37359  0.75654  0.43195  1.0000
  C   C312      1.0  0.36576  0.76079  0.34716  1.0000
  H   H177      1.0  0.40103  0.75493  0.50163  1.0000
  N   N45       1.0  0.35848  0.75010  0.50917  1.0000
  O   O65       1.0  0.35242  0.72936  0.53656  1.0000
  O   O66       1.0  0.36823  0.76460  0.57348  1.0000
  C   C313      1.0  0.76963  0.35825  0.36357  1.0000
  C   C314      1.0  0.76584  0.36958  0.43893  1.0000
  C   C315      1.0  0.76489  0.39106  0.43201  1.0000
  C   C316      1.0  0.76915  0.40314  0.34722  1.0000
  H   H178      1.0  0.76330  0.36202  0.50171  1.0000
  N   N46       1.0  0.75845  0.39973  0.50923  1.0000
  O   O67       1.0  0.73771  0.38504  0.53662  1.0000
  O   O68       1.0  0.77295  0.40448  0.57355  1.0000
  C   C317      1.0  0.64961  0.40284  0.36342  1.0000
  C   C318      1.0  0.63828  0.38772  0.43881  1.0000
  C   C319      1.0  0.61680  0.36529  0.43191  1.0000
  C   C320      1.0  0.60471  0.35746  0.34713  1.0000
  H   H179      1.0  0.64585  0.39272  0.50157  1.0000
  N   N47       1.0  0.60814  0.35018  0.50914  1.0000
  O   O69       1.0  0.62283  0.34412  0.53650  1.0000
  O   O70       1.0  0.60339  0.35993  0.57346  1.0000
  C   C321      1.0  0.60503  0.23819  0.36353  1.0000
  C   C322      1.0  0.62016  0.24200  0.43890  1.0000
  C   C323      1.0  0.64259  0.24295  0.43199  1.0000
  C   C324      1.0  0.65042  0.23869  0.34722  1.0000
  H   H180      1.0  0.61516  0.24456  0.50167  1.0000
  N   N48       1.0  0.65771  0.24942  0.50920  1.0000
  O   O71       1.0  0.66376  0.27016  0.53654  1.0000
  O   O72       1.0  0.64797  0.23493  0.57355  1.0000
