data_image0
_chemical_formula_structural       C4HC3NHCO2HC4HC3NHCO2HCNC2H2CO2HCNC2H2CO2HCNC2H2CO2HCNC2H2CO2HC4HC3NHCO2HC4HC3NHCO2HC4HC3NHCO2HC4HC3NHCO2HCNC2H2CO2HCNC2H2CO2HCNC2H2CO2HCNC2H2CO2HC4HC3NHCO2HC4HC3NHCO2HC4HC3NHCO2HC4HC3NHCO2HC6H3C6H3C6H3C6H3C6H3C6H3C6H3C6H3C6H3C6H3C6H3C6H3CNC2H2CO2HCNC2H2CO2HC4HC3NHCO2HC4HC3NHCO2HC4HC3NHCO2HC4HC3NHCO2HCNC2H2CO2HCNC2H2CO2HCNC2H2CO2HCNC2H2CO2HC4HC3NHCO2HC4HC3NHCO2HC4HC3NHCO2HC4HC3NHCO2HCNC2H2CO2HCNC2H2CO2HCNC2H2CO2HCNC2H2CO2H
_chemical_formula_sum              "C288 H144 N36 O72"
_cell_length_a       51.608
_cell_length_b       51.4493
_cell_length_c       14.945
_cell_angle_alpha    90
_cell_angle_beta     90
_cell_angle_gamma    90.1797

_space_group_name_H-M_alt    "P 1"
_space_group_IT_number       1

loop_
  _space_group_symop_operation_xyz
  'x, y, z'

loop_
  _atom_site_type_symbol
  _atom_site_label
  _atom_site_symmetry_multiplicity
  _atom_site_fract_x
  _atom_site_fract_y
  _atom_site_fract_z
  _atom_site_occupancy
  C   C1        1.0  0.04941  0.45207  0.32875  1.0000
  C   C2        1.0  0.01149  0.49193  0.32604  1.0000
  C   C3        1.0  0.01706  0.47782  0.24610  1.0000
  C   C4        1.0  0.03610  0.45799  0.24891  1.0000
  H   H1        1.0  0.04078  0.44805  0.19168  1.0000
  C   C5        1.0  0.99266  0.51233  0.33367  1.0000
  C   C6        1.0  0.95239  0.55039  0.33738  1.0000
  C   C7        1.0  0.95109  0.52787  0.28342  1.0000
  N   N1        1.0  0.97067  0.51037  0.28377  1.0000
  H   H2        1.0  0.93584  0.52464  0.24126  1.0000
  C   C8        1.0  0.00590  0.48399  0.16468  1.0000
  O   O1        1.0  0.99492  0.46680  0.12221  1.0000
  O   O2        1.0  0.01463  0.50319  0.12505  1.0000
  H   H3        1.0  0.00997  0.50785  0.07032  1.0000
  C   C9        1.0  0.54944  0.04860  0.32908  1.0000
  C   C10       1.0  0.50944  0.01059  0.32649  1.0000
  C   C11       1.0  0.52360  0.01610  0.24660  1.0000
  C   C12       1.0  0.54348  0.03519  0.24933  1.0000
  H   H4        1.0  0.55343  0.03986  0.19209  1.0000
  C   C13       1.0  0.48892  0.99178  0.33413  1.0000
  C   C14       1.0  0.45057  0.95154  0.33772  1.0000
  C   C15       1.0  0.47303  0.95014  0.28387  1.0000
  N   N2        1.0  0.49066  0.96971  0.28428  1.0000
  H   H5        1.0  0.47611  0.93483  0.24175  1.0000
  C   C16       1.0  0.51740  0.00485  0.16523  1.0000
  O   O3        1.0  0.53448  0.99377  0.12300  1.0000
  O   O4        1.0  0.49837  0.01363  0.12534  1.0000
  H   H6        1.0  0.49372  0.00893  0.07061  1.0000
  C   C17       1.0  0.07653  0.34362  0.26729  1.0000
  N   N3        1.0  0.07138  0.31789  0.27464  1.0000
  C   C18       1.0  0.07361  0.26052  0.29203  1.0000
  C   C19       1.0  0.06692  0.23378  0.29394  1.0000
  H   H7        1.0  0.07708  0.22111  0.25446  1.0000
  H   H8        1.0  0.08252  0.35085  0.20699  1.0000
  C   C20       1.0  0.09501  0.26834  0.24213  1.0000
  O   O5        1.0  0.09441  0.26433  0.16151  1.0000
  O   O6        1.0  0.11689  0.26926  0.27546  1.0000
  H   H9        1.0  0.12007  0.27053  0.33356  1.0000
  C   C21       1.0  0.92154  0.65902  0.26991  1.0000
  N   N4        1.0  0.92692  0.68472  0.27685  1.0000
  C   C22       1.0  0.92605  0.74209  0.29323  1.0000
  C   C23       1.0  0.93299  0.76877  0.29461  1.0000
  H   H10       1.0  0.92275  0.78150  0.25566  1.0000
  H   H11       1.0  0.91469  0.65192  0.21054  1.0000
  C   C24       1.0  0.90432  0.73451  0.24460  1.0000
  O   O7        1.0  0.90484  0.73808  0.16373  1.0000
  O   O8        1.0  0.88251  0.73453  0.27855  1.0000
  H   H12       1.0  0.87943  0.73366  0.33681  1.0000
  C   C25       1.0  0.65765  0.07734  0.26732  1.0000
  N   N5        1.0  0.68329  0.07224  0.27465  1.0000
  C   C26       1.0  0.74046  0.07422  0.29172  1.0000
  C   C27       1.0  0.76711  0.06761  0.29356  1.0000
  H   H13       1.0  0.77975  0.07789  0.25419  1.0000
  H   H14       1.0  0.65054  0.08376  0.20746  1.0000
  C   C28       1.0  0.73276  0.09571  0.24207  1.0000
  O   O9        1.0  0.73664  0.09513  0.16138  1.0000
  O   O10       1.0  0.73211  0.11765  0.27549  1.0000
  H   H15       1.0  0.73095  0.12083  0.33362  1.0000
  C   C29       1.0  0.34224  0.92182  0.26886  1.0000
  N   N6        1.0  0.31670  0.92747  0.27536  1.0000
  C   C30       1.0  0.25942  0.92686  0.29044  1.0000
  C   C31       1.0  0.23292  0.93405  0.29173  1.0000
  H   H16       1.0  0.22013  0.92406  0.25202  1.0000
  H   H17       1.0  0.34942  0.91545  0.20903  1.0000
  C   C32       1.0  0.26675  0.90525  0.24069  1.0000
  O   O11       1.0  0.26321  0.90612  0.15985  1.0000
  O   O12       1.0  0.26659  0.88323  0.27357  1.0000
  H   H18       1.0  0.26742  0.87990  0.33167  1.0000
  C   C33       1.0  0.42600  0.85838  0.32784  1.0000
  C   C34       1.0  0.43660  0.80431  0.32074  1.0000
  C   C35       1.0  0.44020  0.81992  0.24270  1.0000
  C   C36       1.0  0.43479  0.84690  0.24770  1.0000
  H   H19       1.0  0.43640  0.85825  0.19155  1.0000
  C   C37       1.0  0.44127  0.77684  0.32610  1.0000
  C   C38       1.0  0.45467  0.72298  0.32644  1.0000
  C   C39       1.0  0.46812  0.74163  0.27469  1.0000
  N   N7        1.0  0.46108  0.76697  0.27669  1.0000
  H   H20       1.0  0.48297  0.73641  0.23330  1.0000
  C   C40       1.0  0.44674  0.80933  0.16064  1.0000
  O   O13       1.0  0.46536  0.81833  0.12004  1.0000
  O   O14       1.0  0.42932  0.79811  0.11889  1.0000
  H   H21       1.0  0.43103  0.79209  0.06367  1.0000
  C   C41       1.0  0.57430  0.14101  0.32680  1.0000
  C   C42       1.0  0.56405  0.19518  0.31975  1.0000
  C   C43       1.0  0.55947  0.17942  0.24266  1.0000
  C   C44       1.0  0.56468  0.15240  0.24766  1.0000
  H   H22       1.0  0.56234  0.14095  0.19204  1.0000
  C   C45       1.0  0.55956  0.22269  0.32517  1.0000
  C   C46       1.0  0.54635  0.27662  0.32600  1.0000
  C   C47       1.0  0.53261  0.25799  0.27503  1.0000
  N   N8        1.0  0.53957  0.23264  0.27685  1.0000
  H   H23       1.0  0.51760  0.26323  0.23439  1.0000
  C   C48       1.0  0.55212  0.18985  0.16120  1.0000
  O   O15       1.0  0.53288  0.18102  0.12366  1.0000
  O   O16       1.0  0.56920  0.20062  0.11652  1.0000
  H   H24       1.0  0.56693  0.20648  0.06134  1.0000
  C   C49       1.0  0.85940  0.57426  0.32757  1.0000
  C   C50       1.0  0.80536  0.56395  0.31996  1.0000
  C   C51       1.0  0.82101  0.55988  0.24246  1.0000
  C   C52       1.0  0.84797  0.56517  0.24770  1.0000
  H   H25       1.0  0.85934  0.56329  0.19180  1.0000
  C   C53       1.0  0.77790  0.55951  0.32504  1.0000
  C   C54       1.0  0.72400  0.54646  0.32527  1.0000
  C   C55       1.0  0.74245  0.53276  0.27388  1.0000
  N   N9        1.0  0.76781  0.53964  0.27598  1.0000
  H   H26       1.0  0.73709  0.51782  0.23280  1.0000
  C   C56       1.0  0.81052  0.55305  0.16052  1.0000
  O   O17       1.0  0.81925  0.53407  0.12127  1.0000
  O   O18       1.0  0.79978  0.57045  0.11740  1.0000
  H   H27       1.0  0.79388  0.56854  0.06212  1.0000
  C   C57       1.0  0.14136  0.42682  0.32724  1.0000
  C   C58       1.0  0.19555  0.43640  0.31976  1.0000
  C   C59       1.0  0.17993  0.44087  0.24242  1.0000
  C   C60       1.0  0.15290  0.43597  0.24763  1.0000
  H   H28       1.0  0.14155  0.43818  0.19184  1.0000
  C   C61       1.0  0.22305  0.44059  0.32498  1.0000
  C   C62       1.0  0.27703  0.45332  0.32561  1.0000
  C   C63       1.0  0.25869  0.46713  0.27413  1.0000
  N   N10       1.0  0.23330  0.46043  0.27608  1.0000
  H   H29       1.0  0.26416  0.48206  0.23315  1.0000
  C   C64       1.0  0.19048  0.44775  0.16062  1.0000
  O   O19       1.0  0.18202  0.46695  0.12197  1.0000
  O   O20       1.0  0.20095  0.43029  0.11695  1.0000
  H   H30       1.0  0.20685  0.43225  0.06169  1.0000
  C   C65       1.0  0.14894  0.03454  0.27287  1.0000
  N   N11       1.0  0.13455  0.05650  0.27461  1.0000
  C   C66       1.0  0.08679  0.08889  0.27814  1.0000
  C   C67       1.0  0.06916  0.10988  0.27967  1.0000
  H   H31       1.0  0.05350  0.10953  0.23742  1.0000
  H   H32       1.0  0.15356  0.02657  0.21228  1.0000
  C   C68       1.0  0.08139  0.06761  0.22362  1.0000
  O   O21       1.0  0.08015  0.07149  0.14302  1.0000
  O   O22       1.0  0.06838  0.04907  0.25112  1.0000
  H   H33       1.0  0.06628  0.04504  0.30832  1.0000
  C   C69       1.0  0.85179  0.96795  0.27431  1.0000
  N   N12       1.0  0.86617  0.94599  0.27589  1.0000
  C   C70       1.0  0.91402  0.91367  0.27874  1.0000
  C   C71       1.0  0.93157  0.89261  0.27994  1.0000
  H   H34       1.0  0.94718  0.89292  0.23747  1.0000
  H   H35       1.0  0.84691  0.97579  0.21378  1.0000
  C   C72       1.0  0.91942  0.93496  0.22424  1.0000
  O   O23       1.0  0.92059  0.93111  0.14361  1.0000
  O   O24       1.0  0.93247  0.95347  0.25170  1.0000
  H   H36       1.0  0.93463  0.95748  0.30889  1.0000
  C   C73       1.0  0.96740  0.14884  0.27323  1.0000
  N   N13       1.0  0.94519  0.13476  0.27439  1.0000
  C   C74       1.0  0.91175  0.08748  0.27592  1.0000
  C   C75       1.0  0.89052  0.07003  0.27719  1.0000
  H   H37       1.0  0.89056  0.05441  0.23453  1.0000
  H   H38       1.0  0.97544  0.15361  0.21289  1.0000
  C   C76       1.0  0.93277  0.08196  0.22080  1.0000
  O   O25       1.0  0.92878  0.08124  0.14019  1.0000
  O   O26       1.0  0.95092  0.06835  0.24715  1.0000
  H   H39       1.0  0.95495  0.06584  0.30413  1.0000
  C   C77       1.0  0.03309  0.85362  0.27263  1.0000
  N   N14       1.0  0.05518  0.86788  0.27392  1.0000
  C   C78       1.0  0.08825  0.91545  0.27666  1.0000
  C   C79       1.0  0.10946  0.93293  0.27786  1.0000
  H   H40       1.0  0.10931  0.94863  0.23561  1.0000
  H   H41       1.0  0.02503  0.84895  0.21222  1.0000
  C   C80       1.0  0.06707  0.92107  0.22240  1.0000
  O   O27       1.0  0.07086  0.92217  0.14173  1.0000
  O   O28       1.0  0.04888  0.93441  0.24997  1.0000
  H   H42       1.0  0.04498  0.93665  0.30719  1.0000
  C   C81       1.0  0.34719  0.51933  0.32100  1.0000
  C   C82       1.0  0.37626  0.56596  0.32424  1.0000
  C   C83       1.0  0.36989  0.55443  0.24036  1.0000
  C   C84       1.0  0.35568  0.53080  0.24035  1.0000
  H   H43       1.0  0.35269  0.52105  0.18137  1.0000
  C   C85       1.0  0.39376  0.58731  0.33491  1.0000
  C   C86       1.0  0.42929  0.62956  0.33510  1.0000
  C   C87       1.0  0.40742  0.62894  0.27841  1.0000
  N   N15       1.0  0.39116  0.60816  0.27957  1.0000
  H   H44       1.0  0.40434  0.64323  0.23217  1.0000
  C   C88       1.0  0.37953  0.56385  0.16025  1.0000
  O   O29       1.0  0.36412  0.56892  0.10037  1.0000
  O   O30       1.0  0.40200  0.55783  0.14076  1.0000
  H   H45       1.0  0.40942  0.56141  0.08872  1.0000
  C   C89       1.0  0.65405  0.48019  0.32027  1.0000
  C   C90       1.0  0.62493  0.43357  0.32379  1.0000
  C   C91       1.0  0.63130  0.44507  0.23985  1.0000
  C   C92       1.0  0.64552  0.46869  0.23972  1.0000
  H   H46       1.0  0.64847  0.47843  0.18069  1.0000
  C   C93       1.0  0.60742  0.41224  0.33459  1.0000
  C   C94       1.0  0.57182  0.37004  0.33500  1.0000
  C   C95       1.0  0.59364  0.37065  0.27808  1.0000
  N   N16       1.0  0.60993  0.39139  0.27915  1.0000
  H   H47       1.0  0.59666  0.35637  0.23175  1.0000
  C   C96       1.0  0.62164  0.43564  0.15979  1.0000
  O   O31       1.0  0.63703  0.43054  0.09989  1.0000
  O   O32       1.0  0.59916  0.44164  0.14035  1.0000
  H   H48       1.0  0.59172  0.43805  0.08835  1.0000
  C   C97       1.0  0.52087  0.65334  0.31970  1.0000
  C   C98       1.0  0.56750  0.62467  0.32364  1.0000
  C   C99       1.0  0.55578  0.63047  0.23967  1.0000
  C   C100      1.0  0.53216  0.64445  0.23937  1.0000
  H   H49       1.0  0.52230  0.64701  0.18045  1.0000
  C   C101      1.0  0.58888  0.60739  0.33482  1.0000
  C   C102      1.0  0.63102  0.57205  0.33552  1.0000
  C   C103      1.0  0.63028  0.59377  0.27791  1.0000
  N   N17       1.0  0.60955  0.60993  0.27884  1.0000
  H   H50       1.0  0.64441  0.59676  0.23109  1.0000
  C   C104      1.0  0.56504  0.62046  0.15995  1.0000
  O   O33       1.0  0.56987  0.63564  0.09890  1.0000
  O   O34       1.0  0.55917  0.59774  0.14216  1.0000
  H   H51       1.0  0.56266  0.59004  0.09053  1.0000
  C   C105      1.0  0.48019  0.34628  0.32106  1.0000
  C   C106      1.0  0.43347  0.37481  0.32519  1.0000
  C   C107      1.0  0.44502  0.36878  0.24113  1.0000
  C   C108      1.0  0.46869  0.35486  0.24071  1.0000
  H   H52       1.0  0.47842  0.35214  0.18163  1.0000
  C   C109      1.0  0.41208  0.39207  0.33637  1.0000
  C   C110      1.0  0.36993  0.42742  0.33690  1.0000
  C   C111      1.0  0.37066  0.40566  0.27948  1.0000
  N   N18       1.0  0.39138  0.38950  0.28049  1.0000
  H   H53       1.0  0.35653  0.40265  0.23268  1.0000
  C   C112      1.0  0.43555  0.37847  0.16126  1.0000
  O   O35       1.0  0.43052  0.36305  0.10114  1.0000
  O   O36       1.0  0.44145  0.40110  0.14214  1.0000
  H   H54       1.0  0.43783  0.40859  0.09026  1.0000
  C   C113      1.0  0.08081  0.38646  0.33820  1.0000
  C   C114      1.0  0.10723  0.39369  0.33563  1.0000
  C   C115      1.0  0.11470  0.42009  0.33061  1.0000
  C   C116      1.0  0.09529  0.43941  0.32786  1.0000
  C   C117      1.0  0.06874  0.43257  0.33118  1.0000
  C   C118      1.0  0.06168  0.40604  0.33639  1.0000
  H   H55       1.0  0.10054  0.45860  0.32397  1.0000
  H   H56       1.0  0.04248  0.40093  0.33834  1.0000
  H   H57       1.0  0.12118  0.37955  0.33697  1.0000
  C   C119      1.0  0.91897  0.61584  0.33987  1.0000
  C   C120      1.0  0.89276  0.60808  0.33522  1.0000
  C   C121      1.0  0.88592  0.58153  0.33105  1.0000
  C   C122      1.0  0.90575  0.56264  0.33077  1.0000
  C   C123      1.0  0.93231  0.56970  0.33641  1.0000
  C   C124      1.0  0.93842  0.59659  0.34106  1.0000
  H   H58       1.0  0.90060  0.54340  0.32964  1.0000
  H   H59       1.0  0.95741  0.60242  0.34247  1.0000
  H   H60       1.0  0.87851  0.62193  0.33509  1.0000
  C   C125      1.0  0.61479  0.08067  0.33768  1.0000
  C   C126      1.0  0.60749  0.10710  0.33491  1.0000
  C   C127      1.0  0.58114  0.11435  0.33010  1.0000
  C   C128      1.0  0.56195  0.09469  0.32771  1.0000
  C   C129      1.0  0.56884  0.06813  0.33125  1.0000
  C   C130      1.0  0.59531  0.06130  0.33633  1.0000
  H   H61       1.0  0.54279  0.09978  0.32401  1.0000
  H   H62       1.0  0.60046  0.04209  0.33841  1.0000
  H   H63       1.0  0.62154  0.12124  0.33604  1.0000
  C   C131      1.0  0.38501  0.91821  0.34009  1.0000
  C   C132      1.0  0.39250  0.89190  0.33552  1.0000
  C   C133      1.0  0.41892  0.88497  0.33141  1.0000
  C   C134      1.0  0.43793  0.90481  0.33127  1.0000
  C   C135      1.0  0.43113  0.93147  0.33673  1.0000
  C   C136      1.0  0.40438  0.93768  0.34120  1.0000
  H   H64       1.0  0.45706  0.89960  0.33018  1.0000
  H   H65       1.0  0.39873  0.95674  0.34256  1.0000
  H   H66       1.0  0.37858  0.87764  0.33533  1.0000
  C   C137      1.0  0.05273  0.15068  0.34595  1.0000
  C   C138      1.0  0.02628  0.14359  0.34993  1.0000
  C   C139      1.0  0.00655  0.16244  0.35278  1.0000
  C   C140      1.0  0.01338  0.18899  0.35155  1.0000
  C   C141      1.0  0.03969  0.19704  0.34937  1.0000
  C   C142      1.0  0.05905  0.17747  0.34740  1.0000
  H   H67       1.0  0.99888  0.20253  0.35081  1.0000
  H   H68       1.0  0.07818  0.18275  0.34583  1.0000
  H   H69       1.0  0.02122  0.12430  0.35094  1.0000
  C   C143      1.0  0.94789  0.85174  0.34585  1.0000
  C   C144      1.0  0.97437  0.85873  0.34959  1.0000
  C   C145      1.0  0.99402  0.83979  0.35208  1.0000
  C   C146      1.0  0.98708  0.81327  0.35062  1.0000
  C   C147      1.0  0.96073  0.80532  0.34870  1.0000
  C   C148      1.0  0.94146  0.82498  0.34721  1.0000
  H   H70       1.0  0.00152  0.79968  0.34964  1.0000
  H   H71       1.0  0.92230  0.81981  0.34599  1.0000
  H   H72       1.0  0.97951  0.87800  0.35075  1.0000
  C   C149      1.0  0.84994  0.05359  0.34464  1.0000
  C   C150      1.0  0.85695  0.02711  0.34927  1.0000
  C   C151      1.0  0.83811  0.00725  0.35272  1.0000
  C   C152      1.0  0.81166  0.01400  0.35135  1.0000
  C   C153      1.0  0.80368  0.04037  0.34867  1.0000
  C   C154      1.0  0.82326  0.05986  0.34622  1.0000
  H   H73       1.0  0.79813  0.99940  0.35103  1.0000
  H   H74       1.0  0.81808  0.07903  0.34440  1.0000
  H   H75       1.0  0.87617  0.02211  0.35031  1.0000
  C   C155      1.0  0.15039  0.94905  0.34390  1.0000
  C   C156      1.0  0.14366  0.97562  0.34835  1.0000
  C   C157      1.0  0.16271  0.99529  0.35142  1.0000
  C   C158      1.0  0.18910  0.98826  0.34989  1.0000
  C   C159      1.0  0.19678  0.96180  0.34712  1.0000
  C   C160      1.0  0.17701  0.94253  0.34505  1.0000
  H   H76       1.0  0.20279  0.00270  0.34944  1.0000
  H   H77       1.0  0.18199  0.92330  0.34331  1.0000
  H   H78       1.0  0.12450  0.98081  0.34965  1.0000
  C   C161      1.0  0.44858  0.64945  0.32866  1.0000
  C   C162      1.0  0.47504  0.64259  0.32450  1.0000
  C   C163      1.0  0.49474  0.66160  0.32140  1.0000
  C   C164      1.0  0.48784  0.68810  0.32254  1.0000
  C   C165      1.0  0.46151  0.69594  0.32489  1.0000
  C   C166      1.0  0.44220  0.67619  0.32708  1.0000
  H   H79       1.0  0.50231  0.70176  0.32298  1.0000
  H   H80       1.0  0.42306  0.68128  0.32867  1.0000
  H   H81       1.0  0.48014  0.62334  0.32348  1.0000
  C   C167      1.0  0.55249  0.35016  0.32876  1.0000
  C   C168      1.0  0.52603  0.35704  0.32521  1.0000
  C   C169      1.0  0.50633  0.33804  0.32236  1.0000
  C   C170      1.0  0.51321  0.31154  0.32310  1.0000
  C   C171      1.0  0.53954  0.30367  0.32482  1.0000
  C   C172      1.0  0.55886  0.32342  0.32677  1.0000
  H   H82       1.0  0.49873  0.29790  0.32382  1.0000
  H   H83       1.0  0.57800  0.31832  0.32788  1.0000
  H   H84       1.0  0.52094  0.37629  0.32443  1.0000
  C   C173      1.0  0.65073  0.55269  0.32893  1.0000
  C   C174      1.0  0.64368  0.52616  0.32521  1.0000
  C   C175      1.0  0.66248  0.50638  0.32175  1.0000
  C   C176      1.0  0.68895  0.51326  0.32209  1.0000
  C   C177      1.0  0.69698  0.53967  0.32412  1.0000
  C   C178      1.0  0.67743  0.55907  0.32660  1.0000
  H   H85       1.0  0.70245  0.49873  0.32243  1.0000
  H   H86       1.0  0.68265  0.57827  0.32788  1.0000
  H   H87       1.0  0.62445  0.52106  0.32466  1.0000
  C   C179      1.0  0.35027  0.44682  0.33006  1.0000
  C   C180      1.0  0.35741  0.47333  0.32620  1.0000
  C   C181      1.0  0.33868  0.49317  0.32253  1.0000
  C   C182      1.0  0.31220  0.48637  0.32274  1.0000
  C   C183      1.0  0.30408  0.45999  0.32476  1.0000
  C   C184      1.0  0.32356  0.44053  0.32755  1.0000
  H   H88       1.0  0.29875  0.50096  0.32292  1.0000
  H   H89       1.0  0.31828  0.42135  0.32885  1.0000
  H   H90       1.0  0.37665  0.47837  0.32573  1.0000
  C   C185      1.0  0.04308  0.46640  0.40588  1.0000
  N   N19       1.0  0.02474  0.48514  0.40132  1.0000
  C   C186      1.0  0.99494  0.53436  0.39097  1.0000
  C   C187      1.0  0.97481  0.55305  0.39132  1.0000
  H   H91       1.0  0.97650  0.56890  0.43243  1.0000
  H   H92       1.0  0.05202  0.46289  0.46569  1.0000
  C   C188      1.0  0.01713  0.53919  0.44117  1.0000
  O   O37       1.0  0.01452  0.54115  0.52221  1.0000
  O   O38       1.0  0.03570  0.55125  0.40936  1.0000
  H   H93       1.0  0.03896  0.55275  0.35137  1.0000
  C   C189      1.0  0.53507  0.04232  0.40619  1.0000
  N   N20       1.0  0.51626  0.02394  0.40169  1.0000
  C   C190      1.0  0.46696  0.99416  0.39131  1.0000
  C   C191      1.0  0.44812  0.97404  0.39162  1.0000
  H   H94       1.0  0.43231  0.97580  0.43265  1.0000
  H   H95       1.0  0.53856  0.05137  0.46589  1.0000
  C   C192      1.0  0.46234  0.01644  0.44148  1.0000
  O   O39       1.0  0.46048  0.01383  0.52255  1.0000
  O   O40       1.0  0.45034  0.03503  0.40980  1.0000
  H   H96       1.0  0.44878  0.03828  0.35183  1.0000
  C   C193      1.0  0.07384  0.35984  0.34253  1.0000
  C   C194      1.0  0.06382  0.30566  0.35119  1.0000
  C   C195      1.0  0.06056  0.32129  0.42930  1.0000
  C   C196      1.0  0.06573  0.34834  0.42354  1.0000
  H   H97       1.0  0.06441  0.35973  0.47967  1.0000
  C   C197      1.0  0.05939  0.27814  0.34663  1.0000
  C   C198      1.0  0.04642  0.22414  0.34755  1.0000
  C   C199      1.0  0.03290  0.24267  0.39923  1.0000
  N   N21       1.0  0.03973  0.26810  0.39661  1.0000
  H   H98       1.0  0.01813  0.23730  0.44090  1.0000
  C   C200      1.0  0.05460  0.31069  0.51192  1.0000
  O   O41       1.0  0.03616  0.31948  0.55374  1.0000
  O   O42       1.0  0.07235  0.29976  0.55255  1.0000
  H   H99       1.0  0.07102  0.29377  0.60794  1.0000
  C   C201      1.0  0.92549  0.64262  0.34399  1.0000
  C   C202      1.0  0.93575  0.69681  0.35202  1.0000
  C   C203      1.0  0.94018  0.68100  0.42902  1.0000
  C   C204      1.0  0.93497  0.65396  0.42350  1.0000
  H   H100      1.0  0.93729  0.64244  0.47892  1.0000
  C   C205      1.0  0.94037  0.72432  0.34699  1.0000
  C   C206      1.0  0.95384  0.77826  0.34697  1.0000
  C   C207      1.0  0.96746  0.75960  0.39776  1.0000
  N   N22       1.0  0.96039  0.73424  0.39557  1.0000
  H   H101      1.0  0.98248  0.76482  0.43859  1.0000
  C   C208      1.0  0.94744  0.69138  0.51075  1.0000
  O   O43       1.0  0.96655  0.68255  0.54870  1.0000
  O   O44       1.0  0.93036  0.70220  0.55499  1.0000
  H   H102      1.0  0.93256  0.70805  0.61023  1.0000
  C   C209      1.0  0.64136  0.07391  0.34193  1.0000
  C   C210      1.0  0.69538  0.06411  0.35063  1.0000
  C   C211      1.0  0.67966  0.06012  0.42808  1.0000
  C   C212      1.0  0.65270  0.06516  0.42229  1.0000
  H   H103      1.0  0.64126  0.06328  0.47804  1.0000
  C   C213      1.0  0.72283  0.05981  0.34603  1.0000
  C   C214      1.0  0.77668  0.04702  0.34689  1.0000
  C   C215      1.0  0.75816  0.03333  0.39833  1.0000
  N   N23       1.0  0.73282  0.04007  0.39570  1.0000
  H   H104      1.0  0.76345  0.01850  0.43985  1.0000
  C   C216      1.0  0.69006  0.05354  0.51034  1.0000
  O   O45       1.0  0.68133  0.03457  0.54990  1.0000
  O   O46       1.0  0.70073  0.07112  0.55316  1.0000
  H   H105      1.0  0.70657  0.06937  0.60858  1.0000
  C   C217      1.0  0.35840  0.92487  0.34403  1.0000
  C   C218      1.0  0.30455  0.93578  0.35102  1.0000
  C   C219      1.0  0.32011  0.93930  0.42911  1.0000
  C   C220      1.0  0.34699  0.93377  0.42410  1.0000
  H   H106      1.0  0.35833  0.93546  0.48017  1.0000
  C   C221      1.0  0.27723  0.94078  0.34550  1.0000
  C   C222      1.0  0.22368  0.95477  0.34518  1.0000
  C   C223      1.0  0.24240  0.96805  0.39705  1.0000
  N   N24       1.0  0.26758  0.96072  0.39505  1.0000
  H   H107      1.0  0.23733  0.98295  0.43863  1.0000
  C   C224      1.0  0.30960  0.94596  0.51113  1.0000
  O   O47       1.0  0.31868  0.96460  0.55169  1.0000
  O   O48       1.0  0.29825  0.92859  0.55289  1.0000
  H   H108      1.0  0.29225  0.93037  0.60807  1.0000
  C   C225      1.0  0.42296  0.84218  0.40303  1.0000
  N   N25       1.0  0.42842  0.81653  0.39645  1.0000
  C   C226      1.0  0.42714  0.75909  0.38086  1.0000
  C   C227      1.0  0.43404  0.73244  0.37959  1.0000
  H   H109      1.0  0.42392  0.71971  0.41918  1.0000
  H   H110      1.0  0.41655  0.84938  0.46279  1.0000
  C   C228      1.0  0.40562  0.76665  0.43034  1.0000
  O   O49       1.0  0.40632  0.76303  0.51117  1.0000
  O   O50       1.0  0.38372  0.76681  0.39708  1.0000
  H   H111      1.0  0.38049  0.76773  0.33894  1.0000
  C   C229      1.0  0.57836  0.15736  0.40104  1.0000
  N   N26       1.0  0.57300  0.18303  0.39457  1.0000
  C   C230      1.0  0.57401  0.24043  0.37901  1.0000
  C   C231      1.0  0.56719  0.26710  0.37804  1.0000
  H   H112      1.0  0.57751  0.27981  0.41709  1.0000
  H   H113      1.0  0.58536  0.15024  0.46012  1.0000
  C   C232      1.0  0.59574  0.23284  0.42737  1.0000
  O   O51       1.0  0.59535  0.23640  0.50826  1.0000
  O   O52       1.0  0.61751  0.23277  0.39309  1.0000
  H   H114      1.0  0.62051  0.23190  0.33478  1.0000
  C   C233      1.0  0.84316  0.57773  0.40228  1.0000
  N   N27       1.0  0.81753  0.57240  0.39547  1.0000
  C   C234      1.0  0.76034  0.57393  0.37926  1.0000
  C   C235      1.0  0.73368  0.56719  0.37798  1.0000
  H   H115      1.0  0.72110  0.57749  0.41732  1.0000
  H   H116      1.0  0.85031  0.58444  0.46179  1.0000
  C   C236      1.0  0.76811  0.59557  0.42833  1.0000
  O   O53       1.0  0.76446  0.59503  0.50915  1.0000
  O   O54       1.0  0.76855  0.61748  0.39460  1.0000
  H   H117      1.0  0.76954  0.62060  0.33639  1.0000
  C   C237      1.0  0.15758  0.42286  0.40171  1.0000
  N   N28       1.0  0.18327  0.42789  0.39501  1.0000
  C   C238      1.0  0.24049  0.42604  0.37922  1.0000
  C   C239      1.0  0.26719  0.43261  0.37813  1.0000
  H   H118      1.0  0.27968  0.42223  0.41752  1.0000
  H   H119      1.0  0.15035  0.41614  0.46107  1.0000
  C   C240      1.0  0.23254  0.40445  0.42819  1.0000
  O   O55       1.0  0.23620  0.40492  0.50901  1.0000
  O   O56       1.0  0.23192  0.38256  0.39436  1.0000
  H   H120      1.0  0.23091  0.37946  0.33613  1.0000
  C   C241      1.0  0.15455  0.02151  0.35341  1.0000
  C   C242      1.0  0.12542  0.06796  0.35036  1.0000
  C   C243      1.0  0.13161  0.05633  0.43416  1.0000
  C   C244      1.0  0.14581  0.03279  0.43402  1.0000
  H   H121      1.0  0.14859  0.02292  0.49285  1.0000
  C   C245      1.0  0.10784  0.08913  0.33971  1.0000
  C   C246      1.0  0.07209  0.13096  0.33964  1.0000
  C   C247      1.0  0.09396  0.13057  0.39635  1.0000
  N   N29       1.0  0.11033  0.10999  0.39515  1.0000
  H   H122      1.0  0.09697  0.14489  0.44261  1.0000
  C   C248      1.0  0.12175  0.06552  0.51419  1.0000
  O   O57       1.0  0.13699  0.07055  0.57471  1.0000
  O   O58       1.0  0.09922  0.05935  0.53277  1.0000
  H   H123      1.0  0.09165  0.06278  0.58464  1.0000
  C   C249      1.0  0.84649  0.98111  0.35483  1.0000
  C   C250      1.0  0.87557  0.93468  0.35154  1.0000
  C   C251      1.0  0.86973  0.94648  0.43536  1.0000
  C   C252      1.0  0.85553  0.97001  0.43532  1.0000
  H   H124      1.0  0.85293  0.97998  0.49406  1.0000
  C   C253      1.0  0.89305  0.91348  0.34062  1.0000
  C   C254      1.0  0.92862  0.87154  0.33993  1.0000
  C   C255      1.0  0.90684  0.87199  0.39700  1.0000
  N   N30       1.0  0.89054  0.89263  0.39609  1.0000
  H   H125      1.0  0.90383  0.85767  0.44326  1.0000
  C   C256      1.0  0.87989  0.93742  0.51512  1.0000
  O   O59       1.0  0.86489  0.93258  0.57655  1.0000
  O   O60       1.0  0.90252  0.94353  0.53238  1.0000
  H   H126      1.0  0.91030  0.94019  0.58395  1.0000
  C   C257      1.0  0.98043  0.15403  0.35409  1.0000
  C   C258      1.0  0.93352  0.12558  0.34979  1.0000
  C   C259      1.0  0.94520  0.13140  0.43388  1.0000
  C   C260      1.0  0.96896  0.14529  0.43439  1.0000
  H   H127      1.0  0.97876  0.14790  0.49343  1.0000
  C   C261      1.0  0.91201  0.10836  0.33844  1.0000
  C   C262      1.0  0.86969  0.07300  0.33783  1.0000
  C   C263      1.0  0.87051  0.09476  0.39525  1.0000
  N   N31       1.0  0.89133  0.11092  0.39432  1.0000
  H   H128      1.0  0.85639  0.09775  0.44202  1.0000
  C   C264      1.0  0.93572  0.12154  0.51360  1.0000
  O   O61       1.0  0.93089  0.13683  0.57422  1.0000
  O   O62       1.0  0.94138  0.09884  0.53198  1.0000
  H   H129      1.0  0.93773  0.09124  0.58368  1.0000
  C   C265      1.0  0.02016  0.84813  0.35345  1.0000
  C   C266      1.0  0.06683  0.87699  0.34946  1.0000
  C   C267      1.0  0.05526  0.87093  0.43350  1.0000
  C   C268      1.0  0.03161  0.85685  0.43383  1.0000
  H   H130      1.0  0.02184  0.85410  0.49287  1.0000
  C   C269      1.0  0.08821  0.89437  0.33837  1.0000
  C   C270      1.0  0.13048  0.92979  0.33762  1.0000
  C   C271      1.0  0.12980  0.90789  0.39444  1.0000
  N   N32       1.0  0.10902  0.89168  0.39356  1.0000
  H   H131      1.0  0.14406  0.90475  0.44059  1.0000
  C   C272      1.0  0.06469  0.88076  0.51333  1.0000
  O   O63       1.0  0.06955  0.86545  0.57387  1.0000
  O   O64       1.0  0.05897  0.90344  0.53183  1.0000
  H   H132      1.0  0.06259  0.91102  0.58360  1.0000
  C   C273      1.0  0.35297  0.53222  0.40171  1.0000
  N   N33       1.0  0.36732  0.55430  0.40001  1.0000
  C   C274      1.0  0.41480  0.58730  0.39651  1.0000
  C   C275      1.0  0.43233  0.60850  0.39504  1.0000
  H   H133      1.0  0.44799  0.60831  0.43726  1.0000
  H   H134      1.0  0.34843  0.52414  0.46223  1.0000
  C   C276      1.0  0.42033  0.56608  0.45099  1.0000
  O   O65       1.0  0.42156  0.56995  0.53160  1.0000
  O   O66       1.0  0.43338  0.54766  0.42340  1.0000
  H   H135      1.0  0.43549  0.54367  0.36619  1.0000
  C   C277      1.0  0.64828  0.46732  0.40102  1.0000
  N   N34       1.0  0.63392  0.44526  0.39947  1.0000
  C   C278      1.0  0.58643  0.41225  0.39642  1.0000
  C   C279      1.0  0.56888  0.39108  0.39507  1.0000
  H   H136      1.0  0.55326  0.39128  0.43749  1.0000
  H   H137      1.0  0.65282  0.47543  0.46151  1.0000
  C   C280      1.0  0.58098  0.43345  0.45105  1.0000
  O   O67       1.0  0.57988  0.42956  0.53167  1.0000
  O   O68       1.0  0.56785  0.45186  0.42377  1.0000
  H   H138      1.0  0.56565  0.45587  0.36662  1.0000
  C   C281      1.0  0.53393  0.64811  0.40041  1.0000
  N   N35       1.0  0.55599  0.63394  0.39910  1.0000
  C   C282      1.0  0.58903  0.58653  0.39740  1.0000
  C   C283      1.0  0.61017  0.56909  0.39617  1.0000
  H   H139      1.0  0.61006  0.55351  0.43898  1.0000
  H   H140      1.0  0.52598  0.65291  0.46084  1.0000
  C   C284      1.0  0.56799  0.58103  0.45259  1.0000
  O   O69       1.0  0.57200  0.58031  0.53319  1.0000
  O   O70       1.0  0.54974  0.56744  0.42631  1.0000
  H   H141      1.0  0.54568  0.56493  0.36933  1.0000
  C   C285      1.0  0.46729  0.35170  0.40193  1.0000
  N   N36       1.0  0.44518  0.36579  0.40066  1.0000
  C   C286      1.0  0.41192  0.41297  0.39884  1.0000
  C   C287      1.0  0.39078  0.43040  0.39754  1.0000
  H   H142      1.0  0.39090  0.44600  0.44023  1.0000
  H   H143      1.0  0.47538  0.34709  0.46231  1.0000
  C   C288      1.0  0.43298  0.41853  0.45393  1.0000
  O   O71       1.0  0.42899  0.41930  0.53453  1.0000
  O   O72       1.0  0.45122  0.43210  0.42747  1.0000
  H   H144      1.0  0.45526  0.43457  0.37046  1.0000
