data_image0
_chemical_formula_structural       C2HC3HNH2NH2C2HC3HNH2NH2C2HC3HNH2NH2C2HC3HNH2NH2C2HC3HNH2NH2C2HC3HNH2NH2C7H2N2O4C7H2N2O4C7H2N2O4C7H2N2O4C7H2N2O4C7H2N2O4C7H2N2O4C7H2N2O4C7H2N2O4C7H2N2O4C7H2N2O4C7H2N2O4CNCNCNCNCNCNCNCNCNCNCNCNCNCNCNCNCNCNCNCNCNCNCNCNCNCNCNCNCNCNCNCNCNCNCNCNC7H2N2O4C7H2N2O4C7H2N2O4C7H2N2O4C7H2N2O4C7H2N2O4C2HC3HNH2NH2C2HC3HNH2NH2C2HC3HNH2NH2C2HC3HNH2NH2C2HC3HNH2NH2C2HC3HNH2NH2C2HC3HNH2NH2C2HC3HNH2NH2C2HC3HNH2NH2C2HC3HNH2NH2C2HC3HNH2NH2C2HC3HNH2NH2
_chemical_formula_sum              "C252 H144 N108 O72"
_cell_length_a       56.3863
_cell_length_b       56.3862
_cell_length_c       14.8459
_cell_angle_alpha    90
_cell_angle_beta     90
_cell_angle_gamma    120

_space_group_name_H-M_alt    "P 1"
_space_group_IT_number       1

loop_
  _space_group_symop_operation_xyz
  'x, y, z'

loop_
  _atom_site_type_symbol
  _atom_site_label
  _atom_site_symmetry_multiplicity
  _atom_site_fract_x
  _atom_site_fract_y
  _atom_site_fract_z
  _atom_site_occupancy
  C   C1        1.0  0.19642  0.42378  0.30346  1.0000
  C   C2        1.0  0.21149  0.45284  0.30502  1.0000
  H   H1        1.0  0.20239  0.46309  0.27857  1.0000
  C   C3        1.0  0.16653  0.32088  0.33778  1.0000
  C   C4        1.0  0.17690  0.33588  0.25626  1.0000
  C   C5        1.0  0.19089  0.36494  0.25936  1.0000
  H   H2        1.0  0.19825  0.37577  0.20069  1.0000
  N   N1        1.0  0.17052  0.41110  0.26942  1.0000
  H   H3        1.0  0.16233  0.42155  0.24647  1.0000
  H   H4        1.0  0.15897  0.39131  0.26950  1.0000
  N   N2        1.0  0.17362  0.32338  0.17508  1.0000
  H   H5        1.0  0.18071  0.33394  0.11988  1.0000
  H   H6        1.0  0.16402  0.30357  0.16920  1.0000
  C   C6        1.0  0.58345  0.76948  0.30350  1.0000
  C   C7        1.0  0.55439  0.75549  0.30507  1.0000
  H   H7        1.0  0.54415  0.73613  0.27867  1.0000
  C   C8        1.0  0.68635  0.84251  0.33777  1.0000
  C   C9        1.0  0.67135  0.83788  0.25625  1.0000
  C   C10       1.0  0.64229  0.82282  0.25936  1.0000
  H   H8        1.0  0.63146  0.81935  0.20069  1.0000
  N   N3        1.0  0.59614  0.75626  0.26949  1.0000
  H   H9        1.0  0.58569  0.73764  0.24646  1.0000
  H   H10       1.0  0.61593  0.76452  0.26943  1.0000
  N   N4        1.0  0.68385  0.84712  0.17507  1.0000
  H   H11       1.0  0.67329  0.84365  0.11987  1.0000
  H   H12       1.0  0.70366  0.85733  0.16918  1.0000
  C   C11       1.0  0.23777  0.81085  0.30346  1.0000
  C   C12       1.0  0.25175  0.79577  0.30502  1.0000
  H   H13       1.0  0.27110  0.80486  0.27856  1.0000
  C   C13       1.0  0.16474  0.84073  0.33780  1.0000
  C   C14       1.0  0.16938  0.83036  0.25627  1.0000
  C   C15       1.0  0.18445  0.81638  0.25938  1.0000
  H   H14       1.0  0.18792  0.80902  0.20071  1.0000
  N   N5        1.0  0.25099  0.83674  0.26940  1.0000
  H   H15       1.0  0.26962  0.84493  0.24644  1.0000
  H   H16       1.0  0.24275  0.84830  0.26948  1.0000
  N   N6        1.0  0.16015  0.83364  0.17509  1.0000
  H   H17       1.0  0.16363  0.82655  0.11988  1.0000
  H   H18       1.0  0.14993  0.84323  0.16920  1.0000
  C   C16       1.0  0.81536  0.57897  0.30348  1.0000
  C   C17       1.0  0.80030  0.54991  0.30504  1.0000
  H   H19       1.0  0.80941  0.53966  0.27863  1.0000
  C   C18       1.0  0.84522  0.68187  0.33778  1.0000
  C   C19       1.0  0.83485  0.66686  0.25625  1.0000
  C   C20       1.0  0.82087  0.63781  0.25935  1.0000
  H   H20       1.0  0.81351  0.62698  0.20067  1.0000
  N   N7        1.0  0.84127  0.59165  0.26947  1.0000
  H   H21       1.0  0.84945  0.58121  0.24644  1.0000
  H   H22       1.0  0.85280  0.61145  0.26942  1.0000
  N   N8        1.0  0.83812  0.67937  0.17507  1.0000
  H   H23       1.0  0.83104  0.66881  0.11986  1.0000
  H   H24       1.0  0.84772  0.69918  0.16919  1.0000
  C   C21       1.0  0.42829  0.23325  0.30346  1.0000
  C   C22       1.0  0.45735  0.24724  0.30502  1.0000
  H   H25       1.0  0.46761  0.26659  0.27857  1.0000
  C   C23       1.0  0.32539  0.16023  0.33779  1.0000
  C   C24       1.0  0.34040  0.16487  0.25626  1.0000
  C   C25       1.0  0.36945  0.17994  0.25937  1.0000
  H   H26       1.0  0.38028  0.18340  0.20069  1.0000
  N   N9        1.0  0.41562  0.24647  0.26942  1.0000
  H   H27       1.0  0.42606  0.26511  0.24647  1.0000
  H   H28       1.0  0.39583  0.23823  0.26950  1.0000
  N   N10       1.0  0.32789  0.15564  0.17508  1.0000
  H   H29       1.0  0.33845  0.15911  0.11988  1.0000
  H   H30       1.0  0.30808  0.14543  0.16920  1.0000
  C   C26       1.0  0.77398  0.19189  0.30348  1.0000
  C   C27       1.0  0.75998  0.20695  0.30505  1.0000
  H   H31       1.0  0.74062  0.19784  0.27865  1.0000
  C   C28       1.0  0.84701  0.16203  0.33776  1.0000
  C   C29       1.0  0.84238  0.17240  0.25623  1.0000
  C   C30       1.0  0.82731  0.18639  0.25933  1.0000
  H   H32       1.0  0.82385  0.19375  0.20065  1.0000
  N   N11       1.0  0.76076  0.16598  0.26949  1.0000
  H   H33       1.0  0.74213  0.15779  0.24647  1.0000
  H   H34       1.0  0.76902  0.15445  0.26943  1.0000
  N   N12       1.0  0.85161  0.16912  0.17505  1.0000
  H   H35       1.0  0.84814  0.17621  0.11984  1.0000
  H   H36       1.0  0.86182  0.15953  0.16917  1.0000
  C   C31       1.0  0.23961  0.16134  0.33876  1.0000
  C   C32       1.0  0.25063  0.18814  0.30191  1.0000
  C   C33       1.0  0.23510  0.20164  0.30392  1.0000
  C   C34       1.0  0.20858  0.18943  0.34178  1.0000
  C   C35       1.0  0.19430  0.20456  0.34118  1.0000
  C   C36       1.0  0.18282  0.20836  0.26124  1.0000
  C   C37       1.0  0.16859  0.22317  0.26462  1.0000
  H   H37       1.0  0.16036  0.22566  0.20633  1.0000
  H   H38       1.0  0.24346  0.22088  0.27682  1.0000
  N   N13       1.0  0.18556  0.19700  0.17953  1.0000
  N   N14       1.0  0.27675  0.20105  0.26037  1.0000
  O   O1        1.0  0.19843  0.21527  0.12164  1.0000
  O   O2        1.0  0.29313  0.22312  0.29892  1.0000
  O   O3        1.0  0.16263  0.17993  0.14758  1.0000
  O   O4        1.0  0.27539  0.20574  0.17831  1.0000
  C   C38       1.0  0.84589  0.07514  0.33873  1.0000
  C   C39       1.0  0.81910  0.05936  0.30191  1.0000
  C   C40       1.0  0.80560  0.03033  0.30391  1.0000
  C   C41       1.0  0.81781  0.01602  0.34176  1.0000
  C   C42       1.0  0.80267  0.98661  0.34116  1.0000
  C   C43       1.0  0.79888  0.97133  0.26124  1.0000
  C   C44       1.0  0.78408  0.94229  0.26462  1.0000
  H   H39       1.0  0.78158  0.93156  0.20631  1.0000
  H   H40       1.0  0.78635  0.01945  0.27683  1.0000
  N   N15       1.0  0.81025  0.98543  0.17952  1.0000
  N   N16       1.0  0.80618  0.07257  0.26037  1.0000
  O   O5        1.0  0.79198  0.98003  0.12162  1.0000
  O   O6        1.0  0.78412  0.06688  0.29894  1.0000
  O   O7        1.0  0.82732  0.97957  0.14760  1.0000
  O   O8        1.0  0.80149  0.06652  0.17832  1.0000
  C   C45       1.0  0.93211  0.76764  0.33875  1.0000
  C   C46       1.0  0.94788  0.75662  0.30191  1.0000
  C   C47       1.0  0.97692  0.77216  0.30392  1.0000
  C   C48       1.0  0.99123  0.79867  0.34178  1.0000
  C   C49       1.0  0.02064  0.81294  0.34118  1.0000
  C   C50       1.0  0.03592  0.82443  0.26125  1.0000
  C   C51       1.0  0.06496  0.83866  0.26463  1.0000
  H   H41       1.0  0.07569  0.84689  0.20633  1.0000
  H   H42       1.0  0.98780  0.76379  0.27682  1.0000
  N   N17       1.0  0.02181  0.82169  0.17954  1.0000
  N   N18       1.0  0.93467  0.73050  0.26036  1.0000
  O   O9        1.0  0.02722  0.80882  0.12165  1.0000
  O   O10       1.0  0.94036  0.71412  0.29892  1.0000
  O   O11       1.0  0.02768  0.84462  0.14759  1.0000
  O   O12       1.0  0.94072  0.73186  0.17831  1.0000
  C   C52       1.0  0.77213  0.84140  0.33875  1.0000
  C   C53       1.0  0.76111  0.81460  0.30192  1.0000
  C   C54       1.0  0.77665  0.80110  0.30393  1.0000
  C   C55       1.0  0.80316  0.81331  0.34178  1.0000
  C   C56       1.0  0.81744  0.79818  0.34118  1.0000
  C   C57       1.0  0.82894  0.79440  0.26126  1.0000
  C   C58       1.0  0.84317  0.77959  0.26464  1.0000
  H   H43       1.0  0.85140  0.77710  0.20634  1.0000
  H   H44       1.0  0.76828  0.78186  0.27684  1.0000
  N   N19       1.0  0.82620  0.80577  0.17955  1.0000
  N   N20       1.0  0.73499  0.80169  0.26039  1.0000
  O   O13       1.0  0.81334  0.78750  0.12164  1.0000
  O   O14       1.0  0.71861  0.77962  0.29896  1.0000
  O   O15       1.0  0.84913  0.82283  0.14763  1.0000
  O   O16       1.0  0.73634  0.79700  0.17834  1.0000
  C   C59       1.0  0.16584  0.92761  0.33876  1.0000
  C   C60       1.0  0.19264  0.94338  0.30191  1.0000
  C   C61       1.0  0.20614  0.97242  0.30392  1.0000
  C   C62       1.0  0.19393  0.98673  0.34178  1.0000
  C   C63       1.0  0.20907  0.01614  0.34118  1.0000
  C   C64       1.0  0.21287  0.03142  0.26125  1.0000
  C   C65       1.0  0.22768  0.06046  0.26462  1.0000
  H   H45       1.0  0.23018  0.07119  0.20633  1.0000
  H   H46       1.0  0.22538  0.98330  0.27682  1.0000
  N   N21       1.0  0.20150  0.01731  0.17953  1.0000
  N   N22       1.0  0.20555  0.93018  0.26036  1.0000
  O   O17       1.0  0.21978  0.02272  0.12165  1.0000
  O   O18       1.0  0.22762  0.93587  0.29891  1.0000
  O   O19       1.0  0.18444  0.02319  0.14758  1.0000
  O   O20       1.0  0.21024  0.93622  0.17831  1.0000
  C   C66       1.0  0.07963  0.23510  0.33875  1.0000
  C   C67       1.0  0.06386  0.24613  0.30192  1.0000
  C   C68       1.0  0.03482  0.23059  0.30393  1.0000
  C   C69       1.0  0.02051  0.20407  0.34178  1.0000
  C   C70       1.0  0.99111  0.18980  0.34117  1.0000
  C   C71       1.0  0.97582  0.17830  0.26124  1.0000
  C   C72       1.0  0.94679  0.16408  0.26462  1.0000
  H   H47       1.0  0.93606  0.15585  0.20632  1.0000
  H   H48       1.0  0.02394  0.23896  0.27684  1.0000
  N   N23       1.0  0.98993  0.18104  0.17954  1.0000
  N   N24       1.0  0.07707  0.27225  0.26039  1.0000
  O   O21       1.0  0.98453  0.19391  0.12163  1.0000
  O   O22       1.0  0.07138  0.28863  0.29896  1.0000
  O   O23       1.0  0.98407  0.15811  0.14761  1.0000
  O   O24       1.0  0.07102  0.27089  0.17835  1.0000
  C   C73       1.0  0.24893  0.68557  0.35841  1.0000
  C   C74       1.0  0.22500  0.66565  0.31333  1.0000
  C   C75       1.0  0.21867  0.63789  0.31209  1.0000
  C   C76       1.0  0.23562  0.62933  0.35441  1.0000
  C   C77       1.0  0.23071  0.60216  0.33996  1.0000
  C   C78       1.0  0.23973  0.59563  0.25951  1.0000
  C   C79       1.0  0.24183  0.57166  0.25625  1.0000
  H   H49       1.0  0.25055  0.56849  0.20034  1.0000
  H   H50       1.0  0.20200  0.62394  0.27605  1.0000
  N   N25       1.0  0.24879  0.61435  0.18657  1.0000
  N   N26       1.0  0.20874  0.67403  0.26543  1.0000
  O   O25       1.0  0.23531  0.60338  0.11631  1.0000
  O   O26       1.0  0.20827  0.66926  0.18256  1.0000
  O   O27       1.0  0.27379  0.62370  0.17027  1.0000
  O   O28       1.0  0.18459  0.66225  0.29453  1.0000
  C   C80       1.0  0.32168  0.56027  0.35821  1.0000
  C   C81       1.0  0.34162  0.55624  0.31338  1.0000
  C   C82       1.0  0.36938  0.57767  0.31219  1.0000
  C   C83       1.0  0.37792  0.60318  0.35445  1.0000
  C   C84       1.0  0.40511  0.62542  0.34019  1.0000
  C   C85       1.0  0.41166  0.64101  0.25977  1.0000
  C   C86       1.0  0.43568  0.66703  0.25641  1.0000
  H   H51       1.0  0.43882  0.67898  0.20065  1.0000
  H   H52       1.0  0.38335  0.57493  0.27635  1.0000
  N   N27       1.0  0.39291  0.63140  0.18688  1.0000
  N   N28       1.0  0.33326  0.53158  0.26561  1.0000
  O   O29       1.0  0.40385  0.62887  0.11655  1.0000
  O   O30       1.0  0.33806  0.53584  0.18275  1.0000
  O   O31       1.0  0.38362  0.64710  0.17069  1.0000
  O   O32       1.0  0.34502  0.51922  0.29494  1.0000
  C   C87       1.0  0.44697  0.75823  0.35835  1.0000
  C   C88       1.0  0.45097  0.78216  0.31332  1.0000
  C   C89       1.0  0.42954  0.78848  0.31206  1.0000
  C   C90       1.0  0.40403  0.77152  0.35432  1.0000
  C   C91       1.0  0.38177  0.77644  0.33993  1.0000
  C   C92       1.0  0.36623  0.76746  0.25942  1.0000
  C   C93       1.0  0.34017  0.76539  0.25613  1.0000
  H   H53       1.0  0.32827  0.75669  0.20021  1.0000
  H   H54       1.0  0.43226  0.80516  0.27606  1.0000
  N   N29       1.0  0.37589  0.75840  0.18647  1.0000
  N   N30       1.0  0.47562  0.79844  0.26549  1.0000
  O   O33       1.0  0.37842  0.77191  0.11625  1.0000
  O   O34       1.0  0.47134  0.79893  0.18261  1.0000
  O   O35       1.0  0.36022  0.73341  0.17009  1.0000
  O   O36       1.0  0.48798  0.82259  0.29464  1.0000
  C   C94       1.0  0.76267  0.31710  0.35819  1.0000
  C   C95       1.0  0.78666  0.33704  0.31339  1.0000
  C   C96       1.0  0.79299  0.36480  0.31219  1.0000
  C   C97       1.0  0.77603  0.37335  0.35440  1.0000
  C   C98       1.0  0.78100  0.40055  0.34013  1.0000
  C   C99       1.0  0.77198  0.40712  0.25973  1.0000
  C   C100      1.0  0.77000  0.43115  0.25639  1.0000
  H   H55       1.0  0.76121  0.43431  0.20060  1.0000
  H   H56       1.0  0.80971  0.37877  0.27638  1.0000
  N   N31       1.0  0.76283  0.38838  0.18683  1.0000
  N   N32       1.0  0.80296  0.32867  0.26570  1.0000
  O   O37       1.0  0.77630  0.39930  0.11650  1.0000
  O   O38       1.0  0.80352  0.33348  0.18283  1.0000
  O   O39       1.0  0.73784  0.37910  0.17064  1.0000
  O   O40       1.0  0.82709  0.34044  0.29508  1.0000
  C   C101      1.0  0.69012  0.44248  0.35823  1.0000
  C   C102      1.0  0.67019  0.44651  0.31331  1.0000
  C   C103      1.0  0.64243  0.42509  0.31209  1.0000
  C   C104      1.0  0.63388  0.39957  0.35430  1.0000
  C   C105      1.0  0.60670  0.37732  0.33989  1.0000
  C   C106      1.0  0.60014  0.36177  0.25943  1.0000
  C   C107      1.0  0.57617  0.33571  0.25620  1.0000
  H   H57       1.0  0.57298  0.32381  0.20028  1.0000
  H   H58       1.0  0.62848  0.42782  0.27615  1.0000
  N   N33       1.0  0.61886  0.37143  0.18646  1.0000
  N   N34       1.0  0.67857  0.47117  0.26555  1.0000
  O   O41       1.0  0.60787  0.37394  0.11623  1.0000
  O   O42       1.0  0.67378  0.46691  0.18267  1.0000
  O   O43       1.0  0.62819  0.35577  0.17011  1.0000
  O   O44       1.0  0.66680  0.48354  0.29480  1.0000
  C   C108      1.0  0.56477  0.24446  0.35821  1.0000
  C   C109      1.0  0.56073  0.22048  0.31341  1.0000
  C   C110      1.0  0.58215  0.21414  0.31223  1.0000
  C   C111      1.0  0.60767  0.23111  0.35446  1.0000
  C   C112      1.0  0.62990  0.22615  0.34019  1.0000
  C   C113      1.0  0.64548  0.23516  0.25975  1.0000
  C   C114      1.0  0.67150  0.23717  0.25639  1.0000
  H   H59       1.0  0.68344  0.24596  0.20061  1.0000
  H   H60       1.0  0.57940  0.19743  0.27641  1.0000
  N   N35       1.0  0.63586  0.24429  0.18685  1.0000
  N   N36       1.0  0.53607  0.20418  0.26568  1.0000
  O   O45       1.0  0.63332  0.23082  0.11654  1.0000
  O   O46       1.0  0.54032  0.20363  0.18282  1.0000
  O   O47       1.0  0.65157  0.26929  0.17062  1.0000
  O   O48       1.0  0.52370  0.18006  0.29504  1.0000
  C   C115      1.0  0.15150  0.24956  0.34310  1.0000
  N   N37       1.0  0.16542  0.27743  0.34240  1.0000
  C   C116      1.0  0.15193  0.29179  0.34064  1.0000
  N   N38       1.0  0.12407  0.27767  0.33932  1.0000
  C   C117      1.0  0.10916  0.24973  0.33953  1.0000
  N   N39       1.0  0.12362  0.23620  0.34160  1.0000
  C   C118      1.0  0.75768  0.89881  0.34308  1.0000
  N   N40       1.0  0.72980  0.88486  0.34238  1.0000
  C   C119      1.0  0.71544  0.85701  0.34062  1.0000
  N   N41       1.0  0.72956  0.84326  0.33931  1.0000
  C   C120      1.0  0.75750  0.85630  0.33953  1.0000
  N   N42       1.0  0.77103  0.88428  0.34158  1.0000
  C   C121      1.0  0.10843  0.85574  0.34310  1.0000
  N   N43       1.0  0.12238  0.84182  0.34240  1.0000
  C   C122      1.0  0.15024  0.85531  0.34064  1.0000
  N   N44       1.0  0.16398  0.88318  0.33933  1.0000
  C   C123      1.0  0.15094  0.89808  0.33954  1.0000
  N   N45       1.0  0.12297  0.88363  0.34160  1.0000
  C   C124      1.0  0.86024  0.75319  0.34310  1.0000
  N   N46       1.0  0.84632  0.72532  0.34240  1.0000
  C   C125      1.0  0.85981  0.71096  0.34063  1.0000
  N   N47       1.0  0.88768  0.72508  0.33932  1.0000
  C   C126      1.0  0.90258  0.75301  0.33953  1.0000
  N   N48       1.0  0.88813  0.76654  0.34160  1.0000
  C   C127      1.0  0.25407  0.10393  0.34310  1.0000
  N   N49       1.0  0.28194  0.11788  0.34240  1.0000
  C   C128      1.0  0.29630  0.14573  0.34064  1.0000
  N   N50       1.0  0.28218  0.15948  0.33933  1.0000
  C   C129      1.0  0.25424  0.14644  0.33953  1.0000
  N   N51       1.0  0.24072  0.11847  0.34160  1.0000
  C   C130      1.0  0.90331  0.14700  0.34307  1.0000
  N   N52       1.0  0.88936  0.16093  0.34237  1.0000
  C   C131      1.0  0.86151  0.14744  0.34061  1.0000
  N   N53       1.0  0.84776  0.11957  0.33929  1.0000
  C   C132      1.0  0.86080  0.10467  0.33951  1.0000
  N   N54       1.0  0.88878  0.11912  0.34158  1.0000
  C   C133      1.0  0.29279  0.54187  0.35060  1.0000
  N   N55       1.0  0.27986  0.51394  0.34839  1.0000
  C   C134      1.0  0.25195  0.49776  0.34144  1.0000
  N   N56       1.0  0.23708  0.51089  0.33552  1.0000
  C   C135      1.0  0.24920  0.53866  0.33550  1.0000
  N   N57       1.0  0.27671  0.55330  0.34350  1.0000
  C   C136      1.0  0.46536  0.74772  0.35076  1.0000
  N   N58       1.0  0.49328  0.76273  0.34847  1.0000
  C   C137      1.0  0.50947  0.75102  0.34152  1.0000
  N   N59       1.0  0.49636  0.72302  0.33567  1.0000
  C   C138      1.0  0.46859  0.70736  0.33578  1.0000
  N   N60       1.0  0.45394  0.72021  0.34376  1.0000
  C   C139      1.0  0.25945  0.71447  0.35075  1.0000
  N   N61       1.0  0.24447  0.72741  0.34849  1.0000
  C   C140      1.0  0.25620  0.75531  0.34146  1.0000
  N   N62       1.0  0.28420  0.77017  0.33548  1.0000
  C   C141      1.0  0.29984  0.75803  0.33548  1.0000
  N   N63       1.0  0.28696  0.73053  0.34358  1.0000
  C   C142      1.0  0.71902  0.46087  0.35067  1.0000
  N   N64       1.0  0.73194  0.48879  0.34839  1.0000
  C   C143      1.0  0.75984  0.50499  0.34144  1.0000
  N   N65       1.0  0.77472  0.49187  0.33557  1.0000
  C   C144      1.0  0.76261  0.46409  0.33558  1.0000
  N   N66       1.0  0.73511  0.44945  0.34362  1.0000
  C   C145      1.0  0.54638  0.25496  0.35060  1.0000
  N   N67       1.0  0.51845  0.23997  0.34839  1.0000
  C   C146      1.0  0.50227  0.25169  0.34144  1.0000
  N   N68       1.0  0.51540  0.27969  0.33551  1.0000
  C   C147      1.0  0.54317  0.29534  0.33549  1.0000
  N   N69       1.0  0.55781  0.28247  0.34349  1.0000
  C   C148      1.0  0.75218  0.28821  0.35066  1.0000
  N   N70       1.0  0.76720  0.27530  0.34838  1.0000
  C   C149      1.0  0.75550  0.24740  0.34147  1.0000
  N   N71       1.0  0.72750  0.23250  0.33565  1.0000
  C   C150      1.0  0.71183  0.24460  0.33575  1.0000
  N   N72       1.0  0.72468  0.27211  0.34369  1.0000
  C   C151      1.0  0.23836  0.46819  0.34091  1.0000
  C   C152      1.0  0.25026  0.45304  0.37633  1.0000
  C   C153      1.0  0.23537  0.42396  0.37485  1.0000
  C   C154      1.0  0.20862  0.40896  0.33904  1.0000
  C   C155      1.0  0.19489  0.37957  0.34065  1.0000
  C   C156      1.0  0.18464  0.36448  0.42168  1.0000
  C   C157      1.0  0.17055  0.33544  0.41913  1.0000
  H   H61       1.0  0.16312  0.32484  0.47814  1.0000
  H   H62       1.0  0.24436  0.41355  0.40103  1.0000
  N   N73       1.0  0.18827  0.37876  0.50361  1.0000
  N   N74       1.0  0.27667  0.46684  0.41578  1.0000
  O   O49       1.0  0.20192  0.37364  0.55919  1.0000
  O   O50       1.0  0.29315  0.46165  0.37542  1.0000
  O   O51       1.0  0.16570  0.37282  0.53881  1.0000
  O   O52       1.0  0.27608  0.46096  0.49773  1.0000
  C   C158      1.0  0.53904  0.76700  0.34094  1.0000
  C   C159      1.0  0.55419  0.79407  0.37630  1.0000
  C   C160      1.0  0.58327  0.80826  0.37481  1.0000
  C   C161      1.0  0.59827  0.79651  0.33903  1.0000
  C   C162      1.0  0.62766  0.81217  0.34064  1.0000
  C   C163      1.0  0.64275  0.81702  0.42166  1.0000
  C   C164      1.0  0.67180  0.83197  0.41911  1.0000
  H   H63       1.0  0.68239  0.83513  0.47812  1.0000
  H   H64       1.0  0.59368  0.82766  0.40095  1.0000
  N   N75       1.0  0.62847  0.80635  0.50359  1.0000
  N   N76       1.0  0.54038  0.80667  0.41572  1.0000
  O   O53       1.0  0.63359  0.82512  0.55918  1.0000
  O   O54       1.0  0.54556  0.82833  0.37532  1.0000
  O   O55       1.0  0.63442  0.78972  0.53876  1.0000
  O   O56       1.0  0.54627  0.81197  0.49767  1.0000
  C   C165      1.0  0.24023  0.76890  0.34093  1.0000
  C   C166      1.0  0.21318  0.75701  0.37638  1.0000
  C   C167      1.0  0.19900  0.77191  0.37490  1.0000
  C   C168      1.0  0.21075  0.79865  0.33906  1.0000
  C   C169      1.0  0.19509  0.81239  0.34067  1.0000
  C   C170      1.0  0.19023  0.82262  0.42169  1.0000
  C   C171      1.0  0.17527  0.83671  0.41915  1.0000
  H   H65       1.0  0.17211  0.84414  0.47816  1.0000
  H   H66       1.0  0.17960  0.76292  0.40110  1.0000
  N   N77       1.0  0.20089  0.81900  0.50363  1.0000
  N   N78       1.0  0.20057  0.73061  0.41587  1.0000
  O   O57       1.0  0.18211  0.80534  0.55920  1.0000
  O   O58       1.0  0.17890  0.71413  0.37554  1.0000
  O   O59       1.0  0.21751  0.84157  0.53884  1.0000
  O   O60       1.0  0.19530  0.73121  0.49782  1.0000
  C   C172      1.0  0.77342  0.53455  0.34089  1.0000
  C   C173      1.0  0.76151  0.54970  0.37626  1.0000
  C   C174      1.0  0.77640  0.57878  0.37479  1.0000
  C   C175      1.0  0.80315  0.59378  0.33902  1.0000
  C   C176      1.0  0.81688  0.62318  0.34063  1.0000
  C   C177      1.0  0.82712  0.63827  0.42166  1.0000
  C   C178      1.0  0.84120  0.66731  0.41912  1.0000
  H   H67       1.0  0.84864  0.67790  0.47812  1.0000
  H   H68       1.0  0.76740  0.58919  0.40094  1.0000
  N   N79       1.0  0.82350  0.62398  0.50359  1.0000
  N   N80       1.0  0.73510  0.53589  0.41569  1.0000
  O   O61       1.0  0.80985  0.62909  0.55917  1.0000
  O   O62       1.0  0.71862  0.54107  0.37530  1.0000
  O   O63       1.0  0.84608  0.62994  0.53877  1.0000
  O   O64       1.0  0.73568  0.54177  0.49763  1.0000
  C   C179      1.0  0.47271  0.23572  0.34092  1.0000
  C   C180      1.0  0.45755  0.20866  0.37633  1.0000
  C   C181      1.0  0.42847  0.19448  0.37486  1.0000
  C   C182      1.0  0.41348  0.20623  0.33905  1.0000
  C   C183      1.0  0.38408  0.19057  0.34066  1.0000
  C   C184      1.0  0.36899  0.18572  0.42168  1.0000
  C   C185      1.0  0.33995  0.17077  0.41913  1.0000
  H   H69       1.0  0.32935  0.16761  0.47814  1.0000
  H   H70       1.0  0.41806  0.17508  0.40104  1.0000
  N   N81       1.0  0.38327  0.19638  0.50361  1.0000
  N   N82       1.0  0.47135  0.19606  0.41579  1.0000
  O   O65       1.0  0.37815  0.17760  0.55919  1.0000
  O   O66       1.0  0.46616  0.17439  0.37544  1.0000
  O   O67       1.0  0.37732  0.21300  0.53881  1.0000
  O   O68       1.0  0.46547  0.19077  0.49774  1.0000
  C   C186      1.0  0.77149  0.23383  0.34089  1.0000
  C   C187      1.0  0.79856  0.24574  0.37624  1.0000
  C   C188      1.0  0.81276  0.23086  0.37476  1.0000
  C   C189      1.0  0.80100  0.20411  0.33900  1.0000
  C   C190      1.0  0.81667  0.19038  0.34061  1.0000
  C   C191      1.0  0.82152  0.18013  0.42164  1.0000
  C   C192      1.0  0.83648  0.16605  0.41910  1.0000
  H   H71       1.0  0.83963  0.15861  0.47810  1.0000
  H   H72       1.0  0.83216  0.23986  0.40088  1.0000
  N   N83       1.0  0.81086  0.18376  0.50357  1.0000
  N   N84       1.0  0.81116  0.27215  0.41564  1.0000
  O   O69       1.0  0.82963  0.19741  0.55915  1.0000
  O   O70       1.0  0.83281  0.28863  0.37522  1.0000
  O   O71       1.0  0.79423  0.16118  0.53875  1.0000
  O   O72       1.0  0.81646  0.27158  0.49758  1.0000
  C   C193      1.0  0.19721  0.16259  0.37836  1.0000
  C   C194      1.0  0.21288  0.14921  0.37595  1.0000
  H   H73       1.0  0.20449  0.13002  0.40335  1.0000
  C   C195      1.0  0.16578  0.23473  0.34559  1.0000
  C   C196      1.0  0.17749  0.23122  0.42594  1.0000
  C   C197      1.0  0.19146  0.21613  0.42214  1.0000
  H   H74       1.0  0.19981  0.21351  0.47996  1.0000
  N   N85       1.0  0.17160  0.14904  0.41454  1.0000
  H   H75       1.0  0.16398  0.13056  0.43840  1.0000
  H   H76       1.0  0.15975  0.15694  0.41568  1.0000
  N   N86       1.0  0.17549  0.24152  0.50672  1.0000
  H   H77       1.0  0.18345  0.23877  0.56116  1.0000
  H   H78       1.0  0.16587  0.25168  0.51317  1.0000
  C   C198      1.0  0.84465  0.03149  0.37832  1.0000
  C   C199      1.0  0.85803  0.06053  0.37590  1.0000
  H   H79       1.0  0.87722  0.07134  0.40330  1.0000
  C   C200      1.0  0.77250  0.92792  0.34557  1.0000
  C   C201      1.0  0.77600  0.94314  0.42591  1.0000
  C   C202      1.0  0.79109  0.97219  0.42212  1.0000
  H   H80       1.0  0.79371  0.98317  0.47994  1.0000
  N   N87       1.0  0.85820  0.01942  0.41450  1.0000
  H   H81       1.0  0.87667  0.03028  0.43843  1.0000
  H   H82       1.0  0.85028  0.99967  0.41574  1.0000
  N   N88       1.0  0.76570  0.93084  0.50668  1.0000
  H   H83       1.0  0.76843  0.94155  0.56112  1.0000
  H   H84       1.0  0.75553  0.91105  0.51314  1.0000
  C   C203      1.0  0.97576  0.81004  0.37836  1.0000
  C   C204      1.0  0.94671  0.79437  0.37595  1.0000
  H   H85       1.0  0.93590  0.80276  0.40334  1.0000
  C   C205      1.0  0.07933  0.84146  0.34560  1.0000
  C   C206      1.0  0.06411  0.82975  0.42594  1.0000
  C   C207      1.0  0.03506  0.81579  0.42215  1.0000
  H   H86       1.0  0.02407  0.80744  0.47997  1.0000
  N   N89       1.0  0.98782  0.83565  0.41455  1.0000
  H   H87       1.0  0.97696  0.84327  0.43840  1.0000
  H   H88       1.0  0.00757  0.84750  0.41568  1.0000
  N   N90       1.0  0.07640  0.83175  0.50672  1.0000
  H   H89       1.0  0.06570  0.82379  0.56116  1.0000
  H   H90       1.0  0.09619  0.84137  0.51318  1.0000
  C   C208      1.0  0.81454  0.84016  0.37834  1.0000
  C   C209      1.0  0.79887  0.85353  0.37591  1.0000
  H   H91       1.0  0.80725  0.87273  0.40331  1.0000
  C   C210      1.0  0.84597  0.76802  0.34560  1.0000
  C   C211      1.0  0.83424  0.77151  0.42593  1.0000
  C   C212      1.0  0.82027  0.78660  0.42214  1.0000
  H   H92       1.0  0.81191  0.78922  0.47995  1.0000
  N   N91       1.0  0.84015  0.85370  0.41452  1.0000
  H   H93       1.0  0.84775  0.87217  0.43846  1.0000
  H   H94       1.0  0.85198  0.84579  0.41576  1.0000
  N   N92       1.0  0.83623  0.76120  0.50670  1.0000
  H   H95       1.0  0.82826  0.76394  0.56114  1.0000
  H   H96       1.0  0.84585  0.75104  0.51315  1.0000
  C   C213      1.0  0.16709  0.97126  0.37836  1.0000
  C   C214      1.0  0.15372  0.94222  0.37595  1.0000
  H   H97       1.0  0.13452  0.93141  0.40335  1.0000
  C   C215      1.0  0.23924  0.07483  0.34560  1.0000
  C   C216      1.0  0.23573  0.05961  0.42594  1.0000
  C   C217      1.0  0.22064  0.03055  0.42215  1.0000
  H   H98       1.0  0.21801  0.01957  0.47997  1.0000
  N   N93       1.0  0.15355  0.98332  0.41455  1.0000
  H   H99       1.0  0.13507  0.97246  0.43840  1.0000
  H   H100      1.0  0.16145  0.00307  0.41568  1.0000
  N   N94       1.0  0.24602  0.07190  0.50672  1.0000
  H   H101      1.0  0.24328  0.06120  0.56116  1.0000
  H   H102      1.0  0.25619  0.09169  0.51317  1.0000
  C   C218      1.0  0.03598  0.19270  0.37833  1.0000
  C   C219      1.0  0.06503  0.20837  0.37591  1.0000
  H   H103      1.0  0.07584  0.19998  0.40331  1.0000
  C   C220      1.0  0.93242  0.16128  0.34558  1.0000
  C   C221      1.0  0.94764  0.17300  0.42592  1.0000
  C   C222      1.0  0.97669  0.18697  0.42213  1.0000
  H   H104      1.0  0.98767  0.19532  0.47994  1.0000
  N   N95       1.0  0.02392  0.16709  0.41451  1.0000
  H   H105      1.0  0.03478  0.15948  0.43844  1.0000
  H   H106      1.0  0.00417  0.15526  0.41575  1.0000
  N   N96       1.0  0.93534  0.17101  0.50668  1.0000
  H   H107      1.0  0.94604  0.17898  0.56112  1.0000
  H   H108      1.0  0.91555  0.16139  0.51314  1.0000
  C   C223      1.0  0.25931  0.64904  0.40165  1.0000
  C   C224      1.0  0.26502  0.67647  0.40410  1.0000
  H   H109      1.0  0.28231  0.69053  0.43739  1.0000
  C   C225      1.0  0.23582  0.55426  0.33177  1.0000
  C   C226      1.0  0.22563  0.56015  0.41138  1.0000
  C   C227      1.0  0.22271  0.58372  0.41331  1.0000
  H   H110      1.0  0.21718  0.58900  0.47249  1.0000
  N   N97       1.0  0.27758  0.64316  0.44140  1.0000
  H   H111      1.0  0.29393  0.65725  0.47149  1.0000
  H   H112      1.0  0.27559  0.62506  0.43867  1.0000
  N   N98       1.0  0.22024  0.54496  0.48782  1.0000
  H   H113      1.0  0.21361  0.54944  0.54212  1.0000
  H   H114      1.0  0.22177  0.52856  0.48984  1.0000
  C   C228      1.0  0.35820  0.60717  0.40157  1.0000
  C   C229      1.0  0.33077  0.58546  0.40394  1.0000
  H   H115      1.0  0.31670  0.58869  0.43712  1.0000
  C   C230      1.0  0.45304  0.67836  0.33207  1.0000
  C   C231      1.0  0.44712  0.66232  0.41172  1.0000
  C   C232      1.0  0.42355  0.63582  0.41354  1.0000
  H   H116      1.0  0.41821  0.62501  0.47272  1.0000
  N   N99       1.0  0.36409  0.63132  0.44135  1.0000
  H   H117      1.0  0.34999  0.63357  0.47147  1.0000
  H   H118      1.0  0.38220  0.64740  0.43881  1.0000
  N   N100      1.0  0.46229  0.67212  0.48820  1.0000
  H   H119      1.0  0.45778  0.66101  0.54252  1.0000
  H   H120      1.0  0.47869  0.69005  0.49023  1.0000
  C   C233      1.0  0.40004  0.74782  0.40152  1.0000
  C   C234      1.0  0.42177  0.74212  0.40398  1.0000
  H   H121      1.0  0.41853  0.72483  0.43725  1.0000
  C   C235      1.0  0.32883  0.77142  0.33171  1.0000
  C   C236      1.0  0.34485  0.78154  0.41143  1.0000
  C   C237      1.0  0.37133  0.78442  0.41334  1.0000
  H   H122      1.0  0.38214  0.78993  0.47252  1.0000
  N   N101      1.0  0.37588  0.72954  0.44122  1.0000
  H   H123      1.0  0.37363  0.71319  0.47128  1.0000
  H   H124      1.0  0.35978  0.73153  0.43846  1.0000
  N   N102      1.0  0.33505  0.78692  0.48789  1.0000
  H   H125      1.0  0.34615  0.79351  0.54222  1.0000
  H   H126      1.0  0.31713  0.78542  0.48988  1.0000
  C   C238      1.0  0.75230  0.35364  0.40146  1.0000
  C   C239      1.0  0.74657  0.32621  0.40383  1.0000
  H   H127      1.0  0.72925  0.31214  0.43699  1.0000
  C   C240      1.0  0.77605  0.44854  0.33201  1.0000
  C   C241      1.0  0.78616  0.44258  0.41163  1.0000
  C   C242      1.0  0.78905  0.41900  0.41347  1.0000
  H   H128      1.0  0.79451  0.41365  0.47266  1.0000
  N   N103      1.0  0.73404  0.35954  0.44119  1.0000
  H   H129      1.0  0.71769  0.34545  0.47129  1.0000
  H   H130      1.0  0.73609  0.37766  0.43867  1.0000
  N   N104      1.0  0.79152  0.45775  0.48811  1.0000
  H   H131      1.0  0.79811  0.45323  0.54244  1.0000
  H   H132      1.0  0.79001  0.47416  0.49013  1.0000
  C   C243      1.0  0.65359  0.39556  0.40142  1.0000
  C   C244      1.0  0.68102  0.41728  0.40386  1.0000
  H   H133      1.0  0.69508  0.41403  0.43708  1.0000
  C   C245      1.0  0.55878  0.32432  0.33175  1.0000
  C   C246      1.0  0.56469  0.34040  0.41137  1.0000
  C   C247      1.0  0.58828  0.36689  0.41329  1.0000
  H   H134      1.0  0.59357  0.37770  0.47246  1.0000
  N   N105      1.0  0.64770  0.37140  0.44110  1.0000
  H   H135      1.0  0.66180  0.36914  0.47111  1.0000
  H   H136      1.0  0.62961  0.35531  0.43838  1.0000
  N   N106      1.0  0.54952  0.33060  0.48784  1.0000
  H   H137      1.0  0.55401  0.34172  0.54214  1.0000
  H   H138      1.0  0.53311  0.31268  0.48987  1.0000
  C   C248      1.0  0.61168  0.25484  0.40153  1.0000
  C   C249      1.0  0.58997  0.26056  0.40390  1.0000
  H   H139      1.0  0.59321  0.27788  0.43705  1.0000
  C   C250      1.0  0.68284  0.23115  0.33206  1.0000
  C   C251      1.0  0.66680  0.22104  0.41174  1.0000
  C   C252      1.0  0.64031  0.21812  0.41356  1.0000
  H   H140      1.0  0.62951  0.21266  0.47275  1.0000
  N   N107      1.0  0.63583  0.27310  0.44127  1.0000
  H   H141      1.0  0.63809  0.28945  0.47136  1.0000
  H   H142      1.0  0.65191  0.27106  0.43874  1.0000
  N   N108      1.0  0.67661  0.21569  0.48823  1.0000
  H   H143      1.0  0.66551  0.20910  0.54255  1.0000
  H   H144      1.0  0.69454  0.21721  0.49024  1.0000
