data_image0
_chemical_formula_structural       C8H3C3H2C3H2C3HOHC3HOHC8H3C3H2C3H2C3HOHC3HOHC3H2C6HC2H2C6HC2H3OC3H2C3H2C6HC2H2C6HC2H3OC3H2C3H2C7HCHC8H2C3HOC3H2C7HCHC8H2C3HOC7HCH2C3H2C3H4C3HOHC3HOHC7HCH2C3H2C3H4C3HOHC3HOHC8HC7HCH4C3H2C3H2C3H2C3H2C3H2C3H2C8HC7HCH4C8HC7HCH4C3HOHC3HOHC3HOHC3HOHC3HOHC3HOHC8HC7HCH4C3H2C3H2C3H2C3H2C3H2C3H2C8HC7HCH4C8HC7HCH4C3HOHC3HOHC3HOHC3HOHC3HOHC3HOH
_chemical_formula_sum              "C336 H168 O24"
_cell_length_a       46.6405
_cell_length_b       46.6406
_cell_length_c       14.7981
_cell_angle_alpha    89.998
_cell_angle_beta     90.002
_cell_angle_gamma    120

_space_group_name_H-M_alt    "P 1"
_space_group_IT_number       1

loop_
  _space_group_symop_operation_xyz
  'x, y, z'

loop_
  _atom_site_type_symbol
  _atom_site_label
  _atom_site_symmetry_multiplicity
  _atom_site_fract_x
  _atom_site_fract_y
  _atom_site_fract_z
  _atom_site_occupancy
  C   C1        1.0  0.02843  0.26511  0.34187  1.0000
  C   C2        1.0  0.04625  0.30056  0.34269  1.0000
  C   C3        1.0  0.08150  0.31822  0.34547  1.0000
  C   C4        1.0  0.09821  0.30000  0.34729  1.0000
  C   C5        1.0  0.08150  0.26508  0.34531  1.0000
  C   C6        1.0  0.04625  0.24748  0.34265  1.0000
  C   C7        1.0  0.02800  0.31730  0.34265  1.0000
  C   C8        1.0  0.02803  0.21251  0.34257  1.0000
  H   H1        1.0  0.12366  0.31271  0.34932  1.0000
  H   H2        1.0  0.03983  0.34260  0.34352  1.0000
  H   H3        1.0  0.03987  0.19904  0.34341  1.0000
  C   C9        1.0  0.16364  0.25040  0.34865  1.0000
  C   C10       1.0  0.14641  0.24765  0.26743  1.0000
  C   C11       1.0  0.11619  0.24772  0.26770  1.0000
  H   H4        1.0  0.10675  0.24966  0.20697  1.0000
  H   H5        1.0  0.15767  0.24957  0.20652  1.0000
  C   C12       1.0  0.10194  0.35317  0.34884  1.0000
  C   C13       1.0  0.11628  0.37032  0.26746  1.0000
  C   C14       1.0  0.14659  0.40051  0.26761  1.0000
  H   H6        1.0  0.15783  0.41005  0.20679  1.0000
  H   H7        1.0  0.10673  0.35913  0.20660  1.0000
  C   C15       1.0  0.10192  0.25054  0.34930  1.0000
  C   C16       1.0  0.11868  0.25243  0.43115  1.0000
  C   C17       1.0  0.14899  0.25255  0.43023  1.0000
  H   H8        1.0  0.16212  0.25769  0.48929  1.0000
  O   O1        1.0  0.10884  0.25919  0.51116  1.0000
  H   H9        1.0  0.08830  0.23900  0.52833  1.0000
  C   C18       1.0  0.16381  0.41485  0.34899  1.0000
  C   C19       1.0  0.14902  0.39807  0.43097  1.0000
  C   C20       1.0  0.11886  0.36774  0.43030  1.0000
  H   H10       1.0  0.11085  0.35465  0.48945  1.0000
  O   O2        1.0  0.16566  0.40795  0.51093  1.0000
  H   H11       1.0  0.16594  0.42845  0.52814  1.0000
  C   C21       1.0  0.02843  0.76511  0.34187  1.0000
  C   C22       1.0  0.04625  0.80056  0.34269  1.0000
  C   C23       1.0  0.08150  0.81821  0.34547  1.0000
  C   C24       1.0  0.09821  0.80000  0.34729  1.0000
  C   C25       1.0  0.08150  0.76508  0.34531  1.0000
  C   C26       1.0  0.04625  0.74748  0.34265  1.0000
  C   C27       1.0  0.02800  0.81730  0.34265  1.0000
  C   C28       1.0  0.02803  0.71250  0.34257  1.0000
  H   H12       1.0  0.12366  0.81271  0.34932  1.0000
  H   H13       1.0  0.03983  0.84261  0.34352  1.0000
  H   H14       1.0  0.03987  0.69903  0.34341  1.0000
  C   C29       1.0  0.16364  0.75040  0.34865  1.0000
  C   C30       1.0  0.14641  0.74765  0.26743  1.0000
  C   C31       1.0  0.11619  0.74772  0.26770  1.0000
  H   H15       1.0  0.10675  0.74966  0.20697  1.0000
  H   H16       1.0  0.15767  0.74957  0.20652  1.0000
  C   C32       1.0  0.10194  0.85317  0.34884  1.0000
  C   C33       1.0  0.11628  0.87032  0.26746  1.0000
  C   C34       1.0  0.14659  0.90051  0.26761  1.0000
  H   H17       1.0  0.15783  0.91005  0.20679  1.0000
  H   H18       1.0  0.10673  0.85913  0.20660  1.0000
  C   C35       1.0  0.10192  0.75054  0.34930  1.0000
  C   C36       1.0  0.11868  0.75243  0.43115  1.0000
  C   C37       1.0  0.14899  0.75255  0.43023  1.0000
  H   H19       1.0  0.16212  0.75769  0.48929  1.0000
  O   O3        1.0  0.10884  0.75919  0.51116  1.0000
  H   H20       1.0  0.08831  0.73900  0.52833  1.0000
  C   C38       1.0  0.16381  0.91485  0.34899  1.0000
  C   C39       1.0  0.14902  0.89808  0.43097  1.0000
  C   C40       1.0  0.11886  0.86774  0.43030  1.0000
  H   H21       1.0  0.11085  0.85465  0.48945  1.0000
  O   O4        1.0  0.16566  0.90795  0.51093  1.0000
  H   H22       1.0  0.16594  0.92845  0.52814  1.0000
  C   C41       1.0  0.25503  0.09741  0.34861  1.0000
  C   C42       1.0  0.25192  0.11164  0.26742  1.0000
  C   C43       1.0  0.25196  0.14192  0.26765  1.0000
  H   H23       1.0  0.25351  0.15311  0.20685  1.0000
  H   H24       1.0  0.25351  0.10208  0.20656  1.0000
  C   C44       1.0  0.25171  0.26498  0.34186  1.0000
  C   C45       1.0  0.21625  0.24733  0.34263  1.0000
  C   C46       1.0  0.19859  0.26493  0.34528  1.0000
  C   C47       1.0  0.21679  0.29985  0.34703  1.0000
  C   C48       1.0  0.25171  0.31807  0.34524  1.0000
  C   C49       1.0  0.19953  0.21236  0.34258  1.0000
  H   H25       1.0  0.20406  0.31257  0.34899  1.0000
  C   C50       1.0  0.25189  0.21177  0.34263  1.0000
  C   C51       1.0  0.21692  0.19501  0.34260  1.0000
  H   H26       1.0  0.20346  0.16970  0.34344  1.0000
  H   H27       1.0  0.17423  0.19887  0.34343  1.0000
  C   C52       1.0  0.25186  0.48835  0.34187  1.0000
  C   C53       1.0  0.25190  0.43528  0.34547  1.0000
  C   C54       1.0  0.21697  0.41857  0.34708  1.0000
  C   C55       1.0  0.19876  0.43528  0.34523  1.0000
  C   C56       1.0  0.21641  0.47053  0.34261  1.0000
  C   C57       1.0  0.19965  0.48875  0.34254  1.0000
  H   H28       1.0  0.20424  0.39312  0.34898  1.0000
  C   C58       1.0  0.25198  0.04173  0.34263  1.0000
  C   C59       1.0  0.21700  0.02348  0.34252  1.0000
  H   H29       1.0  0.20352  0.03531  0.34342  1.0000
  H   H30       1.0  0.17434  0.47691  0.34339  1.0000
  H   H31       1.0  0.25881  0.40590  0.48925  1.0000
  O   O5        1.0  0.25724  0.35108  0.51097  1.0000
  C   C60       1.0  0.25502  0.15918  0.34905  1.0000
  C   C61       1.0  0.25723  0.14450  0.43097  1.0000
  C   C62       1.0  0.25749  0.11438  0.43014  1.0000
  H   H32       1.0  0.26281  0.10648  0.48911  1.0000
  H   H33       1.0  0.24403  0.16154  0.52843  1.0000
  C   C63       1.0  0.25503  0.59741  0.34861  1.0000
  C   C64       1.0  0.25192  0.61164  0.26742  1.0000
  C   C65       1.0  0.25196  0.64192  0.26765  1.0000
  H   H34       1.0  0.25351  0.65311  0.20685  1.0000
  H   H35       1.0  0.25351  0.60208  0.20656  1.0000
  C   C66       1.0  0.25171  0.76498  0.34186  1.0000
  C   C67       1.0  0.21625  0.74733  0.34263  1.0000
  C   C68       1.0  0.19859  0.76493  0.34528  1.0000
  C   C69       1.0  0.21679  0.79985  0.34703  1.0000
  C   C70       1.0  0.25171  0.81807  0.34524  1.0000
  C   C71       1.0  0.19953  0.71236  0.34258  1.0000
  H   H36       1.0  0.20406  0.81257  0.34899  1.0000
  C   C72       1.0  0.25189  0.71177  0.34263  1.0000
  C   C73       1.0  0.21692  0.69501  0.34260  1.0000
  H   H37       1.0  0.20346  0.66970  0.34344  1.0000
  H   H38       1.0  0.17423  0.69887  0.34343  1.0000
  C   C74       1.0  0.25185  0.98835  0.34187  1.0000
  C   C75       1.0  0.25190  0.93528  0.34547  1.0000
  C   C76       1.0  0.21698  0.91858  0.34708  1.0000
  C   C77       1.0  0.19877  0.93528  0.34523  1.0000
  C   C78       1.0  0.21641  0.97053  0.34261  1.0000
  C   C79       1.0  0.19965  0.98875  0.34254  1.0000
  H   H39       1.0  0.20424  0.89312  0.34898  1.0000
  C   C80       1.0  0.25198  0.54173  0.34263  1.0000
  C   C81       1.0  0.21701  0.52348  0.34252  1.0000
  H   H40       1.0  0.20352  0.53531  0.34342  1.0000
  H   H41       1.0  0.17434  0.97691  0.34339  1.0000
  H   H42       1.0  0.25881  0.90591  0.48925  1.0000
  O   O6        1.0  0.25724  0.85108  0.51097  1.0000
  C   C82       1.0  0.25502  0.65917  0.34905  1.0000
  C   C83       1.0  0.25723  0.64450  0.43097  1.0000
  C   C84       1.0  0.25749  0.61437  0.43014  1.0000
  H   H43       1.0  0.26281  0.60648  0.48911  1.0000
  H   H44       1.0  0.24403  0.66153  0.52843  1.0000
  C   C85       1.0  0.26642  0.41483  0.34865  1.0000
  C   C86       1.0  0.26935  0.40053  0.26735  1.0000
  C   C87       1.0  0.26928  0.37024  0.26756  1.0000
  H   H45       1.0  0.26752  0.35898  0.20674  1.0000
  H   H46       1.0  0.26769  0.41008  0.20652  1.0000
  C   C88       1.0  0.26932  0.30043  0.34263  1.0000
  C   C89       1.0  0.30430  0.31720  0.34264  1.0000
  C   C90       1.0  0.26951  0.24722  0.34188  1.0000
  C   C91       1.0  0.26952  0.19414  0.34528  1.0000
  C   C92       1.0  0.30444  0.21237  0.34715  1.0000
  C   C93       1.0  0.32263  0.24729  0.34543  1.0000
  C   C94       1.0  0.30496  0.26487  0.34271  1.0000
  H   H47       1.0  0.31718  0.19966  0.34912  1.0000
  C   C95       1.0  0.32168  0.29985  0.34265  1.0000
  H   H48       1.0  0.31776  0.34250  0.34351  1.0000
  C   C96       1.0  0.26950  0.47054  0.34269  1.0000
  C   C97       1.0  0.30447  0.48879  0.34267  1.0000
  C   C98       1.0  0.26962  0.02392  0.34188  1.0000
  C   C99       1.0  0.30507  0.04174  0.34271  1.0000
  C   C100      1.0  0.32271  0.07700  0.34536  1.0000
  C   C101      1.0  0.30449  0.09369  0.34717  1.0000
  C   C102      1.0  0.26957  0.07698  0.34549  1.0000
  C   C103      1.0  0.32183  0.02352  0.34271  1.0000
  H   H49       1.0  0.31721  0.11915  0.34909  1.0000
  H   H50       1.0  0.31795  0.47696  0.34361  1.0000
  C   C104      1.0  0.26623  0.35304  0.34905  1.0000
  C   C105      1.0  0.26417  0.36775  0.43103  1.0000
  C   C106      1.0  0.26399  0.39792  0.43023  1.0000
  H   H51       1.0  0.27734  0.35059  0.52826  1.0000
  O   O7        1.0  0.26418  0.16118  0.51089  1.0000
  C   C107      1.0  0.26642  0.91483  0.34865  1.0000
  C   C108      1.0  0.26935  0.90054  0.26735  1.0000
  C   C109      1.0  0.26927  0.87024  0.26756  1.0000
  H   H52       1.0  0.26752  0.85898  0.20674  1.0000
  H   H53       1.0  0.26769  0.91008  0.20652  1.0000
  C   C110      1.0  0.26932  0.80043  0.34263  1.0000
  C   C111      1.0  0.30430  0.81720  0.34264  1.0000
  C   C112      1.0  0.26951  0.74722  0.34188  1.0000
  C   C113      1.0  0.26952  0.69413  0.34528  1.0000
  C   C114      1.0  0.30444  0.71237  0.34715  1.0000
  C   C115      1.0  0.32263  0.74729  0.34543  1.0000
  C   C116      1.0  0.30496  0.76487  0.34271  1.0000
  H   H54       1.0  0.31718  0.69966  0.34912  1.0000
  C   C117      1.0  0.32168  0.79985  0.34265  1.0000
  H   H55       1.0  0.31776  0.84250  0.34351  1.0000
  C   C118      1.0  0.26950  0.97054  0.34269  1.0000
  C   C119      1.0  0.30447  0.98879  0.34267  1.0000
  C   C120      1.0  0.26962  0.52392  0.34188  1.0000
  C   C121      1.0  0.30507  0.54174  0.34271  1.0000
  C   C122      1.0  0.32271  0.57700  0.34536  1.0000
  C   C123      1.0  0.30449  0.59369  0.34717  1.0000
  C   C124      1.0  0.26957  0.57698  0.34549  1.0000
  C   C125      1.0  0.32183  0.52352  0.34271  1.0000
  H   H56       1.0  0.31721  0.61915  0.34909  1.0000
  H   H57       1.0  0.31795  0.97696  0.34361  1.0000
  C   C126      1.0  0.26623  0.85304  0.34905  1.0000
  C   C127      1.0  0.26417  0.86775  0.43103  1.0000
  C   C128      1.0  0.26399  0.89791  0.43023  1.0000
  H   H58       1.0  0.27734  0.85059  0.52826  1.0000
  O   O8        1.0  0.26418  0.66118  0.51089  1.0000
  C   C129      1.0  0.49287  0.24732  0.34187  1.0000
  C   C130      1.0  0.47504  0.26495  0.34269  1.0000
  C   C131      1.0  0.43979  0.24733  0.34528  1.0000
  C   C132      1.0  0.42309  0.21242  0.34732  1.0000
  C   C133      1.0  0.43980  0.19421  0.34549  1.0000
  C   C134      1.0  0.47506  0.21187  0.34265  1.0000
  C   C135      1.0  0.49327  0.29992  0.34264  1.0000
  H   H59       1.0  0.39764  0.19969  0.34936  1.0000
  C   C136      1.0  0.49329  0.19513  0.34255  1.0000
  H   H60       1.0  0.48143  0.31339  0.34352  1.0000
  H   H61       1.0  0.48147  0.16982  0.34341  1.0000
  C   C137      1.0  0.35758  0.26184  0.34888  1.0000
  C   C138      1.0  0.37476  0.26461  0.26754  1.0000
  C   C139      1.0  0.40501  0.26460  0.26776  1.0000
  H   H62       1.0  0.41444  0.26266  0.20701  1.0000
  H   H63       1.0  0.36347  0.26266  0.20667  1.0000
  C   C140      1.0  0.41939  0.15925  0.34891  1.0000
  C   C141      1.0  0.40518  0.14202  0.26755  1.0000
  C   C142      1.0  0.37487  0.11181  0.26777  1.0000
  H   H64       1.0  0.36364  0.10225  0.20696  1.0000
  H   H65       1.0  0.41461  0.15326  0.20669  1.0000
  H   H66       1.0  0.34699  0.31334  0.34356  1.0000
  H   H67       1.0  0.34714  0.03537  0.34363  1.0000
  C   C143      1.0  0.41936  0.26185  0.34933  1.0000
  C   C144      1.0  0.40263  0.25996  0.43124  1.0000
  C   C145      1.0  0.37225  0.25971  0.43042  1.0000
  H   H68       1.0  0.35914  0.25463  0.48951  1.0000
  O   O9        1.0  0.41254  0.25328  0.51124  1.0000
  H   H69       1.0  0.43305  0.27352  0.52832  1.0000
  C   C146      1.0  0.35766  0.09745  0.34915  1.0000
  C   C147      1.0  0.37241  0.11427  0.43110  1.0000
  C   C148      1.0  0.40252  0.14467  0.43042  1.0000
  H   H70       1.0  0.41044  0.15780  0.48950  1.0000
  O   O10       1.0  0.35577  0.10438  0.51105  1.0000
  H   H71       1.0  0.35560  0.08395  0.52839  1.0000
  C   C149      1.0  0.49287  0.74732  0.34187  1.0000
  C   C150      1.0  0.47504  0.76495  0.34269  1.0000
  C   C151      1.0  0.43979  0.74733  0.34528  1.0000
  C   C152      1.0  0.42309  0.71242  0.34732  1.0000
  C   C153      1.0  0.43980  0.69421  0.34549  1.0000
  C   C154      1.0  0.47506  0.71187  0.34265  1.0000
  C   C155      1.0  0.49327  0.79992  0.34264  1.0000
  H   H72       1.0  0.39764  0.69969  0.34936  1.0000
  C   C156      1.0  0.49330  0.69513  0.34255  1.0000
  H   H73       1.0  0.48143  0.81339  0.34352  1.0000
  H   H74       1.0  0.48147  0.66983  0.34341  1.0000
  C   C157      1.0  0.35758  0.76184  0.34888  1.0000
  C   C158      1.0  0.37476  0.76461  0.26754  1.0000
  C   C159      1.0  0.40501  0.76459  0.26776  1.0000
  H   H75       1.0  0.41444  0.76266  0.20701  1.0000
  H   H76       1.0  0.36347  0.76266  0.20667  1.0000
  C   C160      1.0  0.41939  0.65925  0.34891  1.0000
  C   C161      1.0  0.40518  0.64202  0.26755  1.0000
  C   C162      1.0  0.37487  0.61181  0.26777  1.0000
  H   H77       1.0  0.36364  0.60225  0.20696  1.0000
  H   H78       1.0  0.41461  0.65326  0.20669  1.0000
  H   H79       1.0  0.34699  0.81334  0.34356  1.0000
  H   H80       1.0  0.34714  0.53537  0.34363  1.0000
  C   C163      1.0  0.41936  0.76185  0.34933  1.0000
  C   C164      1.0  0.40263  0.75996  0.43124  1.0000
  C   C165      1.0  0.37225  0.75971  0.43042  1.0000
  H   H81       1.0  0.35914  0.75463  0.48951  1.0000
  O   O11       1.0  0.41254  0.75328  0.51124  1.0000
  H   H82       1.0  0.43305  0.77352  0.52832  1.0000
  C   C166      1.0  0.35766  0.59745  0.34915  1.0000
  C   C167      1.0  0.37241  0.61427  0.43110  1.0000
  C   C168      1.0  0.40252  0.64467  0.43042  1.0000
  H   H83       1.0  0.41044  0.65780  0.48950  1.0000
  O   O12       1.0  0.35577  0.60438  0.51105  1.0000
  H   H84       1.0  0.35560  0.58395  0.52839  1.0000
  C   C169      1.0  0.52843  0.26511  0.34187  1.0000
  C   C170      1.0  0.54625  0.30056  0.34269  1.0000
  C   C171      1.0  0.58150  0.31822  0.34547  1.0000
  C   C172      1.0  0.59821  0.30000  0.34729  1.0000
  C   C173      1.0  0.58150  0.26508  0.34531  1.0000
  C   C174      1.0  0.54625  0.24748  0.34265  1.0000
  C   C175      1.0  0.52801  0.31730  0.34265  1.0000
  C   C176      1.0  0.52803  0.21251  0.34257  1.0000
  H   H85       1.0  0.62366  0.31271  0.34932  1.0000
  C   C177      1.0  0.99287  0.24732  0.34187  1.0000
  C   C178      1.0  0.97505  0.26495  0.34269  1.0000
  C   C179      1.0  0.93979  0.24733  0.34528  1.0000
  C   C180      1.0  0.92309  0.21242  0.34732  1.0000
  C   C181      1.0  0.93980  0.19421  0.34549  1.0000
  C   C182      1.0  0.97506  0.21187  0.34265  1.0000
  C   C183      1.0  0.99327  0.29992  0.34264  1.0000
  H   H86       1.0  0.89764  0.19969  0.34936  1.0000
  C   C184      1.0  0.99330  0.19513  0.34255  1.0000
  H   H87       1.0  0.98143  0.31339  0.34352  1.0000
  H   H88       1.0  0.53983  0.34260  0.34352  1.0000
  H   H89       1.0  0.98147  0.16982  0.34341  1.0000
  H   H90       1.0  0.53987  0.19904  0.34341  1.0000
  C   C185      1.0  0.66364  0.25040  0.34865  1.0000
  C   C186      1.0  0.64641  0.24765  0.26743  1.0000
  C   C187      1.0  0.61619  0.24772  0.26770  1.0000
  H   H91       1.0  0.60675  0.24966  0.20697  1.0000
  H   H92       1.0  0.65767  0.24957  0.20652  1.0000
  C   C188      1.0  0.76642  0.41483  0.34865  1.0000
  C   C189      1.0  0.76935  0.40053  0.26735  1.0000
  C   C190      1.0  0.76928  0.37024  0.26756  1.0000
  H   H93       1.0  0.76752  0.35898  0.20674  1.0000
  H   H94       1.0  0.76769  0.41008  0.20652  1.0000
  C   C191      1.0  0.60194  0.35317  0.34884  1.0000
  C   C192      1.0  0.61628  0.37032  0.26746  1.0000
  C   C193      1.0  0.64659  0.40051  0.26761  1.0000
  H   H95       1.0  0.65783  0.41005  0.20679  1.0000
  H   H96       1.0  0.60673  0.35913  0.20660  1.0000
  C   C194      1.0  0.85758  0.26184  0.34888  1.0000
  C   C195      1.0  0.87476  0.26461  0.26754  1.0000
  C   C196      1.0  0.90501  0.26460  0.26776  1.0000
  H   H97       1.0  0.91444  0.26266  0.20701  1.0000
  H   H98       1.0  0.86347  0.26266  0.20667  1.0000
  C   C197      1.0  0.75503  0.09741  0.34861  1.0000
  C   C198      1.0  0.75192  0.11164  0.26742  1.0000
  C   C199      1.0  0.75196  0.14192  0.26765  1.0000
  H   H99       1.0  0.75351  0.15311  0.20685  1.0000
  H   H100      1.0  0.75351  0.10208  0.20656  1.0000
  C   C200      1.0  0.91939  0.15925  0.34891  1.0000
  C   C201      1.0  0.90518  0.14202  0.26755  1.0000
  C   C202      1.0  0.87487  0.11181  0.26777  1.0000
  H   H101      1.0  0.86364  0.10225  0.20696  1.0000
  H   H102      1.0  0.91461  0.15326  0.20669  1.0000
  C   C203      1.0  0.75171  0.26498  0.34186  1.0000
  C   C204      1.0  0.71625  0.24733  0.34263  1.0000
  C   C205      1.0  0.69859  0.26493  0.34528  1.0000
  C   C206      1.0  0.71679  0.29985  0.34703  1.0000
  C   C207      1.0  0.75171  0.31807  0.34524  1.0000
  C   C208      1.0  0.76932  0.30043  0.34263  1.0000
  C   C209      1.0  0.69953  0.21236  0.34258  1.0000
  C   C210      1.0  0.80430  0.31720  0.34264  1.0000
  H   H103      1.0  0.70406  0.31257  0.34899  1.0000
  C   C211      1.0  0.76951  0.24722  0.34188  1.0000
  C   C212      1.0  0.75189  0.21177  0.34263  1.0000
  C   C213      1.0  0.76952  0.19414  0.34528  1.0000
  C   C214      1.0  0.80444  0.21237  0.34715  1.0000
  C   C215      1.0  0.82263  0.24729  0.34543  1.0000
  C   C216      1.0  0.80496  0.26487  0.34271  1.0000
  C   C217      1.0  0.71692  0.19501  0.34260  1.0000
  H   H104      1.0  0.81718  0.19966  0.34912  1.0000
  C   C218      1.0  0.82168  0.29985  0.34265  1.0000
  H   H105      1.0  0.70346  0.16970  0.34344  1.0000
  H   H106      1.0  0.67423  0.19887  0.34343  1.0000
  H   H107      1.0  0.84699  0.31334  0.34356  1.0000
  H   H108      1.0  0.81776  0.34250  0.34351  1.0000
  C   C219      1.0  0.75186  0.48835  0.34187  1.0000
  C   C220      1.0  0.76950  0.47054  0.34269  1.0000
  C   C221      1.0  0.75190  0.43528  0.34547  1.0000
  C   C222      1.0  0.71697  0.41857  0.34708  1.0000
  C   C223      1.0  0.69877  0.43528  0.34523  1.0000
  C   C224      1.0  0.71641  0.47053  0.34261  1.0000
  C   C225      1.0  0.80447  0.48879  0.34267  1.0000
  C   C226      1.0  0.69965  0.48875  0.34254  1.0000
  H   H109      1.0  0.70424  0.39312  0.34898  1.0000
  C   C227      1.0  0.76962  0.02392  0.34188  1.0000
  C   C228      1.0  0.80507  0.04174  0.34271  1.0000
  C   C229      1.0  0.82271  0.07700  0.34536  1.0000
  C   C230      1.0  0.80449  0.09369  0.34717  1.0000
  C   C231      1.0  0.76957  0.07698  0.34549  1.0000
  C   C232      1.0  0.75198  0.04173  0.34263  1.0000
  C   C233      1.0  0.82183  0.02352  0.34271  1.0000
  H   H110      1.0  0.81721  0.11915  0.34909  1.0000
  C   C234      1.0  0.71701  0.02348  0.34252  1.0000
  H   H111      1.0  0.84714  0.03537  0.34363  1.0000
  H   H112      1.0  0.81795  0.47696  0.34361  1.0000
  H   H113      1.0  0.70352  0.03531  0.34342  1.0000
  H   H114      1.0  0.67434  0.47691  0.34339  1.0000
  C   C235      1.0  0.60192  0.25054  0.34930  1.0000
  C   C236      1.0  0.61868  0.25243  0.43115  1.0000
  C   C237      1.0  0.64899  0.25255  0.43023  1.0000
  H   H115      1.0  0.66212  0.25769  0.48929  1.0000
  O   O13       1.0  0.60884  0.25919  0.51116  1.0000
  H   H116      1.0  0.58831  0.23900  0.52833  1.0000
  C   C238      1.0  0.76623  0.35304  0.34905  1.0000
  C   C239      1.0  0.76417  0.36775  0.43103  1.0000
  C   C240      1.0  0.76399  0.39792  0.43023  1.0000
  H   H117      1.0  0.75881  0.40590  0.48925  1.0000
  O   O14       1.0  0.75724  0.35108  0.51097  1.0000
  H   H118      1.0  0.77734  0.35059  0.52826  1.0000
  C   C241      1.0  0.66381  0.41485  0.34899  1.0000
  C   C242      1.0  0.64902  0.39807  0.43097  1.0000
  C   C243      1.0  0.61886  0.36774  0.43030  1.0000
  H   H119      1.0  0.61085  0.35465  0.48945  1.0000
  O   O15       1.0  0.66566  0.40795  0.51093  1.0000
  H   H120      1.0  0.66594  0.42845  0.52814  1.0000
  C   C244      1.0  0.91936  0.26185  0.34933  1.0000
  C   C245      1.0  0.90263  0.25996  0.43124  1.0000
  C   C246      1.0  0.87226  0.25971  0.43042  1.0000
  H   H121      1.0  0.85915  0.25463  0.48951  1.0000
  O   O16       1.0  0.91254  0.25328  0.51124  1.0000
  H   H122      1.0  0.93305  0.27352  0.52832  1.0000
  C   C247      1.0  0.75502  0.15918  0.34905  1.0000
  C   C248      1.0  0.75723  0.14450  0.43097  1.0000
  C   C249      1.0  0.75749  0.11438  0.43014  1.0000
  H   H123      1.0  0.76281  0.10648  0.48911  1.0000
  O   O17       1.0  0.76418  0.16118  0.51089  1.0000
  H   H124      1.0  0.74403  0.16154  0.52843  1.0000
  C   C250      1.0  0.85766  0.09745  0.34915  1.0000
  C   C251      1.0  0.87241  0.11427  0.43110  1.0000
  C   C252      1.0  0.90252  0.14467  0.43042  1.0000
  H   H125      1.0  0.91044  0.15780  0.48950  1.0000
  O   O18       1.0  0.85577  0.10438  0.51105  1.0000
  H   H126      1.0  0.85560  0.08395  0.52839  1.0000
  C   C253      1.0  0.52843  0.76511  0.34187  1.0000
  C   C254      1.0  0.54625  0.80056  0.34269  1.0000
  C   C255      1.0  0.58150  0.81821  0.34547  1.0000
  C   C256      1.0  0.59821  0.80000  0.34729  1.0000
  C   C257      1.0  0.58150  0.76508  0.34531  1.0000
  C   C258      1.0  0.54625  0.74748  0.34265  1.0000
  C   C259      1.0  0.52800  0.81730  0.34265  1.0000
  C   C260      1.0  0.52803  0.71250  0.34257  1.0000
  H   H127      1.0  0.62366  0.81271  0.34932  1.0000
  C   C261      1.0  0.99287  0.74732  0.34187  1.0000
  C   C262      1.0  0.97504  0.76495  0.34269  1.0000
  C   C263      1.0  0.93979  0.74733  0.34528  1.0000
  C   C264      1.0  0.92309  0.71242  0.34732  1.0000
  C   C265      1.0  0.93980  0.69421  0.34549  1.0000
  C   C266      1.0  0.97506  0.71187  0.34265  1.0000
  C   C267      1.0  0.99327  0.79992  0.34264  1.0000
  H   H128      1.0  0.89764  0.69969  0.34936  1.0000
  C   C268      1.0  0.99329  0.69513  0.34255  1.0000
  H   H129      1.0  0.98143  0.81339  0.34352  1.0000
  H   H130      1.0  0.53983  0.84261  0.34352  1.0000
  H   H131      1.0  0.98147  0.66983  0.34341  1.0000
  H   H132      1.0  0.53987  0.69903  0.34341  1.0000
  C   C269      1.0  0.66365  0.75040  0.34865  1.0000
  C   C270      1.0  0.64641  0.74765  0.26743  1.0000
  C   C271      1.0  0.61619  0.74772  0.26770  1.0000
  H   H133      1.0  0.60675  0.74966  0.20697  1.0000
  H   H134      1.0  0.65767  0.74957  0.20652  1.0000
  C   C272      1.0  0.76642  0.91483  0.34865  1.0000
  C   C273      1.0  0.76935  0.90054  0.26735  1.0000
  C   C274      1.0  0.76927  0.87024  0.26756  1.0000
  H   H135      1.0  0.76753  0.85898  0.20674  1.0000
  H   H136      1.0  0.76769  0.91008  0.20652  1.0000
  C   C275      1.0  0.60194  0.85317  0.34884  1.0000
  C   C276      1.0  0.61628  0.87032  0.26746  1.0000
  C   C277      1.0  0.64659  0.90051  0.26761  1.0000
  H   H137      1.0  0.65783  0.91005  0.20679  1.0000
  H   H138      1.0  0.60673  0.85913  0.20660  1.0000
  C   C278      1.0  0.85758  0.76184  0.34888  1.0000
  C   C279      1.0  0.87476  0.76461  0.26754  1.0000
  C   C280      1.0  0.90501  0.76459  0.26776  1.0000
  H   H139      1.0  0.91444  0.76266  0.20701  1.0000
  H   H140      1.0  0.86347  0.76266  0.20667  1.0000
  C   C281      1.0  0.75503  0.59741  0.34861  1.0000
  C   C282      1.0  0.75192  0.61164  0.26742  1.0000
  C   C283      1.0  0.75196  0.64192  0.26765  1.0000
  H   H141      1.0  0.75351  0.65311  0.20685  1.0000
  H   H142      1.0  0.75351  0.60208  0.20656  1.0000
  C   C284      1.0  0.91939  0.65925  0.34891  1.0000
  C   C285      1.0  0.90518  0.64202  0.26755  1.0000
  C   C286      1.0  0.87487  0.61181  0.26777  1.0000
  H   H143      1.0  0.86364  0.60225  0.20696  1.0000
  H   H144      1.0  0.91461  0.65326  0.20669  1.0000
  C   C287      1.0  0.75171  0.76498  0.34186  1.0000
  C   C288      1.0  0.71626  0.74733  0.34263  1.0000
  C   C289      1.0  0.69859  0.76493  0.34528  1.0000
  C   C290      1.0  0.71679  0.79985  0.34703  1.0000
  C   C291      1.0  0.75171  0.81807  0.34524  1.0000
  C   C292      1.0  0.76932  0.80043  0.34263  1.0000
  C   C293      1.0  0.69954  0.71236  0.34258  1.0000
  C   C294      1.0  0.80430  0.81720  0.34264  1.0000
  H   H145      1.0  0.70406  0.81257  0.34899  1.0000
  C   C295      1.0  0.76951  0.74722  0.34188  1.0000
  C   C296      1.0  0.75189  0.71177  0.34263  1.0000
  C   C297      1.0  0.76952  0.69413  0.34528  1.0000
  C   C298      1.0  0.80444  0.71237  0.34715  1.0000
  C   C299      1.0  0.82263  0.74729  0.34543  1.0000
  C   C300      1.0  0.80496  0.76487  0.34271  1.0000
  C   C301      1.0  0.71692  0.69501  0.34260  1.0000
  H   H146      1.0  0.81718  0.69966  0.34912  1.0000
  C   C302      1.0  0.82168  0.79985  0.34265  1.0000
  H   H147      1.0  0.70346  0.66970  0.34344  1.0000
  H   H148      1.0  0.67423  0.69887  0.34343  1.0000
  H   H149      1.0  0.84699  0.81334  0.34356  1.0000
  H   H150      1.0  0.81776  0.84250  0.34351  1.0000
  C   C303      1.0  0.75186  0.98835  0.34187  1.0000
  C   C304      1.0  0.76950  0.97054  0.34269  1.0000
  C   C305      1.0  0.75190  0.93528  0.34547  1.0000
  C   C306      1.0  0.71698  0.91858  0.34708  1.0000
  C   C307      1.0  0.69877  0.93528  0.34523  1.0000
  C   C308      1.0  0.71641  0.97053  0.34261  1.0000
  C   C309      1.0  0.80447  0.98879  0.34267  1.0000
  C   C310      1.0  0.69965  0.98875  0.34254  1.0000
  H   H151      1.0  0.70424  0.89312  0.34898  1.0000
  C   C311      1.0  0.76963  0.52392  0.34188  1.0000
  C   C312      1.0  0.80507  0.54174  0.34271  1.0000
  C   C313      1.0  0.82271  0.57700  0.34536  1.0000
  C   C314      1.0  0.80449  0.59369  0.34717  1.0000
  C   C315      1.0  0.76957  0.57698  0.34549  1.0000
  C   C316      1.0  0.75198  0.54173  0.34263  1.0000
  C   C317      1.0  0.82183  0.52352  0.34271  1.0000
  H   H152      1.0  0.81721  0.61915  0.34909  1.0000
  C   C318      1.0  0.71701  0.52348  0.34252  1.0000
  H   H153      1.0  0.84714  0.53537  0.34363  1.0000
  H   H154      1.0  0.81795  0.97696  0.34361  1.0000
  H   H155      1.0  0.70352  0.53531  0.34342  1.0000
  H   H156      1.0  0.67434  0.97691  0.34339  1.0000
  C   C319      1.0  0.60192  0.75054  0.34930  1.0000
  C   C320      1.0  0.61868  0.75243  0.43115  1.0000
  C   C321      1.0  0.64899  0.75255  0.43023  1.0000
  H   H157      1.0  0.66212  0.75769  0.48929  1.0000
  O   O19       1.0  0.60884  0.75919  0.51116  1.0000
  H   H158      1.0  0.58831  0.73900  0.52833  1.0000
  C   C322      1.0  0.76623  0.85304  0.34905  1.0000
  C   C323      1.0  0.76417  0.86775  0.43103  1.0000
  C   C324      1.0  0.76399  0.89791  0.43023  1.0000
  H   H159      1.0  0.75881  0.90591  0.48925  1.0000
  O   O20       1.0  0.75724  0.85108  0.51097  1.0000
  H   H160      1.0  0.77734  0.85059  0.52826  1.0000
  C   C325      1.0  0.66381  0.91485  0.34899  1.0000
  C   C326      1.0  0.64902  0.89808  0.43097  1.0000
  C   C327      1.0  0.61886  0.86774  0.43030  1.0000
  H   H161      1.0  0.61085  0.85465  0.48945  1.0000
  O   O21       1.0  0.66566  0.90795  0.51093  1.0000
  H   H162      1.0  0.66594  0.92845  0.52814  1.0000
  C   C328      1.0  0.91936  0.76185  0.34933  1.0000
  C   C329      1.0  0.90263  0.75996  0.43124  1.0000
  C   C330      1.0  0.87225  0.75971  0.43042  1.0000
  H   H163      1.0  0.85914  0.75463  0.48951  1.0000
  O   O22       1.0  0.91254  0.75328  0.51124  1.0000
  H   H164      1.0  0.93305  0.77352  0.52832  1.0000
  C   C331      1.0  0.75502  0.65917  0.34905  1.0000
  C   C332      1.0  0.75723  0.64450  0.43097  1.0000
  C   C333      1.0  0.75749  0.61437  0.43014  1.0000
  H   H165      1.0  0.76281  0.60648  0.48911  1.0000
  O   O23       1.0  0.76419  0.66118  0.51089  1.0000
  H   H166      1.0  0.74403  0.66153  0.52843  1.0000
  C   C334      1.0  0.85766  0.59745  0.34915  1.0000
  C   C335      1.0  0.87241  0.61427  0.43110  1.0000
  C   C336      1.0  0.90252  0.64467  0.43042  1.0000
  H   H167      1.0  0.91044  0.65780  0.48950  1.0000
  O   O24       1.0  0.85577  0.60438  0.51105  1.0000
  H   H168      1.0  0.85560  0.58395  0.52839  1.0000
