data_image0
_chemical_formula_structural       C2HC2H3C2H2C4HCNH2CNH2C2HC2H3C2H2C4HCNH2CNH2C2H2CH2C2H3C2H5C3NC2HC5NH3C2H2CH2C2H3C2H5C3NC2HC5NH3C2H2C2H3CHC2H3C2HC3H4C2NC2NH2C2H2C2H3CHC2H3C2HC3H4C2NC2NH2C2HC2HC3HC2HC2H2C2H3C2H2C2H3C2H3C2H2CH2C2H2C2H3C2H3C4H2C4HC2HC4H2C5NC2NH3C4NC2NH4C2HC4NC2NH4C2HC2HC3HC2HC2H2C2H3C2H2C2H3C2H3C2H2CH2C2H2C2H3C2H3C4H2C4HC2HC4H2C5NC2NH3C4NC2NH4C2HC4NC2NH4C2HC2HC2HC2HC2HC2HC2H2C2H3C2H3C2H2C2H3C2H3C2H2C2H3C2H3C2H2C2H3C2H3C2H2C2H3C2H3C2H2C2H3C2H3C4H2C4H2C4H2C4H2C4H2C4H2C4NC2NH4C4NC2NH4C4NC2NH4C4NC2NH4C4NC2NH4C4NC2NH4C2HC2HC2HC2HC2HC2HC2H2C2H3C2H3C2H2C2H3C2H3C2H2C2H3C2H3C2H2C2H3C2H3C2H2C2H3C2H3C2H2C2H3C2H3C4H2C4H2C4H2C4H2C4H2C4H2C4NC2NH4C4NC2NH4C4NC2NH4C4NC2NH4C4NC2NH4C4NC2NH4
_chemical_formula_sum              "C432 H360 N48"
_cell_length_a       46.9184
_cell_length_b       46.9184
_cell_length_c       14.8476
_cell_angle_alpha    90
_cell_angle_beta     90
_cell_angle_gamma    120

_space_group_name_H-M_alt    "P 1"
_space_group_IT_number       1

loop_
  _space_group_symop_operation_xyz
  'x, y, z'

loop_
  _atom_site_type_symbol
  _atom_site_label
  _atom_site_symmetry_multiplicity
  _atom_site_fract_x
  _atom_site_fract_y
  _atom_site_fract_z
  _atom_site_occupancy
  C   C1        1.0  0.04488  0.29949  0.38053  1.0000
  C   C2        1.0  0.07923  0.31728  0.36374  1.0000
  H   H1        1.0  0.03391  0.31343  0.38468  1.0000
  C   C3        1.0  0.08517  0.22659  0.00843  1.0000
  C   C4        1.0  0.06397  0.18993  0.03479  1.0000
  H   H2        1.0  0.10062  0.24076  0.06505  1.0000
  H   H3        1.0  0.04928  0.18769  0.09431  1.0000
  H   H4        1.0  0.07936  0.17920  0.05016  1.0000
  C   C5        1.0  0.08522  0.36024  0.00812  1.0000
  C   C6        1.0  0.08401  0.32741  0.02984  1.0000
  H   H5        1.0  0.09396  0.37569  0.06811  1.0000
  H   H6        1.0  0.06872  0.31616  0.08933  1.0000
  C   C7        1.0  0.02571  0.26416  0.38393  1.0000
  C   C8        1.0  0.09552  0.29914  0.35457  1.0000
  C   C9        1.0  0.07933  0.26473  0.36413  1.0000
  C   C10       1.0  0.04497  0.24809  0.38084  1.0000
  H   H7        1.0  0.03407  0.22320  0.38530  1.0000
  C   C11       1.0  0.09905  0.24960  0.35642  1.0000
  N   N1        1.0  0.09513  0.23673  0.51503  1.0000
  H   H8        1.0  0.06843  0.23602  0.66169  1.0000
  H   H9        1.0  0.04730  0.17606  0.64644  1.0000
  C   C12       1.0  0.09890  0.35212  0.35609  1.0000
  N   N2        1.0  0.09514  0.36099  0.51476  1.0000
  H   H10       1.0  0.06020  0.35527  0.66174  1.0000
  H   H11       1.0  0.07348  0.31019  0.64029  1.0000
  C   C13       1.0  0.04488  0.79949  0.38053  1.0000
  C   C14       1.0  0.07923  0.81729  0.36374  1.0000
  H   H12       1.0  0.03391  0.81343  0.38468  1.0000
  C   C15       1.0  0.08517  0.72659  0.00843  1.0000
  C   C16       1.0  0.06397  0.68993  0.03479  1.0000
  H   H13       1.0  0.10063  0.74076  0.06505  1.0000
  H   H14       1.0  0.04928  0.68769  0.09431  1.0000
  H   H15       1.0  0.07936  0.67920  0.05016  1.0000
  C   C17       1.0  0.08522  0.86024  0.00812  1.0000
  C   C18       1.0  0.08401  0.82740  0.02984  1.0000
  H   H16       1.0  0.09396  0.87570  0.06811  1.0000
  H   H17       1.0  0.06872  0.81615  0.08933  1.0000
  C   C19       1.0  0.02571  0.76416  0.38393  1.0000
  C   C20       1.0  0.09552  0.79914  0.35457  1.0000
  C   C21       1.0  0.07933  0.76473  0.36413  1.0000
  C   C22       1.0  0.04497  0.74809  0.38084  1.0000
  H   H18       1.0  0.03407  0.72320  0.38530  1.0000
  C   C23       1.0  0.09905  0.74961  0.35642  1.0000
  N   N3        1.0  0.09513  0.73673  0.51503  1.0000
  H   H19       1.0  0.06843  0.73602  0.66169  1.0000
  H   H20       1.0  0.04730  0.67606  0.64644  1.0000
  C   C24       1.0  0.09890  0.85212  0.35609  1.0000
  N   N4        1.0  0.09514  0.86099  0.51476  1.0000
  H   H21       1.0  0.06020  0.85527  0.66174  1.0000
  H   H22       1.0  0.07348  0.81019  0.64029  1.0000
  C   C25       1.0  0.14818  0.25621  0.27718  1.0000
  C   C26       1.0  0.11823  0.25620  0.27732  1.0000
  H   H23       1.0  0.11250  0.26505  0.22119  1.0000
  H   H24       1.0  0.16259  0.26492  0.22072  1.0000
  C   C27       1.0  0.15299  0.22743  0.00787  1.0000
  H   H25       1.0  0.13750  0.22048  0.06782  1.0000
  H   H26       1.0  0.18106  0.27941  0.04387  1.0000
  C   C28       1.0  0.11823  0.36482  0.27722  1.0000
  C   C29       1.0  0.14824  0.39469  0.27713  1.0000
  H   H27       1.0  0.16272  0.40032  0.22082  1.0000
  H   H28       1.0  0.11244  0.35036  0.22086  1.0000
  H   H29       1.0  0.10876  0.33176  0.04352  1.0000
  C   C30       1.0  0.15237  0.42792  0.00819  1.0000
  C   C31       1.0  0.13706  0.44920  0.03500  1.0000
  H   H30       1.0  0.15115  0.41244  0.06469  1.0000
  H   H31       1.0  0.14964  0.46388  0.09442  1.0000
  H   H32       1.0  0.11095  0.43386  0.05073  1.0000
  H   H33       1.0  0.18257  0.10780  0.05126  1.0000
  H   H34       1.0  0.12062  0.31172  0.34608  1.0000
  C   C32       1.0  0.11063  0.24122  0.43468  1.0000
  C   C33       1.0  0.14101  0.24115  0.43440  1.0000
  C   C34       1.0  0.16087  0.24953  0.35592  1.0000
  N   N5        1.0  0.15215  0.23670  0.51459  1.0000
  C   C35       1.0  0.13622  0.23141  0.59465  1.0000
  C   C36       1.0  0.10589  0.23135  0.59474  1.0000
  H   H35       1.0  0.15819  0.20754  0.66114  1.0000
  C   C37       1.0  0.16101  0.41395  0.35596  1.0000
  C   C38       1.0  0.14112  0.40242  0.43442  1.0000
  C   C39       1.0  0.11063  0.37206  0.43442  1.0000
  C   C40       1.0  0.10594  0.37693  0.59476  1.0000
  C   C41       1.0  0.13623  0.40720  0.59462  1.0000
  N   N6        1.0  0.15227  0.41791  0.51472  1.0000
  H   H36       1.0  0.17853  0.44460  0.66113  1.0000
  H   H37       1.0  0.13979  0.46588  0.64673  1.0000
  H   H38       1.0  0.17914  0.13659  0.64773  1.0000
  C   C42       1.0  0.14818  0.75621  0.27718  1.0000
  C   C43       1.0  0.11823  0.75619  0.27732  1.0000
  H   H39       1.0  0.11250  0.76504  0.22119  1.0000
  H   H40       1.0  0.16259  0.76492  0.22072  1.0000
  C   C44       1.0  0.15299  0.72743  0.00787  1.0000
  H   H41       1.0  0.13750  0.72048  0.06782  1.0000
  H   H42       1.0  0.18106  0.77941  0.04387  1.0000
  C   C45       1.0  0.11823  0.86482  0.27722  1.0000
  C   C46       1.0  0.14824  0.89469  0.27713  1.0000
  H   H43       1.0  0.16272  0.90032  0.22082  1.0000
  H   H44       1.0  0.11244  0.85035  0.22086  1.0000
  H   H45       1.0  0.10876  0.83176  0.04352  1.0000
  C   C47       1.0  0.15237  0.92791  0.00819  1.0000
  C   C48       1.0  0.13706  0.94920  0.03500  1.0000
  H   H46       1.0  0.15115  0.91244  0.06469  1.0000
  H   H47       1.0  0.14964  0.96388  0.09442  1.0000
  H   H48       1.0  0.11096  0.93386  0.05073  1.0000
  H   H49       1.0  0.18257  0.60780  0.05126  1.0000
  H   H50       1.0  0.12062  0.81171  0.34608  1.0000
  C   C49       1.0  0.11063  0.74122  0.43468  1.0000
  C   C50       1.0  0.14101  0.74115  0.43440  1.0000
  C   C51       1.0  0.16087  0.74952  0.35592  1.0000
  N   N7        1.0  0.15215  0.73670  0.51459  1.0000
  C   C52       1.0  0.13622  0.73141  0.59465  1.0000
  C   C53       1.0  0.10589  0.73135  0.59474  1.0000
  H   H51       1.0  0.15819  0.70754  0.66114  1.0000
  C   C54       1.0  0.16101  0.91395  0.35596  1.0000
  C   C55       1.0  0.14112  0.90242  0.43442  1.0000
  C   C56       1.0  0.11063  0.87206  0.43442  1.0000
  C   C57       1.0  0.10593  0.87693  0.59476  1.0000
  C   C58       1.0  0.13623  0.90720  0.59462  1.0000
  N   N8        1.0  0.15227  0.91791  0.51472  1.0000
  H   H52       1.0  0.17853  0.94460  0.66113  1.0000
  H   H53       1.0  0.13979  0.96588  0.64674  1.0000
  H   H54       1.0  0.17914  0.63659  0.64773  1.0000
  C   C59       1.0  0.21347  0.24803  0.38040  1.0000
  C   C60       1.0  0.19573  0.26463  0.36335  1.0000
  H   H55       1.0  0.19949  0.22313  0.38471  1.0000
  H   H56       1.0  0.22566  0.03137  0.38453  1.0000
  C   C61       1.0  0.24849  0.43380  0.36349  1.0000
  C   C62       1.0  0.18565  0.25919  0.02992  1.0000
  H   H57       1.0  0.19697  0.25519  0.08932  1.0000
  H   H58       1.0  0.24837  0.35039  0.22126  1.0000
  H   H59       1.0  0.23214  0.40387  0.04238  1.0000
  C   C63       1.0  0.23059  0.08238  0.00748  1.0000
  H   H60       1.0  0.22387  0.09101  0.06767  1.0000
  C   C64       1.0  0.22978  0.14937  0.00843  1.0000
  C   C65       1.0  0.19321  0.13390  0.03570  1.0000
  H   H61       1.0  0.24416  0.14819  0.06464  1.0000
  H   H62       1.0  0.19114  0.14641  0.09533  1.0000
  H   H63       1.0  0.22573  0.19693  0.38505  1.0000
  C   C66       1.0  0.21393  0.29906  0.35415  1.0000
  C   C67       1.0  0.24834  0.31722  0.36391  1.0000
  H   H64       1.0  0.20141  0.31163  0.34554  1.0000
  C   C68       1.0  0.21407  0.41750  0.35415  1.0000
  C   C69       1.0  0.19584  0.43368  0.36374  1.0000
  C   C70       1.0  0.21353  0.46804  0.38043  1.0000
  H   H65       1.0  0.20156  0.39241  0.34542  1.0000
  H   H66       1.0  0.19953  0.47893  0.38499  1.0000
  H   H67       1.0  0.20292  0.26610  0.64040  1.0000
  H   H68       1.0  0.24616  0.43926  0.63944  1.0000
  C   C71       1.0  0.24382  0.13838  0.43435  1.0000
  C   C72       1.0  0.24376  0.10793  0.43385  1.0000
  N   N9        1.0  0.23949  0.09240  0.51406  1.0000
  C   C73       1.0  0.23440  0.10310  0.59431  1.0000
  C   C74       1.0  0.23434  0.13335  0.59457  1.0000
  N   N10       1.0  0.23953  0.14945  0.51483  1.0000
  H   H69       1.0  0.21061  0.05731  0.66110  1.0000
  H   H70       1.0  0.23913  0.17552  0.66157  1.0000
  C   C75       1.0  0.21347  0.74803  0.38040  1.0000
  C   C76       1.0  0.19573  0.76463  0.36335  1.0000
  H   H71       1.0  0.19949  0.72313  0.38471  1.0000
  H   H72       1.0  0.22566  0.53137  0.38453  1.0000
  C   C77       1.0  0.24849  0.93380  0.36349  1.0000
  C   C78       1.0  0.18566  0.75919  0.02992  1.0000
  H   H73       1.0  0.19697  0.75519  0.08932  1.0000
  H   H74       1.0  0.24837  0.85040  0.22126  1.0000
  H   H75       1.0  0.23214  0.90387  0.04238  1.0000
  C   C79       1.0  0.23059  0.58237  0.00748  1.0000
  H   H76       1.0  0.22387  0.59101  0.06767  1.0000
  C   C80       1.0  0.22978  0.64937  0.00843  1.0000
  C   C81       1.0  0.19321  0.63390  0.03570  1.0000
  H   H77       1.0  0.24416  0.64819  0.06464  1.0000
  H   H78       1.0  0.19114  0.64641  0.09533  1.0000
  H   H79       1.0  0.22573  0.69693  0.38505  1.0000
  C   C82       1.0  0.21393  0.79906  0.35415  1.0000
  C   C83       1.0  0.24834  0.81722  0.36391  1.0000
  H   H80       1.0  0.20141  0.81163  0.34554  1.0000
  C   C84       1.0  0.21407  0.91750  0.35415  1.0000
  C   C85       1.0  0.19584  0.93368  0.36374  1.0000
  C   C86       1.0  0.21353  0.96804  0.38043  1.0000
  H   H81       1.0  0.20156  0.89241  0.34542  1.0000
  H   H82       1.0  0.19953  0.97893  0.38499  1.0000
  H   H83       1.0  0.20292  0.76610  0.64040  1.0000
  H   H84       1.0  0.24616  0.93926  0.63944  1.0000
  C   C87       1.0  0.24382  0.63838  0.43435  1.0000
  C   C88       1.0  0.24376  0.60793  0.43385  1.0000
  N   N11       1.0  0.23949  0.59240  0.51406  1.0000
  C   C89       1.0  0.23440  0.60310  0.59431  1.0000
  C   C90       1.0  0.23434  0.63335  0.59457  1.0000
  N   N12       1.0  0.23953  0.64945  0.51483  1.0000
  H   H85       1.0  0.21061  0.55731  0.66110  1.0000
  H   H86       1.0  0.23913  0.67552  0.66157  1.0000
  C   C91       1.0  0.43634  0.19304  0.36351  1.0000
  C   C92       1.0  0.47068  0.21084  0.38049  1.0000
  H   H87       1.0  0.48165  0.19690  0.38482  1.0000
  C   C93       1.0  0.31983  0.24573  0.36357  1.0000
  C   C94       1.0  0.30208  0.26233  0.38049  1.0000
  H   H88       1.0  0.31606  0.28723  0.38475  1.0000
  C   C95       1.0  0.26710  0.07665  0.36262  1.0000
  C   C96       1.0  0.25056  0.04233  0.37991  1.0000
  C   C97       1.0  0.26503  0.46815  0.38033  1.0000
  H   H89       1.0  0.28993  0.47912  0.38488  1.0000
  C   C98       1.0  0.25727  0.39488  0.27737  1.0000
  C   C99       1.0  0.25712  0.36486  0.27761  1.0000
  H   H90       1.0  0.24860  0.40059  0.22086  1.0000
  C   C100      1.0  0.28432  0.42748  0.00880  1.0000
  C   C101      1.0  0.25259  0.42864  0.02932  1.0000
  H   H91       1.0  0.29076  0.41865  0.06910  1.0000
  H   H92       1.0  0.25634  0.44383  0.08885  1.0000
  C   C102      1.0  0.28508  0.36045  0.00922  1.0000
  C   C103      1.0  0.32156  0.37591  0.03745  1.0000
  H   H93       1.0  0.27048  0.36144  0.06511  1.0000
  H   H94       1.0  0.32345  0.36326  0.09698  1.0000
  H   H95       1.0  0.33210  0.40196  0.05351  1.0000
  C   C104      1.0  0.36740  0.25432  0.27695  1.0000
  C   C105      1.0  0.39725  0.25416  0.27719  1.0000
  H   H96       1.0  0.40303  0.24542  0.22088  1.0000
  H   H97       1.0  0.35297  0.24561  0.22053  1.0000
  C   C106      1.0  0.36248  0.28249  0.00811  1.0000
  C   C107      1.0  0.32967  0.25080  0.02962  1.0000
  H   H98       1.0  0.37790  0.28920  0.06817  1.0000
  H   H99       1.0  0.33408  0.23044  0.04321  1.0000
  H   H100      1.0  0.31836  0.25476  0.08909  1.0000
  C   C108      1.0  0.43024  0.28320  0.00839  1.0000
  C   C109      1.0  0.45142  0.31979  0.03541  1.0000
  H   H101      1.0  0.41476  0.26888  0.06479  1.0000
  H   H102      1.0  0.46608  0.32189  0.09488  1.0000
  H   H103      1.0  0.43602  0.33047  0.05112  1.0000
  C   C110      1.0  0.25847  0.11574  0.27654  1.0000
  C   C111      1.0  0.25847  0.14568  0.27680  1.0000
  H   H104      1.0  0.26725  0.16026  0.22065  1.0000
  H   H105      1.0  0.26710  0.11004  0.21992  1.0000
  C   C112      1.0  0.26235  0.08135  0.02872  1.0000
  H   H106      1.0  0.28267  0.10614  0.04232  1.0000
  H   H107      1.0  0.25847  0.06607  0.08813  1.0000
  C   C113      1.0  0.39745  0.14552  0.27702  1.0000
  C   C114      1.0  0.36739  0.11569  0.27700  1.0000
  H   H108      1.0  0.35292  0.11005  0.22064  1.0000
  H   H109      1.0  0.40321  0.15998  0.22068  1.0000
  C   C115      1.0  0.43007  0.15037  0.00837  1.0000
  C   C116      1.0  0.43135  0.18329  0.02937  1.0000
  H   H110      1.0  0.42122  0.13501  0.06852  1.0000
  H   H111      1.0  0.40662  0.17902  0.04259  1.0000
  H   H112      1.0  0.44657  0.19460  0.08892  1.0000
  C   C117      1.0  0.36293  0.08267  0.00837  1.0000
  C   C118      1.0  0.37830  0.06152  0.03602  1.0000
  H   H113      1.0  0.36401  0.09820  0.06454  1.0000
  H   H114      1.0  0.36564  0.04689  0.09544  1.0000
  H   H115      1.0  0.40437  0.07693  0.05205  1.0000
  C   C119      1.0  0.48985  0.24618  0.38386  1.0000
  C   C120      1.0  0.47058  0.26223  0.38070  1.0000
  C   C121      1.0  0.43622  0.24558  0.36401  1.0000
  C   C122      1.0  0.42005  0.21118  0.35425  1.0000
  H   H116      1.0  0.48147  0.28712  0.38530  1.0000
  H   H117      1.0  0.39495  0.19859  0.34566  1.0000
  C   C123      1.0  0.26675  0.24622  0.38379  1.0000
  C   C124      1.0  0.25063  0.21090  0.38062  1.0000
  C   C125      1.0  0.26722  0.19314  0.36376  1.0000
  C   C126      1.0  0.30163  0.21131  0.35413  1.0000
  H   H118      1.0  0.31416  0.19875  0.34548  1.0000
  C   C127      1.0  0.24880  0.26414  0.38378  1.0000
  C   C128      1.0  0.26492  0.29946  0.38067  1.0000
  H   H119      1.0  0.28982  0.31342  0.38546  1.0000
  C   C129      1.0  0.26672  0.02316  0.38354  1.0000
  C   C130      1.0  0.30204  0.04243  0.38051  1.0000
  C   C131      1.0  0.31975  0.07674  0.36314  1.0000
  C   C132      1.0  0.30152  0.09290  0.35303  1.0000
  H   H120      1.0  0.31605  0.03154  0.38539  1.0000
  H   H121      1.0  0.31405  0.11798  0.34416  1.0000
  C   C133      1.0  0.24886  0.48731  0.38367  1.0000
  C   C134      1.0  0.26352  0.35206  0.35660  1.0000
  C   C135      1.0  0.27163  0.37193  0.43501  1.0000
  C   C136      1.0  0.27171  0.40239  0.43483  1.0000
  C   C137      1.0  0.26369  0.41416  0.35625  1.0000
  N   N13       1.0  0.27581  0.41777  0.51521  1.0000
  C   C138      1.0  0.28070  0.40692  0.59543  1.0000
  C   C139      1.0  0.28076  0.37666  0.59543  1.0000
  N   N14       1.0  0.27573  0.36072  0.51549  1.0000
  H   H122      1.0  0.30443  0.45254  0.66304  1.0000
  H   H123      1.0  0.27585  0.33435  0.66191  1.0000
  H   H124      1.0  0.33585  0.37341  0.64975  1.0000
  C   C140      1.0  0.41648  0.26067  0.35611  1.0000
  C   C141      1.0  0.40488  0.26898  0.43453  1.0000
  C   C142      1.0  0.37450  0.26909  0.43441  1.0000
  C   C143      1.0  0.35468  0.26084  0.35586  1.0000
  N   N15       1.0  0.36336  0.27343  0.51472  1.0000
  C   C144      1.0  0.37926  0.27857  0.59479  1.0000
  C   C145      1.0  0.40957  0.27862  0.59474  1.0000
  N   N16       1.0  0.42034  0.27333  0.51489  1.0000
  H   H125      1.0  0.35746  0.30252  0.66178  1.0000
  H   H126      1.0  0.31249  0.24413  0.63999  1.0000
  H   H127      1.0  0.44700  0.27381  0.66136  1.0000
  H   H128      1.0  0.46812  0.33380  0.64724  1.0000
  C   C146      1.0  0.25203  0.15830  0.35605  1.0000
  C   C147      1.0  0.25196  0.09634  0.35518  1.0000
  H   H129      1.0  0.26903  0.07090  0.63896  1.0000
  C   C148      1.0  0.35461  0.09647  0.35593  1.0000
  C   C149      1.0  0.37443  0.10797  0.43445  1.0000
  C   C150      1.0  0.40492  0.13831  0.43446  1.0000
  C   C151      1.0  0.41668  0.15819  0.35606  1.0000
  N   N17       1.0  0.42034  0.14945  0.51486  1.0000
  C   C152      1.0  0.40947  0.13358  0.59493  1.0000
  C   C153      1.0  0.37916  0.10331  0.59474  1.0000
  N   N18       1.0  0.36319  0.09254  0.51478  1.0000
  H   H130      1.0  0.45510  0.15525  0.66243  1.0000
  H   H131      1.0  0.44200  0.20040  0.63965  1.0000
  H   H132      1.0  0.33681  0.06590  0.66107  1.0000
  H   H133      1.0  0.37572  0.04479  0.64804  1.0000
  C   C154      1.0  0.43634  0.69304  0.36351  1.0000
  C   C155      1.0  0.47068  0.71084  0.38049  1.0000
  H   H134      1.0  0.48165  0.69690  0.38482  1.0000
  C   C156      1.0  0.31983  0.74573  0.36357  1.0000
  C   C157      1.0  0.30208  0.76233  0.38049  1.0000
  H   H135      1.0  0.31606  0.78723  0.38475  1.0000
  C   C158      1.0  0.26710  0.57665  0.36262  1.0000
  C   C159      1.0  0.25056  0.54233  0.37991  1.0000
  C   C160      1.0  0.26503  0.96815  0.38033  1.0000
  H   H136      1.0  0.28993  0.97912  0.38488  1.0000
  C   C161      1.0  0.25727  0.89488  0.27737  1.0000
  C   C162      1.0  0.25712  0.86487  0.27761  1.0000
  H   H137      1.0  0.24860  0.90059  0.22086  1.0000
  C   C163      1.0  0.28432  0.92748  0.00880  1.0000
  C   C164      1.0  0.25259  0.92864  0.02932  1.0000
  H   H138      1.0  0.29076  0.91865  0.06910  1.0000
  H   H139      1.0  0.25634  0.94383  0.08885  1.0000
  C   C165      1.0  0.28508  0.86045  0.00922  1.0000
  C   C166      1.0  0.32156  0.87591  0.03745  1.0000
  H   H140      1.0  0.27048  0.86144  0.06511  1.0000
  H   H141      1.0  0.32345  0.86326  0.09698  1.0000
  H   H142      1.0  0.33210  0.90196  0.05351  1.0000
  C   C167      1.0  0.36739  0.75431  0.27695  1.0000
  C   C168      1.0  0.39725  0.75416  0.27719  1.0000
  H   H143      1.0  0.40303  0.74543  0.22088  1.0000
  H   H144      1.0  0.35297  0.74561  0.22053  1.0000
  C   C169      1.0  0.36248  0.78249  0.00811  1.0000
  C   C170      1.0  0.32967  0.75080  0.02962  1.0000
  H   H145      1.0  0.37790  0.78920  0.06817  1.0000
  H   H146      1.0  0.33408  0.73044  0.04321  1.0000
  H   H147      1.0  0.31836  0.75476  0.08910  1.0000
  C   C171      1.0  0.43025  0.78320  0.00839  1.0000
  C   C172      1.0  0.45142  0.81979  0.03541  1.0000
  H   H148      1.0  0.41476  0.76888  0.06479  1.0000
  H   H149      1.0  0.46608  0.82189  0.09488  1.0000
  H   H150      1.0  0.43601  0.83047  0.05112  1.0000
  C   C173      1.0  0.25847  0.61574  0.27654  1.0000
  C   C174      1.0  0.25847  0.64568  0.27680  1.0000
  H   H151      1.0  0.26725  0.66026  0.22065  1.0000
  H   H152      1.0  0.26710  0.61004  0.21992  1.0000
  C   C175      1.0  0.26235  0.58135  0.02872  1.0000
  H   H153      1.0  0.28267  0.60614  0.04232  1.0000
  H   H154      1.0  0.25847  0.56607  0.08813  1.0000
  C   C176      1.0  0.39745  0.64551  0.27702  1.0000
  C   C177      1.0  0.36738  0.61569  0.27700  1.0000
  H   H155      1.0  0.35292  0.61005  0.22064  1.0000
  H   H156      1.0  0.40321  0.65998  0.22068  1.0000
  C   C178      1.0  0.43007  0.65037  0.00837  1.0000
  C   C179      1.0  0.43135  0.68329  0.02937  1.0000
  H   H157      1.0  0.42122  0.63502  0.06852  1.0000
  H   H158      1.0  0.40662  0.67902  0.04259  1.0000
  H   H159      1.0  0.44657  0.69460  0.08892  1.0000
  C   C180      1.0  0.36294  0.58267  0.00837  1.0000
  C   C181      1.0  0.37830  0.56151  0.03602  1.0000
  H   H160      1.0  0.36401  0.59820  0.06454  1.0000
  H   H161      1.0  0.36564  0.54689  0.09544  1.0000
  H   H162      1.0  0.40437  0.57693  0.05205  1.0000
  C   C182      1.0  0.48985  0.74617  0.38386  1.0000
  C   C183      1.0  0.47058  0.76223  0.38070  1.0000
  C   C184      1.0  0.43622  0.74558  0.36401  1.0000
  C   C185      1.0  0.42005  0.71118  0.35425  1.0000
  H   H163      1.0  0.48147  0.78712  0.38530  1.0000
  H   H164      1.0  0.39495  0.69859  0.34566  1.0000
  C   C186      1.0  0.26675  0.74622  0.38379  1.0000
  C   C187      1.0  0.25063  0.71090  0.38062  1.0000
  C   C188      1.0  0.26722  0.69314  0.36376  1.0000
  C   C189      1.0  0.30163  0.71131  0.35413  1.0000
  H   H165      1.0  0.31416  0.69875  0.34548  1.0000
  C   C190      1.0  0.24880  0.76413  0.38378  1.0000
  C   C191      1.0  0.26492  0.79946  0.38067  1.0000
  H   H166      1.0  0.28981  0.81342  0.38546  1.0000
  C   C192      1.0  0.26672  0.52316  0.38354  1.0000
  C   C193      1.0  0.30204  0.54243  0.38051  1.0000
  C   C194      1.0  0.31975  0.57674  0.36314  1.0000
  C   C195      1.0  0.30152  0.59290  0.35303  1.0000
  H   H167      1.0  0.31605  0.53154  0.38539  1.0000
  H   H168      1.0  0.31404  0.61798  0.34416  1.0000
  C   C196      1.0  0.24885  0.98731  0.38367  1.0000
  C   C197      1.0  0.26352  0.85206  0.35660  1.0000
  C   C198      1.0  0.27163  0.87193  0.43501  1.0000
  C   C199      1.0  0.27171  0.90239  0.43483  1.0000
  C   C200      1.0  0.26369  0.91416  0.35625  1.0000
  N   N19       1.0  0.27581  0.91777  0.51521  1.0000
  C   C201      1.0  0.28070  0.90692  0.59543  1.0000
  C   C202      1.0  0.28076  0.87666  0.59543  1.0000
  N   N20       1.0  0.27573  0.86071  0.51549  1.0000
  H   H169      1.0  0.30443  0.95253  0.66304  1.0000
  H   H170      1.0  0.27585  0.83435  0.66191  1.0000
  H   H171      1.0  0.33586  0.87341  0.64975  1.0000
  C   C203      1.0  0.41648  0.76067  0.35611  1.0000
  C   C204      1.0  0.40488  0.76898  0.43453  1.0000
  C   C205      1.0  0.37450  0.76909  0.43441  1.0000
  C   C206      1.0  0.35468  0.76084  0.35586  1.0000
  N   N21       1.0  0.36336  0.77343  0.51472  1.0000
  C   C207      1.0  0.37926  0.77857  0.59479  1.0000
  C   C208      1.0  0.40957  0.77861  0.59474  1.0000
  N   N22       1.0  0.42034  0.77333  0.51489  1.0000
  H   H172      1.0  0.35746  0.80252  0.66178  1.0000
  H   H173      1.0  0.31249  0.74413  0.63999  1.0000
  H   H174      1.0  0.44700  0.77381  0.66136  1.0000
  H   H175      1.0  0.46812  0.83380  0.64724  1.0000
  C   C209      1.0  0.25203  0.65830  0.35605  1.0000
  C   C210      1.0  0.25196  0.59634  0.35518  1.0000
  H   H176      1.0  0.26903  0.57090  0.63896  1.0000
  C   C211      1.0  0.35460  0.59647  0.35593  1.0000
  C   C212      1.0  0.37443  0.60797  0.43445  1.0000
  C   C213      1.0  0.40492  0.63831  0.43446  1.0000
  C   C214      1.0  0.41668  0.65819  0.35606  1.0000
  N   N23       1.0  0.42034  0.64946  0.51486  1.0000
  C   C215      1.0  0.40947  0.63358  0.59493  1.0000
  C   C216      1.0  0.37916  0.60331  0.59474  1.0000
  N   N24       1.0  0.36319  0.59254  0.51478  1.0000
  H   H177      1.0  0.45510  0.65525  0.66243  1.0000
  H   H178      1.0  0.44200  0.70040  0.63965  1.0000
  H   H179      1.0  0.33681  0.56590  0.66107  1.0000
  H   H180      1.0  0.37572  0.54478  0.64804  1.0000
  C   C217      1.0  0.93634  0.19304  0.36351  1.0000
  C   C218      1.0  0.97068  0.21084  0.38049  1.0000
  H   H181      1.0  0.98165  0.19690  0.38482  1.0000
  C   C219      1.0  0.54488  0.29949  0.38053  1.0000
  C   C220      1.0  0.57923  0.31728  0.36374  1.0000
  H   H182      1.0  0.53390  0.31343  0.38468  1.0000
  C   C221      1.0  0.81983  0.24573  0.36357  1.0000
  C   C222      1.0  0.80208  0.26233  0.38049  1.0000
  H   H183      1.0  0.81606  0.28723  0.38475  1.0000
  C   C223      1.0  0.71347  0.24803  0.38040  1.0000
  C   C224      1.0  0.69573  0.26463  0.36335  1.0000
  H   H184      1.0  0.69949  0.22313  0.38471  1.0000
  C   C225      1.0  0.76710  0.07665  0.36262  1.0000
  C   C226      1.0  0.75056  0.04233  0.37991  1.0000
  H   H185      1.0  0.72566  0.03137  0.38453  1.0000
  C   C227      1.0  0.76503  0.46815  0.38033  1.0000
  C   C228      1.0  0.74849  0.43380  0.36349  1.0000
  H   H186      1.0  0.78993  0.47912  0.38488  1.0000
  C   C229      1.0  0.64818  0.25621  0.27718  1.0000
  C   C230      1.0  0.61823  0.25620  0.27732  1.0000
  H   H187      1.0  0.61249  0.26505  0.22119  1.0000
  H   H188      1.0  0.66259  0.26492  0.22072  1.0000
  C   C231      1.0  0.65299  0.22743  0.00787  1.0000
  C   C232      1.0  0.68566  0.25919  0.02992  1.0000
  H   H189      1.0  0.63750  0.22048  0.06782  1.0000
  H   H190      1.0  0.68106  0.27941  0.04387  1.0000
  H   H191      1.0  0.69697  0.25519  0.08932  1.0000
  C   C233      1.0  0.58517  0.22659  0.00843  1.0000
  C   C234      1.0  0.56397  0.18993  0.03479  1.0000
  H   H192      1.0  0.60062  0.24076  0.06505  1.0000
  H   H193      1.0  0.54928  0.18769  0.09431  1.0000
  H   H194      1.0  0.57936  0.17920  0.05016  1.0000
  C   C235      1.0  0.75727  0.39488  0.27737  1.0000
  C   C236      1.0  0.75712  0.36486  0.27761  1.0000
  H   H195      1.0  0.74838  0.35039  0.22126  1.0000
  H   H196      1.0  0.74860  0.40059  0.22086  1.0000
  C   C237      1.0  0.78432  0.42748  0.00880  1.0000
  C   C238      1.0  0.75259  0.42864  0.02932  1.0000
  H   H197      1.0  0.79076  0.41865  0.06910  1.0000
  H   H198      1.0  0.73214  0.40387  0.04238  1.0000
  H   H199      1.0  0.75634  0.44383  0.08885  1.0000
  C   C239      1.0  0.78509  0.36045  0.00922  1.0000
  C   C240      1.0  0.82156  0.37591  0.03745  1.0000
  H   H200      1.0  0.77048  0.36144  0.06511  1.0000
  H   H201      1.0  0.82345  0.36326  0.09698  1.0000
  H   H202      1.0  0.83210  0.40196  0.05351  1.0000
  C   C241      1.0  0.61823  0.36482  0.27722  1.0000
  C   C242      1.0  0.64824  0.39469  0.27713  1.0000
  H   H203      1.0  0.66272  0.40032  0.22082  1.0000
  H   H204      1.0  0.61244  0.35036  0.22086  1.0000
  C   C243      1.0  0.58522  0.36024  0.00812  1.0000
  C   C244      1.0  0.58401  0.32741  0.02984  1.0000
  H   H205      1.0  0.59396  0.37569  0.06811  1.0000
  H   H206      1.0  0.60876  0.33176  0.04352  1.0000
  H   H207      1.0  0.56872  0.31616  0.08933  1.0000
  C   C245      1.0  0.65237  0.42792  0.00819  1.0000
  C   C246      1.0  0.63706  0.44920  0.03500  1.0000
  H   H208      1.0  0.65115  0.41244  0.06469  1.0000
  H   H209      1.0  0.64964  0.46388  0.09442  1.0000
  H   H210      1.0  0.61095  0.43386  0.05073  1.0000
  C   C247      1.0  0.86739  0.25432  0.27695  1.0000
  C   C248      1.0  0.89725  0.25416  0.27719  1.0000
  H   H211      1.0  0.90303  0.24542  0.22088  1.0000
  H   H212      1.0  0.85297  0.24561  0.22053  1.0000
  C   C249      1.0  0.86248  0.28249  0.00811  1.0000
  C   C250      1.0  0.82967  0.25080  0.02962  1.0000
  H   H213      1.0  0.87790  0.28920  0.06817  1.0000
  H   H214      1.0  0.83408  0.23044  0.04321  1.0000
  H   H215      1.0  0.81836  0.25476  0.08909  1.0000
  C   C251      1.0  0.93024  0.28320  0.00839  1.0000
  C   C252      1.0  0.95142  0.31979  0.03541  1.0000
  H   H216      1.0  0.91476  0.26888  0.06479  1.0000
  H   H217      1.0  0.96608  0.32189  0.09488  1.0000
  H   H218      1.0  0.93601  0.33047  0.05112  1.0000
  C   C253      1.0  0.75847  0.11574  0.27654  1.0000
  C   C254      1.0  0.75846  0.14568  0.27680  1.0000
  H   H219      1.0  0.76725  0.16026  0.22065  1.0000
  H   H220      1.0  0.76710  0.11004  0.21992  1.0000
  C   C255      1.0  0.73059  0.08238  0.00748  1.0000
  C   C256      1.0  0.76235  0.08135  0.02872  1.0000
  H   H221      1.0  0.72387  0.09101  0.06767  1.0000
  H   H222      1.0  0.78267  0.10614  0.04232  1.0000
  H   H223      1.0  0.75847  0.06607  0.08813  1.0000
  C   C257      1.0  0.72978  0.14937  0.00843  1.0000
  C   C258      1.0  0.69322  0.13390  0.03570  1.0000
  H   H224      1.0  0.74416  0.14819  0.06464  1.0000
  H   H225      1.0  0.69114  0.14641  0.09533  1.0000
  H   H226      1.0  0.68257  0.10780  0.05126  1.0000
  C   C259      1.0  0.89745  0.14552  0.27702  1.0000
  C   C260      1.0  0.86738  0.11569  0.27700  1.0000
  H   H227      1.0  0.85292  0.11005  0.22064  1.0000
  H   H228      1.0  0.90321  0.15998  0.22068  1.0000
  C   C261      1.0  0.93007  0.15037  0.00837  1.0000
  C   C262      1.0  0.93135  0.18329  0.02937  1.0000
  H   H229      1.0  0.92122  0.13501  0.06852  1.0000
  H   H230      1.0  0.90661  0.17902  0.04259  1.0000
  H   H231      1.0  0.94657  0.19460  0.08892  1.0000
  C   C263      1.0  0.86294  0.08267  0.00837  1.0000
  C   C264      1.0  0.87830  0.06152  0.03602  1.0000
  H   H232      1.0  0.86401  0.09820  0.06454  1.0000
  H   H233      1.0  0.86564  0.04689  0.09544  1.0000
  H   H234      1.0  0.90437  0.07693  0.05205  1.0000
  C   C265      1.0  0.98985  0.24618  0.38386  1.0000
  C   C266      1.0  0.97058  0.26223  0.38070  1.0000
  C   C267      1.0  0.93622  0.24558  0.36401  1.0000
  C   C268      1.0  0.92005  0.21118  0.35425  1.0000
  H   H235      1.0  0.98147  0.28712  0.38530  1.0000
  H   H236      1.0  0.89495  0.19859  0.34566  1.0000
  C   C269      1.0  0.52571  0.26416  0.38393  1.0000
  C   C270      1.0  0.59552  0.29914  0.35457  1.0000
  C   C271      1.0  0.57933  0.26473  0.36413  1.0000
  C   C272      1.0  0.54497  0.24809  0.38084  1.0000
  H   H237      1.0  0.62062  0.31172  0.34608  1.0000
  H   H238      1.0  0.53407  0.22320  0.38530  1.0000
  C   C273      1.0  0.76675  0.24622  0.38379  1.0000
  C   C274      1.0  0.75063  0.21090  0.38062  1.0000
  C   C275      1.0  0.76722  0.19314  0.36376  1.0000
  C   C276      1.0  0.80163  0.21131  0.35413  1.0000
  H   H239      1.0  0.72573  0.19693  0.38505  1.0000
  H   H240      1.0  0.81416  0.19875  0.34548  1.0000
  C   C277      1.0  0.74880  0.26414  0.38378  1.0000
  C   C278      1.0  0.71393  0.29906  0.35415  1.0000
  C   C279      1.0  0.74834  0.31722  0.36391  1.0000
  C   C280      1.0  0.76492  0.29946  0.38067  1.0000
  H   H241      1.0  0.70141  0.31163  0.34554  1.0000
  H   H242      1.0  0.78982  0.31342  0.38546  1.0000
  C   C281      1.0  0.76672  0.02316  0.38354  1.0000
  C   C282      1.0  0.80204  0.04243  0.38051  1.0000
  C   C283      1.0  0.81975  0.07674  0.36314  1.0000
  C   C284      1.0  0.80152  0.09290  0.35303  1.0000
  H   H243      1.0  0.81605  0.03154  0.38539  1.0000
  H   H244      1.0  0.81404  0.11798  0.34416  1.0000
  C   C285      1.0  0.74885  0.48731  0.38367  1.0000
  C   C286      1.0  0.71407  0.41750  0.35415  1.0000
  C   C287      1.0  0.69583  0.43368  0.36374  1.0000
  C   C288      1.0  0.71353  0.46804  0.38043  1.0000
  H   H245      1.0  0.70156  0.39241  0.34542  1.0000
  H   H246      1.0  0.69953  0.47893  0.38499  1.0000
  C   C289      1.0  0.59905  0.24960  0.35642  1.0000
  C   C290      1.0  0.61063  0.24122  0.43468  1.0000
  C   C291      1.0  0.64101  0.24115  0.43440  1.0000
  C   C292      1.0  0.66087  0.24953  0.35592  1.0000
  N   N25       1.0  0.65215  0.23670  0.51459  1.0000
  C   C293      1.0  0.63622  0.23141  0.59465  1.0000
  C   C294      1.0  0.60589  0.23135  0.59474  1.0000
  N   N26       1.0  0.59513  0.23673  0.51503  1.0000
  H   H247      1.0  0.65819  0.20754  0.66114  1.0000
  H   H248      1.0  0.70292  0.26610  0.64040  1.0000
  H   H249      1.0  0.56843  0.23602  0.66169  1.0000
  H   H250      1.0  0.54730  0.17606  0.64644  1.0000
  C   C295      1.0  0.76352  0.35206  0.35660  1.0000
  C   C296      1.0  0.77163  0.37193  0.43501  1.0000
  C   C297      1.0  0.77171  0.40239  0.43483  1.0000
  C   C298      1.0  0.76369  0.41416  0.35625  1.0000
  N   N27       1.0  0.77581  0.41777  0.51521  1.0000
  C   C299      1.0  0.78070  0.40692  0.59543  1.0000
  C   C300      1.0  0.78076  0.37666  0.59543  1.0000
  N   N28       1.0  0.77573  0.36072  0.51549  1.0000
  H   H251      1.0  0.80443  0.45254  0.66304  1.0000
  H   H252      1.0  0.74616  0.43926  0.63944  1.0000
  H   H253      1.0  0.77585  0.33435  0.66191  1.0000
  H   H254      1.0  0.83586  0.37341  0.64975  1.0000
  C   C301      1.0  0.66101  0.41395  0.35596  1.0000
  C   C302      1.0  0.64112  0.40242  0.43442  1.0000
  C   C303      1.0  0.61063  0.37206  0.43442  1.0000
  C   C304      1.0  0.59890  0.35212  0.35609  1.0000
  N   N29       1.0  0.59514  0.36099  0.51476  1.0000
  C   C305      1.0  0.60594  0.37693  0.59476  1.0000
  C   C306      1.0  0.63623  0.40720  0.59462  1.0000
  N   N30       1.0  0.65227  0.41791  0.51472  1.0000
  H   H255      1.0  0.56020  0.35527  0.66174  1.0000
  H   H256      1.0  0.57348  0.31019  0.64029  1.0000
  H   H257      1.0  0.67853  0.44460  0.66113  1.0000
  H   H258      1.0  0.63979  0.46588  0.64673  1.0000
  C   C307      1.0  0.91648  0.26067  0.35611  1.0000
  C   C308      1.0  0.90488  0.26898  0.43453  1.0000
  C   C309      1.0  0.87450  0.26909  0.43441  1.0000
  C   C310      1.0  0.85468  0.26084  0.35586  1.0000
  N   N31       1.0  0.86336  0.27343  0.51472  1.0000
  C   C311      1.0  0.87926  0.27857  0.59479  1.0000
  C   C312      1.0  0.90957  0.27862  0.59474  1.0000
  N   N32       1.0  0.92033  0.27333  0.51489  1.0000
  H   H259      1.0  0.85746  0.30252  0.66178  1.0000
  H   H260      1.0  0.81249  0.24413  0.63999  1.0000
  H   H261      1.0  0.94700  0.27381  0.66136  1.0000
  H   H262      1.0  0.96812  0.33380  0.64724  1.0000
  C   C313      1.0  0.75203  0.15830  0.35605  1.0000
  C   C314      1.0  0.74382  0.13838  0.43435  1.0000
  C   C315      1.0  0.74376  0.10793  0.43385  1.0000
  C   C316      1.0  0.75196  0.09634  0.35518  1.0000
  N   N33       1.0  0.73949  0.09240  0.51406  1.0000
  C   C317      1.0  0.73441  0.10310  0.59431  1.0000
  C   C318      1.0  0.73434  0.13335  0.59457  1.0000
  N   N34       1.0  0.73953  0.14945  0.51483  1.0000
  H   H263      1.0  0.71061  0.05731  0.66110  1.0000
  H   H264      1.0  0.76903  0.07090  0.63896  1.0000
  H   H265      1.0  0.73913  0.17552  0.66157  1.0000
  H   H266      1.0  0.67914  0.13659  0.64773  1.0000
  C   C319      1.0  0.85460  0.09647  0.35593  1.0000
  C   C320      1.0  0.87443  0.10797  0.43445  1.0000
  C   C321      1.0  0.90492  0.13831  0.43446  1.0000
  C   C322      1.0  0.91668  0.15819  0.35606  1.0000
  N   N35       1.0  0.92034  0.14945  0.51486  1.0000
  C   C323      1.0  0.90947  0.13358  0.59493  1.0000
  C   C324      1.0  0.87916  0.10331  0.59474  1.0000
  N   N36       1.0  0.86319  0.09254  0.51478  1.0000
  H   H267      1.0  0.95510  0.15525  0.66243  1.0000
  H   H268      1.0  0.94200  0.20040  0.63965  1.0000
  H   H269      1.0  0.83681  0.06590  0.66107  1.0000
  H   H270      1.0  0.87572  0.04479  0.64804  1.0000
  C   C325      1.0  0.93634  0.69304  0.36351  1.0000
  C   C326      1.0  0.97068  0.71084  0.38049  1.0000
  H   H271      1.0  0.98165  0.69690  0.38482  1.0000
  C   C327      1.0  0.54488  0.79949  0.38053  1.0000
  C   C328      1.0  0.57923  0.81729  0.36374  1.0000
  H   H272      1.0  0.53390  0.81343  0.38468  1.0000
  C   C329      1.0  0.81983  0.74573  0.36357  1.0000
  C   C330      1.0  0.80208  0.76233  0.38049  1.0000
  H   H273      1.0  0.81606  0.78723  0.38475  1.0000
  C   C331      1.0  0.71347  0.74803  0.38040  1.0000
  C   C332      1.0  0.69573  0.76463  0.36335  1.0000
  H   H274      1.0  0.69949  0.72313  0.38471  1.0000
  C   C333      1.0  0.76710  0.57665  0.36262  1.0000
  C   C334      1.0  0.75056  0.54233  0.37991  1.0000
  H   H275      1.0  0.72566  0.53137  0.38453  1.0000
  C   C335      1.0  0.76503  0.96815  0.38033  1.0000
  C   C336      1.0  0.74849  0.93380  0.36349  1.0000
  H   H276      1.0  0.78993  0.97912  0.38488  1.0000
  C   C337      1.0  0.64818  0.75621  0.27718  1.0000
  C   C338      1.0  0.61823  0.75619  0.27732  1.0000
  H   H277      1.0  0.61250  0.76504  0.22119  1.0000
  H   H278      1.0  0.66259  0.76492  0.22072  1.0000
  C   C339      1.0  0.65299  0.72743  0.00787  1.0000
  C   C340      1.0  0.68566  0.75919  0.02992  1.0000
  H   H279      1.0  0.63750  0.72048  0.06782  1.0000
  H   H280      1.0  0.68106  0.77941  0.04387  1.0000
  H   H281      1.0  0.69697  0.75519  0.08932  1.0000
  C   C341      1.0  0.58517  0.72659  0.00843  1.0000
  C   C342      1.0  0.56397  0.68993  0.03479  1.0000
  H   H282      1.0  0.60062  0.74076  0.06505  1.0000
  H   H283      1.0  0.54928  0.68769  0.09431  1.0000
  H   H284      1.0  0.57936  0.67920  0.05016  1.0000
  C   C343      1.0  0.75727  0.89488  0.27737  1.0000
  C   C344      1.0  0.75712  0.86487  0.27761  1.0000
  H   H285      1.0  0.74838  0.85040  0.22126  1.0000
  H   H286      1.0  0.74860  0.90059  0.22086  1.0000
  C   C345      1.0  0.78432  0.92748  0.00880  1.0000
  C   C346      1.0  0.75259  0.92864  0.02932  1.0000
  H   H287      1.0  0.79076  0.91865  0.06910  1.0000
  H   H288      1.0  0.73214  0.90387  0.04238  1.0000
  H   H289      1.0  0.75634  0.94383  0.08885  1.0000
  C   C347      1.0  0.78508  0.86045  0.00922  1.0000
  C   C348      1.0  0.82156  0.87591  0.03745  1.0000
  H   H290      1.0  0.77048  0.86144  0.06511  1.0000
  H   H291      1.0  0.82345  0.86326  0.09698  1.0000
  H   H292      1.0  0.83210  0.90196  0.05351  1.0000
  C   C349      1.0  0.61823  0.86482  0.27722  1.0000
  C   C350      1.0  0.64824  0.89469  0.27713  1.0000
  H   H293      1.0  0.66272  0.90032  0.22082  1.0000
  H   H294      1.0  0.61244  0.85035  0.22086  1.0000
  C   C351      1.0  0.58522  0.86024  0.00812  1.0000
  C   C352      1.0  0.58401  0.82740  0.02984  1.0000
  H   H295      1.0  0.59396  0.87570  0.06811  1.0000
  H   H296      1.0  0.60876  0.83176  0.04352  1.0000
  H   H297      1.0  0.56872  0.81615  0.08933  1.0000
  C   C353      1.0  0.65237  0.92791  0.00819  1.0000
  C   C354      1.0  0.63706  0.94920  0.03500  1.0000
  H   H298      1.0  0.65115  0.91244  0.06469  1.0000
  H   H299      1.0  0.64964  0.96388  0.09442  1.0000
  H   H300      1.0  0.61096  0.93386  0.05073  1.0000
  C   C355      1.0  0.86739  0.75431  0.27695  1.0000
  C   C356      1.0  0.89725  0.75416  0.27719  1.0000
  H   H301      1.0  0.90303  0.74543  0.22088  1.0000
  H   H302      1.0  0.85297  0.74561  0.22053  1.0000
  C   C357      1.0  0.86248  0.78249  0.00811  1.0000
  C   C358      1.0  0.82967  0.75080  0.02962  1.0000
  H   H303      1.0  0.87790  0.78920  0.06817  1.0000
  H   H304      1.0  0.83408  0.73044  0.04321  1.0000
  H   H305      1.0  0.81836  0.75476  0.08910  1.0000
  C   C359      1.0  0.93025  0.78320  0.00839  1.0000
  C   C360      1.0  0.95142  0.81979  0.03541  1.0000
  H   H306      1.0  0.91476  0.76888  0.06479  1.0000
  H   H307      1.0  0.96608  0.82189  0.09488  1.0000
  H   H308      1.0  0.93602  0.83047  0.05112  1.0000
  C   C361      1.0  0.75847  0.61574  0.27654  1.0000
  C   C362      1.0  0.75846  0.64568  0.27680  1.0000
  H   H309      1.0  0.76725  0.66026  0.22065  1.0000
  H   H310      1.0  0.76710  0.61004  0.21992  1.0000
  C   C363      1.0  0.73059  0.58237  0.00748  1.0000
  C   C364      1.0  0.76235  0.58135  0.02872  1.0000
  H   H311      1.0  0.72387  0.59101  0.06767  1.0000
  H   H312      1.0  0.78267  0.60614  0.04232  1.0000
  H   H313      1.0  0.75847  0.56607  0.08813  1.0000
  C   C365      1.0  0.72978  0.64937  0.00843  1.0000
  C   C366      1.0  0.69321  0.63390  0.03570  1.0000
  H   H314      1.0  0.74416  0.64819  0.06464  1.0000
  H   H315      1.0  0.69114  0.64641  0.09533  1.0000
  H   H316      1.0  0.68257  0.60780  0.05126  1.0000
  C   C367      1.0  0.89745  0.64551  0.27702  1.0000
  C   C368      1.0  0.86738  0.61569  0.27700  1.0000
  H   H317      1.0  0.85292  0.61005  0.22064  1.0000
  H   H318      1.0  0.90321  0.65998  0.22068  1.0000
  C   C369      1.0  0.93007  0.65037  0.00837  1.0000
  C   C370      1.0  0.93135  0.68329  0.02937  1.0000
  H   H319      1.0  0.92122  0.63502  0.06852  1.0000
  H   H320      1.0  0.90662  0.67902  0.04259  1.0000
  H   H321      1.0  0.94657  0.69460  0.08892  1.0000
  C   C371      1.0  0.86294  0.58267  0.00837  1.0000
  C   C372      1.0  0.87830  0.56151  0.03602  1.0000
  H   H322      1.0  0.86401  0.59820  0.06454  1.0000
  H   H323      1.0  0.86564  0.54689  0.09544  1.0000
  H   H324      1.0  0.90437  0.57693  0.05205  1.0000
  C   C373      1.0  0.98985  0.74617  0.38386  1.0000
  C   C374      1.0  0.97058  0.76223  0.38070  1.0000
  C   C375      1.0  0.93622  0.74558  0.36401  1.0000
  C   C376      1.0  0.92005  0.71118  0.35425  1.0000
  H   H325      1.0  0.98147  0.78712  0.38530  1.0000
  H   H326      1.0  0.89495  0.69859  0.34566  1.0000
  C   C377      1.0  0.52571  0.76416  0.38393  1.0000
  C   C378      1.0  0.59552  0.79914  0.35457  1.0000
  C   C379      1.0  0.57933  0.76473  0.36413  1.0000
  C   C380      1.0  0.54497  0.74809  0.38084  1.0000
  H   H327      1.0  0.62062  0.81171  0.34608  1.0000
  H   H328      1.0  0.53407  0.72320  0.38530  1.0000
  C   C381      1.0  0.76675  0.74622  0.38379  1.0000
  C   C382      1.0  0.75063  0.71090  0.38062  1.0000
  C   C383      1.0  0.76722  0.69314  0.36376  1.0000
  C   C384      1.0  0.80163  0.71131  0.35413  1.0000
  H   H329      1.0  0.72573  0.69693  0.38505  1.0000
  H   H330      1.0  0.81416  0.69875  0.34548  1.0000
  C   C385      1.0  0.74880  0.76413  0.38378  1.0000
  C   C386      1.0  0.71393  0.79906  0.35415  1.0000
  C   C387      1.0  0.74834  0.81722  0.36391  1.0000
  C   C388      1.0  0.76492  0.79946  0.38067  1.0000
  H   H331      1.0  0.70140  0.81163  0.34554  1.0000
  H   H332      1.0  0.78982  0.81342  0.38546  1.0000
  C   C389      1.0  0.76672  0.52316  0.38354  1.0000
  C   C390      1.0  0.80204  0.54243  0.38051  1.0000
  C   C391      1.0  0.81975  0.57674  0.36314  1.0000
  C   C392      1.0  0.80152  0.59290  0.35303  1.0000
  H   H333      1.0  0.81605  0.53154  0.38539  1.0000
  H   H334      1.0  0.81404  0.61798  0.34416  1.0000
  C   C393      1.0  0.74885  0.98731  0.38367  1.0000
  C   C394      1.0  0.71407  0.91750  0.35415  1.0000
  C   C395      1.0  0.69583  0.93368  0.36374  1.0000
  C   C396      1.0  0.71353  0.96804  0.38043  1.0000
  H   H335      1.0  0.70156  0.89241  0.34542  1.0000
  H   H336      1.0  0.69953  0.97893  0.38499  1.0000
  C   C397      1.0  0.59905  0.74961  0.35642  1.0000
  C   C398      1.0  0.61063  0.74122  0.43468  1.0000
  C   C399      1.0  0.64101  0.74115  0.43440  1.0000
  C   C400      1.0  0.66087  0.74952  0.35592  1.0000
  N   N37       1.0  0.65215  0.73670  0.51459  1.0000
  C   C401      1.0  0.63621  0.73141  0.59465  1.0000
  C   C402      1.0  0.60589  0.73135  0.59474  1.0000
  N   N38       1.0  0.59513  0.73673  0.51503  1.0000
  H   H337      1.0  0.65819  0.70754  0.66114  1.0000
  H   H338      1.0  0.70292  0.76610  0.64040  1.0000
  H   H339      1.0  0.56843  0.73602  0.66169  1.0000
  H   H340      1.0  0.54730  0.67606  0.64644  1.0000
  C   C403      1.0  0.76352  0.85206  0.35660  1.0000
  C   C404      1.0  0.77162  0.87193  0.43501  1.0000
  C   C405      1.0  0.77171  0.90239  0.43483  1.0000
  C   C406      1.0  0.76369  0.91416  0.35625  1.0000
  N   N39       1.0  0.77581  0.91777  0.51521  1.0000
  C   C407      1.0  0.78070  0.90692  0.59543  1.0000
  C   C408      1.0  0.78076  0.87666  0.59543  1.0000
  N   N40       1.0  0.77573  0.86071  0.51549  1.0000
  H   H341      1.0  0.80443  0.95253  0.66304  1.0000
  H   H342      1.0  0.74616  0.93926  0.63944  1.0000
  H   H343      1.0  0.77584  0.83435  0.66191  1.0000
  H   H344      1.0  0.83586  0.87341  0.64975  1.0000
  C   C409      1.0  0.66101  0.91395  0.35596  1.0000
  C   C410      1.0  0.64112  0.90242  0.43442  1.0000
  C   C411      1.0  0.61063  0.87206  0.43442  1.0000
  C   C412      1.0  0.59890  0.85212  0.35609  1.0000
  N   N41       1.0  0.59514  0.86099  0.51476  1.0000
  C   C413      1.0  0.60594  0.87693  0.59476  1.0000
  C   C414      1.0  0.63623  0.90720  0.59462  1.0000
  N   N42       1.0  0.65227  0.91791  0.51472  1.0000
  H   H345      1.0  0.56020  0.85527  0.66174  1.0000
  H   H346      1.0  0.57348  0.81019  0.64029  1.0000
  H   H347      1.0  0.67853  0.94460  0.66113  1.0000
  H   H348      1.0  0.63979  0.96588  0.64674  1.0000
  C   C415      1.0  0.91648  0.76067  0.35611  1.0000
  C   C416      1.0  0.90488  0.76898  0.43453  1.0000
  C   C417      1.0  0.87450  0.76909  0.43441  1.0000
  C   C418      1.0  0.85468  0.76084  0.35586  1.0000
  N   N43       1.0  0.86336  0.77343  0.51472  1.0000
  C   C419      1.0  0.87926  0.77857  0.59479  1.0000
  C   C420      1.0  0.90957  0.77861  0.59474  1.0000
  N   N44       1.0  0.92033  0.77333  0.51489  1.0000
  H   H349      1.0  0.85746  0.80252  0.66178  1.0000
  H   H350      1.0  0.81249  0.74413  0.63999  1.0000
  H   H351      1.0  0.94700  0.77381  0.66136  1.0000
  H   H352      1.0  0.96812  0.83380  0.64724  1.0000
  C   C421      1.0  0.75203  0.65830  0.35605  1.0000
  C   C422      1.0  0.74382  0.63838  0.43435  1.0000
  C   C423      1.0  0.74376  0.60793  0.43385  1.0000
  C   C424      1.0  0.75196  0.59634  0.35518  1.0000
  N   N45       1.0  0.73949  0.59240  0.51406  1.0000
  C   C425      1.0  0.73441  0.60310  0.59431  1.0000
  C   C426      1.0  0.73434  0.63335  0.59457  1.0000
  N   N46       1.0  0.73953  0.64945  0.51483  1.0000
  H   H353      1.0  0.71061  0.55731  0.66110  1.0000
  H   H354      1.0  0.76903  0.57090  0.63896  1.0000
  H   H355      1.0  0.73913  0.67552  0.66157  1.0000
  H   H356      1.0  0.67914  0.63659  0.64773  1.0000
  C   C427      1.0  0.85460  0.59647  0.35593  1.0000
  C   C428      1.0  0.87443  0.60797  0.43445  1.0000
  C   C429      1.0  0.90492  0.63831  0.43446  1.0000
  C   C430      1.0  0.91668  0.65819  0.35606  1.0000
  N   N47       1.0  0.92034  0.64946  0.51486  1.0000
  C   C431      1.0  0.90947  0.63358  0.59493  1.0000
  C   C432      1.0  0.87916  0.60331  0.59474  1.0000
  N   N48       1.0  0.86319  0.59254  0.51478  1.0000
  H   H357      1.0  0.95510  0.65525  0.66243  1.0000
  H   H358      1.0  0.94200  0.70040  0.63965  1.0000
  H   H359      1.0  0.83681  0.56590  0.66107  1.0000
  H   H360      1.0  0.87572  0.54478  0.64804  1.0000
