data_image0
_chemical_formula_structural       C3HCH3NC3HCH3NC3HCH3NC3HCH3NCHC3HCH3NC3H3NC3HCH3NC3HCH3NC3HCH3NC6H3C3H3C6H3C3H3C6H3C3H3C6H3C3H3C2HC2HC6H3C3H3C3HCH3NC3HCH3NC3HCH3NC3HCH3NC2HNC3HCH3NC2H3C3HCH3NC3HCH3NC3HCH3NC3HCH3NC3HCH3NC3HCH3NCHC4H2CH3CHC6H3C3H3CHC3HCH3NC3HCH3NC3HCH3NC3HCH3NC3HCH3NC3HCH3NC3H3NC3HCH3NCHC3HCH3NC6H3C2H2C6H3C3H3C6H3C3H3C6H2C2H2C6H3C2H2C3HCH3NC3HCH3NC3HCH3NC2H3C3HCH3NC2HNC3HCH3N
_chemical_formula_sum              "C252 H216 N36"
_cell_length_a       57.9371
_cell_length_b       57.937
_cell_length_c       14.5427
_cell_angle_alpha    90
_cell_angle_beta     90
_cell_angle_gamma    120

_space_group_name_H-M_alt    "P 1"
_space_group_IT_number       1

loop_
  _space_group_symop_operation_xyz
  'x, y, z'

loop_
  _atom_site_type_symbol
  _atom_site_label
  _atom_site_symmetry_multiplicity
  _atom_site_fract_x
  _atom_site_fract_y
  _atom_site_fract_z
  _atom_site_occupancy
  C   C1        1.0  0.23334  0.43161  0.36803  1.0000
  C   C2        1.0  0.21373  0.41733  0.30054  1.0000
  C   C3        1.0  0.19951  0.38896  0.29664  1.0000
  H   H1        1.0  0.21045  0.42795  0.25121  1.0000
  C   C4        1.0  0.18039  0.37548  0.22000  1.0000
  H   H2        1.0  0.17997  0.38956  0.17100  1.0000
  H   H3        1.0  0.16030  0.36339  0.24733  1.0000
  H   H4        1.0  0.18588  0.36266  0.18226  1.0000
  N   N1        1.0  0.24879  0.45848  0.37079  1.0000
  C   C5        1.0  0.22976  0.79754  0.36818  1.0000
  C   C6        1.0  0.23500  0.81706  0.30045  1.0000
  C   C7        1.0  0.22085  0.83129  0.29657  1.0000
  H   H5        1.0  0.24889  0.82032  0.25107  1.0000
  C   C8        1.0  0.22645  0.85035  0.21981  1.0000
  H   H6        1.0  0.24091  0.85074  0.17072  1.0000
  H   H7        1.0  0.23448  0.87047  0.24700  1.0000
  H   H8        1.0  0.20811  0.84485  0.18221  1.0000
  N   N2        1.0  0.24114  0.78205  0.37090  1.0000
  C   C9        1.0  0.44229  0.21904  0.36803  1.0000
  C   C10       1.0  0.42802  0.22435  0.30052  1.0000
  C   C11       1.0  0.39964  0.21020  0.29661  1.0000
  H   H9        1.0  0.43864  0.23825  0.25116  1.0000
  C   C12       1.0  0.38617  0.21582  0.21994  1.0000
  H   H10       1.0  0.40024  0.23032  0.17092  1.0000
  H   H11       1.0  0.37407  0.22383  0.24722  1.0000
  H   H12       1.0  0.37335  0.19750  0.18222  1.0000
  N   N3        1.0  0.46916  0.23045  0.37080  1.0000
  C   C13       1.0  0.23334  0.19464  0.35008  1.0000
  C   C14       1.0  0.21444  0.18954  0.27868  1.0000
  C   C15       1.0  0.19861  0.20199  0.28103  1.0000
  H   H13       1.0  0.18505  0.19807  0.22951  1.0000
  C   C16       1.0  0.21069  0.17212  0.19824  1.0000
  H   H14       1.0  0.22471  0.16481  0.19639  1.0000
  H   H15       1.0  0.21335  0.18320  0.13460  1.0000
  H   H16       1.0  0.19055  0.15493  0.19932  1.0000
  N   N4        1.0  0.24969  0.18411  0.35043  1.0000
  C   C17       1.0  0.03484  0.83224  0.28106  1.0000
  H   H17       1.0  0.04447  0.84581  0.22959  1.0000
  C   C18       1.0  0.20532  0.98206  0.35008  1.0000
  C   C19       1.0  0.20020  0.99586  0.27874  1.0000
  C   C20       1.0  0.21265  0.02415  0.28110  1.0000
  H   H18       1.0  0.20872  0.03379  0.22963  1.0000
  C   C21       1.0  0.18276  0.98219  0.19834  1.0000
  H   H19       1.0  0.17545  0.96087  0.19648  1.0000
  H   H20       1.0  0.19382  0.99062  0.13467  1.0000
  H   H21       1.0  0.16556  0.98514  0.19951  1.0000
  N   N5        1.0  0.19479  0.95518  0.35040  1.0000
  C   C22       1.0  0.04877  0.22265  0.35007  1.0000
  C   C23       1.0  0.03497  0.20373  0.27873  1.0000
  C   C24       1.0  0.04865  0.19995  0.19836  1.0000
  H   H22       1.0  0.06997  0.21397  0.19648  1.0000
  H   H23       1.0  0.04022  0.20257  0.13468  1.0000
  H   H24       1.0  0.04570  0.17980  0.19958  1.0000
  N   N6        1.0  0.07565  0.23901  0.35040  1.0000
  C   C25       1.0  0.24880  0.59896  0.38199  1.0000
  C   C26       1.0  0.22552  0.59851  0.34678  1.0000
  C   C27       1.0  0.22408  0.62232  0.34398  1.0000
  H   H25       1.0  0.20781  0.62216  0.31576  1.0000
  C   C28       1.0  0.20259  0.57426  0.30639  1.0000
  H   H26       1.0  0.20455  0.55656  0.31158  1.0000
  H   H27       1.0  0.20060  0.57766  0.23368  1.0000
  H   H28       1.0  0.18426  0.56997  0.34194  1.0000
  N   N7        1.0  0.25130  0.57670  0.36973  1.0000
  C   C29       1.0  0.43189  0.64923  0.38225  1.0000
  C   C30       1.0  0.43233  0.62640  0.34692  1.0000
  C   C31       1.0  0.40852  0.60116  0.34412  1.0000
  H   H29       1.0  0.40867  0.58504  0.31581  1.0000
  C   C32       1.0  0.45658  0.62774  0.30642  1.0000
  H   H30       1.0  0.47427  0.64739  0.31163  1.0000
  H   H31       1.0  0.45315  0.62235  0.23370  1.0000
  H   H32       1.0  0.46086  0.61368  0.34188  1.0000
  N   N8        1.0  0.45414  0.67399  0.36987  1.0000
  C   C33       1.0  0.38161  0.78205  0.38231  1.0000
  C   C34       1.0  0.40443  0.80531  0.34690  1.0000
  C   C35       1.0  0.42968  0.80675  0.34411  1.0000
  H   H33       1.0  0.44578  0.82300  0.31566  1.0000
  C   C36       1.0  0.40308  0.82820  0.30628  1.0000
  H   H34       1.0  0.38343  0.82624  0.31148  1.0000
  H   H35       1.0  0.40846  0.83013  0.23356  1.0000
  H   H36       1.0  0.41714  0.84656  0.34166  1.0000
  N   N9        1.0  0.35685  0.77954  0.36997  1.0000
  C   C37       1.0  0.16018  0.30016  0.36143  1.0000
  C   C38       1.0  0.13247  0.28097  0.35817  1.0000
  C   C39       1.0  0.12254  0.25301  0.35838  1.0000
  C   C40       1.0  0.14172  0.24448  0.36143  1.0000
  C   C41       1.0  0.16962  0.26252  0.36482  1.0000
  C   C42       1.0  0.17818  0.29023  0.36497  1.0000
  H   H37       1.0  0.13518  0.22446  0.36353  1.0000
  H   H38       1.0  0.19818  0.30362  0.36934  1.0000
  H   H39       1.0  0.11904  0.28757  0.35709  1.0000
  C   C43       1.0  0.09494  0.23394  0.35905  1.0000
  C   C44       1.0  0.18847  0.25397  0.37507  1.0000
  C   C45       1.0  0.16871  0.32771  0.36585  1.0000
  H   H40       1.0  0.15497  0.33285  0.37786  1.0000
  H   H41       1.0  0.20559  0.26647  0.40573  1.0000
  H   H42       1.0  0.08974  0.21489  0.36719  1.0000
  C   C46       1.0  0.17142  0.87066  0.36142  1.0000
  C   C47       1.0  0.17994  0.89837  0.35815  1.0000
  C   C48       1.0  0.16192  0.90830  0.35837  1.0000
  C   C49       1.0  0.13421  0.88912  0.36144  1.0000
  C   C50       1.0  0.12435  0.86122  0.36483  1.0000
  C   C51       1.0  0.14350  0.85266  0.36499  1.0000
  H   H43       1.0  0.12073  0.89565  0.36354  1.0000
  H   H44       1.0  0.13689  0.83266  0.36933  1.0000
  H   H45       1.0  0.19997  0.91180  0.35707  1.0000
  C   C52       1.0  0.17044  0.93590  0.35906  1.0000
  C   C53       1.0  0.09695  0.84237  0.37509  1.0000
  C   C54       1.0  0.19045  0.86213  0.36581  1.0000
  H   H46       1.0  0.20933  0.87588  0.37772  1.0000
  H   H47       1.0  0.09233  0.82525  0.40576  1.0000
  H   H48       1.0  0.15659  0.94109  0.36721  1.0000
  C   C55       1.0  0.31084  0.16074  0.36139  1.0000
  C   C56       1.0  0.29166  0.16926  0.35815  1.0000
  C   C57       1.0  0.26370  0.15124  0.35837  1.0000
  C   C58       1.0  0.25516  0.12352  0.36140  1.0000
  C   C59       1.0  0.27321  0.11367  0.36488  1.0000
  C   C60       1.0  0.30092  0.13281  0.36501  1.0000
  H   H49       1.0  0.23515  0.11004  0.36352  1.0000
  H   H50       1.0  0.31431  0.12620  0.36936  1.0000
  H   H51       1.0  0.29825  0.18929  0.35709  1.0000
  C   C61       1.0  0.24463  0.15976  0.35901  1.0000
  C   C62       1.0  0.26466  0.08626  0.37505  1.0000
  C   C63       1.0  0.33840  0.17976  0.36584  1.0000
  H   H52       1.0  0.34353  0.19864  0.37786  1.0000
  H   H53       1.0  0.27717  0.08164  0.40561  1.0000
  H   H54       1.0  0.22557  0.14590  0.36708  1.0000
  C   C64       1.0  0.26596  0.50540  0.35346  1.0000
  C   C65       1.0  0.25895  0.52578  0.35917  1.0000
  C   C66       1.0  0.27849  0.55324  0.36391  1.0000
  C   C67       1.0  0.30552  0.55969  0.36534  1.0000
  C   C68       1.0  0.31383  0.54064  0.35812  1.0000
  C   C69       1.0  0.29357  0.51350  0.35147  1.0000
  H   H55       1.0  0.31994  0.57937  0.36903  1.0000
  H   H56       1.0  0.29912  0.49936  0.34470  1.0000
  H   H57       1.0  0.23927  0.52062  0.35841  1.0000
  C   C70       1.0  0.27400  0.57523  0.36768  1.0000
  C   C71       1.0  0.34147  0.54921  0.35372  1.0000
  C   C72       1.0  0.24613  0.47833  0.34395  1.0000
  H   H58       1.0  0.22891  0.47426  0.31543  1.0000
  H   H59       1.0  0.34765  0.53590  0.33904  1.0000
  H   H60       1.0  0.29083  0.59348  0.36292  1.0000
  C   C73       1.0  0.47759  0.72463  0.36395  1.0000
  C   C74       1.0  0.47114  0.74521  0.36534  1.0000
  H   H61       1.0  0.45146  0.73995  0.36904  1.0000
  C   C75       1.0  0.45561  0.69816  0.36779  1.0000
  C   C76       1.0  0.48162  0.79165  0.35363  1.0000
  H   H62       1.0  0.43736  0.69674  0.36306  1.0000
  C   C77       1.0  0.27089  0.76489  0.35351  1.0000
  C   C78       1.0  0.29828  0.77189  0.35925  1.0000
  C   C79       1.0  0.30620  0.75235  0.36405  1.0000
  C   C80       1.0  0.28562  0.72532  0.36537  1.0000
  C   C81       1.0  0.25826  0.71701  0.35808  1.0000
  C   C82       1.0  0.25139  0.73728  0.35143  1.0000
  H   H63       1.0  0.29088  0.71090  0.36916  1.0000
  H   H64       1.0  0.23169  0.73172  0.34463  1.0000
  H   H65       1.0  0.31279  0.79157  0.35863  1.0000
  C   C83       1.0  0.33268  0.75684  0.36803  1.0000
  C   C84       1.0  0.23919  0.68937  0.35363  1.0000
  C   C85       1.0  0.26365  0.78471  0.34401  1.0000
  H   H66       1.0  0.27681  0.80194  0.31553  1.0000
  H   H67       1.0  0.21970  0.68320  0.33896  1.0000
  H   H68       1.0  0.33410  0.74001  0.36320  1.0000
  C   C86       1.0  0.20442  0.37385  0.36354  1.0000
  C   C87       1.0  0.22439  0.38807  0.43136  1.0000
  C   C88       1.0  0.23838  0.41639  0.43215  1.0000
  H   H69       1.0  0.25287  0.42631  0.48072  1.0000
  C   C89       1.0  0.23178  0.37460  0.50328  1.0000
  H   H70       1.0  0.22015  0.35293  0.49999  1.0000
  H   H71       1.0  0.22874  0.38060  0.57135  1.0000
  H   H72       1.0  0.25277  0.38047  0.49599  1.0000
  N   N10       1.0  0.19312  0.34694  0.35874  1.0000
  C   C90       1.0  0.20090  0.82644  0.36365  1.0000
  C   C91       1.0  0.19516  0.80649  0.43152  1.0000
  C   C92       1.0  0.20951  0.79251  0.43233  1.0000
  H   H73       1.0  0.20495  0.77803  0.48096  1.0000
  C   C93       1.0  0.17434  0.79913  0.50353  1.0000
  H   H74       1.0  0.16430  0.81076  0.50026  1.0000
  H   H75       1.0  0.18340  0.80219  0.57157  1.0000
  H   H76       1.0  0.15921  0.77813  0.49634  1.0000
  N   N11       1.0  0.18527  0.83772  0.35883  1.0000
  C   C94       1.0  0.38453  0.19019  0.36355  1.0000
  C   C95       1.0  0.39875  0.18445  0.43141  1.0000
  C   C96       1.0  0.42708  0.19879  0.43220  1.0000
  H   H77       1.0  0.43699  0.19422  0.48080  1.0000
  C   C97       1.0  0.38528  0.16361  0.50337  1.0000
  H   H78       1.0  0.36361  0.15357  0.50008  1.0000
  H   H79       1.0  0.39128  0.17266  0.57143  1.0000
  H   H80       1.0  0.39115  0.14848  0.49614  1.0000
  N   N12       1.0  0.35763  0.17458  0.35874  1.0000
  C   C98       1.0  0.20150  0.22053  0.34949  1.0000
  C   C99       1.0  0.22055  0.22567  0.41899  1.0000
  C   C100      1.0  0.23639  0.21321  0.42016  1.0000
  H   H81       1.0  0.22275  0.23867  0.47037  1.0000
  C   C101      1.0  0.25604  0.21964  0.49564  1.0000
  H   H82       1.0  0.25623  0.23402  0.54469  1.0000
  H   H83       1.0  0.27605  0.22807  0.46687  1.0000
  H   H84       1.0  0.25129  0.20152  0.53344  1.0000
  N   N13       1.0  0.18569  0.23161  0.34575  1.0000
  C   C102      1.0  0.05048  0.82935  0.34951  1.0000
  C   C103      1.0  0.03657  0.81027  0.41894  1.0000
  H   H85       1.0  0.04737  0.80806  0.47030  1.0000
  N   N14       1.0  0.07736  0.84515  0.34577  1.0000
  C   C104      1.0  0.23120  0.03979  0.34952  1.0000
  C   C105      1.0  0.23637  0.02588  0.41896  1.0000
  C   C106      1.0  0.22391  0.99758  0.42011  1.0000
  H   H86       1.0  0.24939  0.03668  0.47030  1.0000
  C   C107      1.0  0.23037  0.98436  0.49553  1.0000
  H   H87       1.0  0.24476  0.99855  0.54455  1.0000
  H   H88       1.0  0.23878  0.97278  0.46669  1.0000
  H   H89       1.0  0.21225  0.97099  0.53337  1.0000
  N   N15       1.0  0.24228  0.06668  0.34582  1.0000
  C   C108      1.0  0.03325  0.22573  0.42010  1.0000
  C   C109      1.0  0.04648  0.24541  0.49550  1.0000
  H   H90       1.0  0.03229  0.24562  0.54451  1.0000
  H   H91       1.0  0.05806  0.26541  0.46665  1.0000
  H   H92       1.0  0.05985  0.24067  0.53335  1.0000
  C   C110      1.0  0.24545  0.64683  0.37371  1.0000
  C   C111      1.0  0.26762  0.64693  0.41308  1.0000
  C   C112      1.0  0.26899  0.62333  0.42273  1.0000
  H   H93       1.0  0.28247  0.66443  0.44024  1.0000
  C   C113      1.0  0.28992  0.62528  0.48733  1.0000
  H   H94       1.0  0.29167  0.63752  0.54705  1.0000
  H   H95       1.0  0.30919  0.63441  0.45255  1.0000
  H   H96       1.0  0.28529  0.60593  0.51474  1.0000
  N   N16       1.0  0.24624  0.67057  0.36788  1.0000
  C   C114      1.0  0.38401  0.59801  0.37391  1.0000
  C   C115      1.0  0.38392  0.62008  0.41336  1.0000
  C   C116      1.0  0.40752  0.64503  0.42306  1.0000
  H   H97       1.0  0.36641  0.61742  0.44046  1.0000
  C   C117      1.0  0.40557  0.66405  0.48747  1.0000
  H   H98       1.0  0.39332  0.65359  0.54721  1.0000
  H   H99       1.0  0.39644  0.67417  0.45256  1.0000
  H   H100      1.0  0.42491  0.67878  0.51486  1.0000
  N   N17       1.0  0.36027  0.57507  0.36804  1.0000
  C   C118      1.0  0.43283  0.78540  0.37393  1.0000
  C   C119      1.0  0.41078  0.76326  0.41351  1.0000
  C   C120      1.0  0.38582  0.76189  0.42322  1.0000
  H   H101      1.0  0.41342  0.74839  0.44054  1.0000
  C   C121      1.0  0.36679  0.74090  0.48757  1.0000
  H   H102      1.0  0.37725  0.73910  0.54727  1.0000
  H   H103      1.0  0.35667  0.72166  0.45258  1.0000
  H   H104      1.0  0.35207  0.74552  0.51501  1.0000
  N   N18       1.0  0.45577  0.78459  0.36802  1.0000
  C   C122      1.0  0.59922  0.80111  0.36806  1.0000
  C   C123      1.0  0.61350  0.79581  0.30049  1.0000
  C   C124      1.0  0.64188  0.80996  0.29662  1.0000
  H   H105      1.0  0.60288  0.78192  0.25113  1.0000
  C   C125      1.0  0.65536  0.80434  0.21992  1.0000
  H   H106      1.0  0.64128  0.78987  0.17086  1.0000
  H   H107      1.0  0.66744  0.79633  0.24718  1.0000
  H   H108      1.0  0.66819  0.82267  0.18226  1.0000
  N   N19       1.0  0.57236  0.78971  0.37083  1.0000
  C   C126      1.0  0.60964  0.37092  0.38210  1.0000
  C   C127      1.0  0.60919  0.39375  0.34680  1.0000
  C   C128      1.0  0.63300  0.41899  0.34399  1.0000
  H   H109      1.0  0.63285  0.43511  0.31570  1.0000
  C   C129      1.0  0.58495  0.39242  0.30633  1.0000
  H   H110      1.0  0.56725  0.37276  0.31153  1.0000
  H   H111      1.0  0.58837  0.39781  0.23362  1.0000
  H   H112      1.0  0.58066  0.40647  0.34182  1.0000
  N   N20       1.0  0.58738  0.34616  0.36985  1.0000
  C   C130      1.0  0.65991  0.23810  0.38232  1.0000
  C   C131      1.0  0.63709  0.21484  0.34687  1.0000
  C   C132      1.0  0.61185  0.21341  0.34404  1.0000
  H   H113      1.0  0.59574  0.19716  0.31565  1.0000
  C   C133      1.0  0.63843  0.19195  0.30626  1.0000
  H   H114      1.0  0.65809  0.19390  0.31149  1.0000
  H   H115      1.0  0.63307  0.19002  0.23353  1.0000
  H   H116      1.0  0.62437  0.17359  0.34161  1.0000
  N   N21       1.0  0.68467  0.24060  0.37001  1.0000
  C   C134      1.0  0.70313  0.84039  0.36585  1.0000
  H   H117      1.0  0.69800  0.82151  0.37778  1.0000
  C   C135      1.0  0.52544  0.75995  0.35348  1.0000
  C   C136      1.0  0.50506  0.73256  0.35918  1.0000
  C   C137      1.0  0.49019  0.77258  0.35808  1.0000
  C   C138      1.0  0.51733  0.77945  0.35142  1.0000
  H   H118      1.0  0.53148  0.79915  0.34463  1.0000
  H   H119      1.0  0.51022  0.71804  0.35850  1.0000
  C   C139      1.0  0.55251  0.76719  0.34396  1.0000
  H   H120      1.0  0.55658  0.75404  0.31544  1.0000
  H   H121      1.0  0.49493  0.81113  0.33894  1.0000
  H   H122      1.0  0.72159  0.44079  0.36928  1.0000
  C   C140      1.0  0.70005  0.47094  0.35365  1.0000
  H   H123      1.0  0.69388  0.48425  0.33893  1.0000
  C   C141      1.0  0.51608  0.26020  0.35348  1.0000
  C   C142      1.0  0.53646  0.28759  0.35921  1.0000
  C   C143      1.0  0.56393  0.29552  0.36402  1.0000
  C   C144      1.0  0.57037  0.27494  0.36541  1.0000
  C   C145      1.0  0.55132  0.24758  0.35812  1.0000
  C   C146      1.0  0.52419  0.24070  0.35143  1.0000
  H   H124      1.0  0.59005  0.28020  0.36921  1.0000
  H   H125      1.0  0.51004  0.22100  0.34462  1.0000
  H   H126      1.0  0.53129  0.30211  0.35852  1.0000
  C   C147      1.0  0.58591  0.32199  0.36791  1.0000
  C   C148      1.0  0.55990  0.22851  0.35367  1.0000
  C   C149      1.0  0.48901  0.25296  0.34392  1.0000
  H   H127      1.0  0.48494  0.26610  0.31537  1.0000
  H   H128      1.0  0.54659  0.20902  0.33895  1.0000
  H   H129      1.0  0.60416  0.32341  0.36315  1.0000
  C   C150      1.0  0.70884  0.26331  0.36812  1.0000
  H   H130      1.0  0.70742  0.28013  0.36333  1.0000
  C   C151      1.0  0.65699  0.82994  0.36364  1.0000
  C   C152      1.0  0.64277  0.83569  0.43145  1.0000
  C   C153      1.0  0.61444  0.82135  0.43222  1.0000
  H   H131      1.0  0.60452  0.82592  0.48080  1.0000
  C   C154      1.0  0.65623  0.85653  0.50341  1.0000
  H   H132      1.0  0.67790  0.86657  0.50016  1.0000
  H   H133      1.0  0.65022  0.84749  0.57146  1.0000
  H   H134      1.0  0.65037  0.87167  0.49614  1.0000
  N   N22       1.0  0.68389  0.84557  0.35882  1.0000
  C   C155      1.0  0.65751  0.42214  0.37378  1.0000
  C   C156      1.0  0.65760  0.40008  0.41322  1.0000
  C   C157      1.0  0.63401  0.37512  0.42289  1.0000
  H   H135      1.0  0.67511  0.40274  0.44043  1.0000
  C   C158      1.0  0.63595  0.35614  0.48755  1.0000
  H   H136      1.0  0.64819  0.36663  0.54726  1.0000
  H   H137      1.0  0.64508  0.34599  0.45282  1.0000
  H   H138      1.0  0.61660  0.34143  0.51497  1.0000
  N   N23       1.0  0.68125  0.44509  0.36794  1.0000
  C   C159      1.0  0.60869  0.23476  0.37392  1.0000
  C   C160      1.0  0.63074  0.25690  0.41348  1.0000
  C   C161      1.0  0.65570  0.25825  0.42322  1.0000
  H   H139      1.0  0.62809  0.27175  0.44064  1.0000
  C   C162      1.0  0.67470  0.27920  0.48772  1.0000
  H   H140      1.0  0.66423  0.28098  0.54742  1.0000
  H   H141      1.0  0.68484  0.29846  0.45285  1.0000
  H   H142      1.0  0.68942  0.27458  0.51514  1.0000
  N   N24       1.0  0.58575  0.23556  0.36804  1.0000
  C   C163      1.0  0.80819  0.58854  0.36804  1.0000
  C   C164      1.0  0.82778  0.60282  0.30050  1.0000
  C   C165      1.0  0.84200  0.63119  0.29660  1.0000
  H   H143      1.0  0.83103  0.59220  0.25112  1.0000
  C   C166      1.0  0.86109  0.64467  0.21992  1.0000
  H   H144      1.0  0.86150  0.63060  0.17087  1.0000
  H   H145      1.0  0.88120  0.65676  0.24719  1.0000
  H   H146      1.0  0.85560  0.65750  0.18224  1.0000
  N   N25       1.0  0.79273  0.56168  0.37082  1.0000
  C   C167      1.0  0.81179  0.22264  0.36807  1.0000
  C   C168      1.0  0.80650  0.20307  0.30047  1.0000
  C   C169      1.0  0.82065  0.18885  0.29660  1.0000
  H   H147      1.0  0.79262  0.19982  0.25109  1.0000
  C   C170      1.0  0.81504  0.16977  0.21988  1.0000
  H   H148      1.0  0.80057  0.16937  0.17079  1.0000
  H   H149      1.0  0.80702  0.14966  0.24709  1.0000
  H   H150      1.0  0.83338  0.17527  0.18224  1.0000
  N   N26       1.0  0.80039  0.23810  0.37085  1.0000
  C   C171      1.0  0.83620  0.03809  0.35007  1.0000
  C   C172      1.0  0.84130  0.02429  0.27868  1.0000
  C   C173      1.0  0.82885  0.99601  0.28105  1.0000
  H   H151      1.0  0.83278  0.98637  0.22955  1.0000
  C   C174      1.0  0.85874  0.03796  0.19827  1.0000
  H   H152      1.0  0.86604  0.05929  0.19641  1.0000
  H   H153      1.0  0.84767  0.02954  0.13462  1.0000
  H   H154      1.0  0.87593  0.03501  0.19941  1.0000
  N   N27       1.0  0.84673  0.06497  0.35041  1.0000
  C   C175      1.0  0.99275  0.79750  0.35007  1.0000
  C   C176      1.0  0.00655  0.81642  0.27870  1.0000
  C   C177      1.0  0.99288  0.82018  0.19829  1.0000
  H   H155      1.0  0.97155  0.80616  0.19644  1.0000
  H   H156      1.0  0.00130  0.81754  0.13463  1.0000
  H   H157      1.0  0.99583  0.84033  0.19943  1.0000
  N   N28       1.0  0.96587  0.78115  0.35041  1.0000
  C   C178      1.0  0.80818  0.82551  0.35007  1.0000
  C   C179      1.0  0.82709  0.83063  0.27870  1.0000
  C   C180      1.0  0.84292  0.81817  0.28105  1.0000
  H   H158      1.0  0.85649  0.82210  0.22957  1.0000
  C   C181      1.0  0.83085  0.84806  0.19828  1.0000
  H   H159      1.0  0.81683  0.85536  0.19643  1.0000
  H   H160      1.0  0.82820  0.83699  0.13462  1.0000
  H   H161      1.0  0.85100  0.86525  0.19941  1.0000
  N   N29       1.0  0.79183  0.83604  0.35041  1.0000
  C   C182      1.0  0.00669  0.18789  0.28112  1.0000
  H   H162      1.0  0.99705  0.17432  0.22965  1.0000
  C   C183      1.0  0.79274  0.42121  0.38227  1.0000
  C   C184      1.0  0.81598  0.42164  0.34674  1.0000
  C   C185      1.0  0.81742  0.39783  0.34399  1.0000
  H   H163      1.0  0.83367  0.39797  0.31553  1.0000
  C   C186      1.0  0.83887  0.44587  0.30614  1.0000
  H   H164      1.0  0.83692  0.46357  0.31134  1.0000
  H   H165      1.0  0.84081  0.44244  0.23341  1.0000
  H   H166      1.0  0.85723  0.45017  0.34150  1.0000
  N   N30       1.0  0.79023  0.44346  0.36995  1.0000
  C   C187      1.0  0.73068  0.85942  0.36143  1.0000
  C   C188      1.0  0.74987  0.85089  0.35815  1.0000
  C   C189      1.0  0.77782  0.86892  0.35837  1.0000
  C   C190      1.0  0.78636  0.89663  0.36143  1.0000
  C   C191      1.0  0.76832  0.90649  0.36483  1.0000
  C   C192      1.0  0.74061  0.88734  0.36502  1.0000
  H   H167      1.0  0.80637  0.91011  0.36352  1.0000
  H   H168      1.0  0.72721  0.89395  0.36936  1.0000
  H   H169      1.0  0.74327  0.83087  0.35707  1.0000
  C   C193      1.0  0.79690  0.86039  0.35902  1.0000
  C   C194      1.0  0.77687  0.93389  0.37509  1.0000
  H   H170      1.0  0.76437  0.93851  0.40576  1.0000
  H   H171      1.0  0.81595  0.87425  0.36711  1.0000
  C   C195      1.0  0.88134  0.72000  0.36139  1.0000
  C   C196      1.0  0.90905  0.73919  0.35814  1.0000
  C   C197      1.0  0.91899  0.76714  0.35837  1.0000
  C   C198      1.0  0.89980  0.77568  0.36142  1.0000
  C   C199      1.0  0.87190  0.75764  0.36483  1.0000
  C   C200      1.0  0.86334  0.72993  0.36500  1.0000
  H   H172      1.0  0.90634  0.79569  0.36352  1.0000
  H   H173      1.0  0.84334  0.71653  0.36937  1.0000
  H   H174      1.0  0.92248  0.73259  0.35707  1.0000
  C   C201      1.0  0.94658  0.78622  0.35902  1.0000
  C   C202      1.0  0.85306  0.76618  0.37510  1.0000
  C   C203      1.0  0.87282  0.69245  0.36585  1.0000
  H   H175      1.0  0.88656  0.68732  0.37787  1.0000
  H   H176      1.0  0.83594  0.75369  0.40578  1.0000
  H   H177      1.0  0.95178  0.80527  0.36711  1.0000
  C   C204      1.0  0.87010  0.14949  0.36143  1.0000
  C   C205      1.0  0.86158  0.12179  0.35814  1.0000
  C   C206      1.0  0.87960  0.11185  0.35835  1.0000
  C   C207      1.0  0.90732  0.13104  0.36142  1.0000
  C   C208      1.0  0.91717  0.15894  0.36489  1.0000
  C   C209      1.0  0.89802  0.16750  0.36501  1.0000
  H   H178      1.0  0.92080  0.12450  0.36353  1.0000
  H   H179      1.0  0.90463  0.18750  0.36936  1.0000
  H   H180      1.0  0.84155  0.10835  0.35709  1.0000
  C   C210      1.0  0.87108  0.08426  0.35903  1.0000
  C   C211      1.0  0.94457  0.17779  0.37507  1.0000
  C   C212      1.0  0.85107  0.15802  0.36582  1.0000
  H   H181      1.0  0.83219  0.14427  0.37775  1.0000
  H   H182      1.0  0.94920  0.19492  0.40563  1.0000
  H   H183      1.0  0.88494  0.07906  0.36713  1.0000
  C   C213      1.0  0.77557  0.51476  0.35348  1.0000
  C   C214      1.0  0.78258  0.49438  0.35925  1.0000
  C   C215      1.0  0.76304  0.46692  0.36410  1.0000
  C   C216      1.0  0.73601  0.46047  0.36545  1.0000
  C   C217      1.0  0.72769  0.47952  0.35812  1.0000
  C   C218      1.0  0.74795  0.50665  0.35141  1.0000
  H   H184      1.0  0.74240  0.52080  0.34459  1.0000
  H   H185      1.0  0.80226  0.49955  0.35860  1.0000
  C   C219      1.0  0.76753  0.44494  0.36810  1.0000
  C   C220      1.0  0.79539  0.54183  0.34393  1.0000
  H   H186      1.0  0.81261  0.54590  0.31537  1.0000
  H   H187      1.0  0.75070  0.42668  0.36333  1.0000
  C   C221      1.0  0.77064  0.25527  0.35352  1.0000
  C   C222      1.0  0.74325  0.24826  0.35928  1.0000
  C   C223      1.0  0.73532  0.26780  0.36413  1.0000
  C   C224      1.0  0.75589  0.29483  0.36547  1.0000
  C   C225      1.0  0.78326  0.30315  0.35812  1.0000
  C   C226      1.0  0.79014  0.28289  0.35141  1.0000
  H   H188      1.0  0.75064  0.30925  0.36930  1.0000
  H   H189      1.0  0.80984  0.28845  0.34456  1.0000
  H   H190      1.0  0.72874  0.22858  0.35863  1.0000
  C   C227      1.0  0.80232  0.33079  0.35363  1.0000
  C   C228      1.0  0.77788  0.23545  0.34393  1.0000
  H   H191      1.0  0.76473  0.21824  0.31535  1.0000
  H   H192      1.0  0.82181  0.33697  0.33887  1.0000
  C   C229      1.0  0.83713  0.64631  0.36362  1.0000
  C   C230      1.0  0.81716  0.63209  0.43143  1.0000
  C   C231      1.0  0.80316  0.60376  0.43221  1.0000
  H   H193      1.0  0.78868  0.59385  0.48080  1.0000
  C   C232      1.0  0.80979  0.64556  0.50340  1.0000
  H   H194      1.0  0.82143  0.66723  0.50015  1.0000
  H   H195      1.0  0.81283  0.63955  0.57146  1.0000
  H   H196      1.0  0.78880  0.63971  0.49615  1.0000
  N   N31       1.0  0.84841  0.67322  0.35877  1.0000
  C   C233      1.0  0.84061  0.19370  0.36365  1.0000
  C   C234      1.0  0.84636  0.21367  0.43149  1.0000
  C   C235      1.0  0.83202  0.22766  0.43227  1.0000
  H   H197      1.0  0.83659  0.24214  0.48088  1.0000
  C   C236      1.0  0.86719  0.22103  0.50349  1.0000
  H   H198      1.0  0.87722  0.20939  0.50024  1.0000
  H   H199      1.0  0.85813  0.21799  0.57153  1.0000
  H   H200      1.0  0.88232  0.24202  0.49627  1.0000
  N   N32       1.0  0.85624  0.18243  0.35883  1.0000
  C   C237      1.0  0.81032  0.98036  0.34952  1.0000
  C   C238      1.0  0.80516  0.99427  0.41897  1.0000
  C   C239      1.0  0.81762  0.02257  0.42014  1.0000
  H   H201      1.0  0.79215  0.98347  0.47035  1.0000
  C   C240      1.0  0.81118  0.03580  0.49560  1.0000
  H   H202      1.0  0.79680  0.02161  0.54463  1.0000
  H   H203      1.0  0.80276  0.04738  0.46680  1.0000
  H   H204      1.0  0.82930  0.04916  0.53341  1.0000
  N   N33       1.0  0.79923  0.95348  0.34577  1.0000
  C   C241      1.0  0.00827  0.79443  0.42010  1.0000
  C   C242      1.0  0.99504  0.77476  0.49553  1.0000
  H   H205      1.0  0.00923  0.77456  0.54455  1.0000
  H   H206      1.0  0.98346  0.75476  0.46671  1.0000
  H   H207      1.0  0.98168  0.77951  0.53337  1.0000
  C   C243      1.0  0.84003  0.79963  0.34951  1.0000
  C   C244      1.0  0.82096  0.79447  0.41896  1.0000
  C   C245      1.0  0.80512  0.80693  0.42012  1.0000
  H   H208      1.0  0.81875  0.78146  0.47033  1.0000
  C   C246      1.0  0.78545  0.80049  0.49557  1.0000
  H   H209      1.0  0.78526  0.78610  0.54460  1.0000
  H   H210      1.0  0.76545  0.79207  0.46676  1.0000
  H   H211      1.0  0.79020  0.81860  0.53339  1.0000
  N   N34       1.0  0.85583  0.78855  0.34577  1.0000
  C   C247      1.0  0.99104  0.19080  0.34954  1.0000
  C   C248      1.0  0.00495  0.20989  0.41894  1.0000
  H   H212      1.0  0.99415  0.21211  0.47029  1.0000
  N   N35       1.0  0.96416  0.17499  0.34583  1.0000
  C   C249      1.0  0.79607  0.37333  0.37386  1.0000
  C   C250      1.0  0.77393  0.37325  0.41342  1.0000
  C   C251      1.0  0.77259  0.39685  0.42325  1.0000
  H   H213      1.0  0.75909  0.35575  0.44065  1.0000
  C   C252      1.0  0.75164  0.39491  0.48774  1.0000
  H   H214      1.0  0.74988  0.38266  0.54746  1.0000
  H   H215      1.0  0.73238  0.38577  0.45289  1.0000
  H   H216      1.0  0.75626  0.41425  0.51513  1.0000
  N   N36       1.0  0.79526  0.34958  0.36799  1.0000
