data_image0
_chemical_formula_structural       C4NH2NH2C4NH2NH2C4NH2NH2C4NH2NH2C4NH2NH2C4NH2NH2C2NH2NH2C2NH2NH2C2NH2NH2C2NH2NH2C2NH2NH2C2NH2NH2C2NH2NH2C2NH2NH2C2NH2NH2C2NH2NH2C2NH2NH2C2NH2NH2C4NH2NH2C4NH2NH2C4NH2NH2C4NH2NH2C4NH2NH2C4NH2NH2C2NH2NH2C2NH2NH2C2NH2NH2C2NH2NH2C2NH2NH2C2NH2NH2C2NH2NH2C2NH2NH2C2NH2NH2C2NH2NH2C2NH2NH2C2NH2NH2C4NH2NH2C4NH2NH2C4NH2NH2C4NH2NH2C4NH2NH2C4NH2NH2C2NH2NH2C2NH2NH2C2NH2NH2C2NH2NH2C2NH2NH2C2NH2NH2C4NH2NH2C4NH2NH2C4NH2NH2C4NH2NH2C4NH2NH2C4NH2NH2CNCNCNCNCNCNCNCNCNCNCNCNCNCNCNCNCNCNCNCNCNCNCNCNCNCNCNCNCNCNCNCNCNCNCNCNCNCNCNCNCNCNCNCNCNCNCNCNCNCNCNCNCNCNCNCNCNCNCNCNCNCNCNCNCNCNCNCNCNCNCNCNCNCNCNCNCNCNCNCNCNCNCNCNCNCNCNCNCNCNCNCNCNCNCNCNCNCNCNCNCNCNCNCNCNCNCNCNC2NH2NH2C2NH2NH2C2NH2NH2C2NH2NH2C2NH2NH2C2NH2NH2C4NH2NH2C4NH2NH2C4NH2NH2C4NH2NH2C4NH2NH2C4NH2NH2C4NH2NH2C4NH2NH2C4NH2NH2C4NH2NH2C4NH2NH2C4NH2NH2C2NH2NH2C2NH2NH2C2NH2NH2C2NH2NH2C2NH2NH2C2NH2NH2C4NH2NH2C4NH2NH2C4NH2NH2C4NH2NH2C4NH2NH2C4NH2NH2C4NH2NH2C4NH2NH2C4NH2NH2C4NH2NH2C4NH2NH2C4NH2NH2C2NH2NH2C2NH2NH2C2NH2NH2C2NH2NH2C2NH2NH2C2NH2NH2C4NH2NH2C4NH2NH2C4NH2NH2C4NH2NH2C4NH2NH2C4NH2NH2C2NH2NH2C2NH2NH2C2NH2NH2C2NH2NH2C2NH2NH2C2NH2NH2
_chemical_formula_sum              "C432 N324 H432"
_cell_length_a       67.4169
_cell_length_b       67.417
_cell_length_c       14.8852
_cell_angle_alpha    90
_cell_angle_beta     90
_cell_angle_gamma    120

_space_group_name_H-M_alt    "P 1"
_space_group_IT_number       1

loop_
  _space_group_symop_operation_xyz
  'x, y, z'

loop_
  _atom_site_type_symbol
  _atom_site_label
  _atom_site_symmetry_multiplicity
  _atom_site_fract_x
  _atom_site_fract_y
  _atom_site_fract_z
  _atom_site_occupancy
  C   C1        1.0  0.12865  0.31936  0.33983  1.0000
  C   C2        1.0  0.12765  0.32930  0.25639  1.0000
  C   C3        1.0  0.12767  0.35055  0.25631  1.0000
  C   C4        1.0  0.12836  0.36138  0.33969  1.0000
  N   N1        1.0  0.12746  0.36123  0.17812  1.0000
  H   H1        1.0  0.12749  0.35536  0.11907  1.0000
  H   H2        1.0  0.12600  0.37486  0.17821  1.0000
  N   N2        1.0  0.12699  0.31816  0.17832  1.0000
  H   H3        1.0  0.12557  0.30309  0.17866  1.0000
  H   H4        1.0  0.12594  0.32351  0.11941  1.0000
  C   C5        1.0  0.69034  0.81125  0.34118  1.0000
  C   C6        1.0  0.68082  0.80038  0.25732  1.0000
  C   C7        1.0  0.65894  0.77988  0.25578  1.0000
  C   C8        1.0  0.64818  0.76896  0.33828  1.0000
  N   N3        1.0  0.64772  0.77077  0.17642  1.0000
  H   H5        1.0  0.65270  0.77873  0.11962  1.0000
  H   H6        1.0  0.63335  0.75633  0.17395  1.0000
  N   N4        1.0  0.69293  0.80999  0.18009  1.0000
  H   H7        1.0  0.70836  0.82309  0.18170  1.0000
  H   H8        1.0  0.68859  0.80221  0.12277  1.0000
  C   C9        1.0  0.19838  0.88100  0.33859  1.0000
  C   C10       1.0  0.20903  0.88089  0.25573  1.0000
  C   C11       1.0  0.23099  0.88244  0.25682  1.0000
  C   C12       1.0  0.24074  0.88125  0.34038  1.0000
  N   N5        1.0  0.24300  0.88493  0.17927  1.0000
  H   H9        1.0  0.23859  0.88846  0.12228  1.0000
  H   H10       1.0  0.25853  0.88753  0.18090  1.0000
  N   N6        1.0  0.19770  0.87871  0.17657  1.0000
  H   H11       1.0  0.18330  0.87871  0.17436  1.0000
  H   H12       1.0  0.20267  0.87580  0.11962  1.0000
  C   C13       1.0  0.88289  0.68832  0.33855  1.0000
  C   C14       1.0  0.88306  0.67775  0.25563  1.0000
  C   C15       1.0  0.88445  0.65724  0.25659  1.0000
  C   C16       1.0  0.88317  0.64627  0.34014  1.0000
  N   N7        1.0  0.88687  0.64767  0.17910  1.0000
  H   H13       1.0  0.89008  0.65534  0.12163  1.0000
  H   H14       1.0  0.88922  0.63457  0.18048  1.0000
  N   N8        1.0  0.88128  0.68720  0.17661  1.0000
  H   H15       1.0  0.88144  0.70168  0.17475  1.0000
  H   H16       1.0  0.87883  0.67964  0.11913  1.0000
  C   C17       1.0  0.32137  0.19650  0.33971  1.0000
  C   C18       1.0  0.33135  0.20741  0.25627  1.0000
  C   C19       1.0  0.35256  0.22870  0.25623  1.0000
  C   C20       1.0  0.36336  0.23883  0.33963  1.0000
  N   N9        1.0  0.36320  0.23964  0.17808  1.0000
  H   H17       1.0  0.35727  0.23381  0.11902  1.0000
  H   H18       1.0  0.37679  0.25475  0.17825  1.0000
  N   N10       1.0  0.32028  0.19687  0.17816  1.0000
  H   H19       1.0  0.30523  0.18319  0.17843  1.0000
  H   H20       1.0  0.32573  0.20319  0.11921  1.0000
  C   C21       1.0  0.81316  0.12676  0.34094  1.0000
  C   C22       1.0  0.80218  0.12523  0.25716  1.0000
  C   C23       1.0  0.78169  0.12663  0.25566  1.0000
  C   C24       1.0  0.77085  0.12659  0.33820  1.0000
  N   N11       1.0  0.77252  0.12863  0.17629  1.0000
  H   H21       1.0  0.78044  0.13154  0.11943  1.0000
  H   H22       1.0  0.75809  0.12859  0.17387  1.0000
  N   N12       1.0  0.81169  0.12258  0.17994  1.0000
  H   H23       1.0  0.82480  0.12026  0.18153  1.0000
  H   H24       1.0  0.80383  0.11901  0.12277  1.0000
  C   C25       1.0  0.35256  0.12604  0.25996  1.0000
  C   C26       1.0  0.33077  0.12487  0.26079  1.0000
  N   N13       1.0  0.36362  0.12739  0.18091  1.0000
  H   H25       1.0  0.37788  0.12710  0.17920  1.0000
  H   H26       1.0  0.35849  0.12970  0.12325  1.0000
  N   N14       1.0  0.31865  0.12214  0.18335  1.0000
  H   H27       1.0  0.30330  0.12000  0.18458  1.0000
  H   H28       1.0  0.32293  0.11849  0.12635  1.0000
  C   C27       1.0  0.78153  0.65690  0.25980  1.0000
  C   C28       1.0  0.80206  0.67876  0.26085  1.0000
  N   N15       1.0  0.77222  0.64567  0.18065  1.0000
  H   H29       1.0  0.75772  0.63136  0.17852  1.0000
  H   H30       1.0  0.78003  0.65063  0.12357  1.0000
  N   N16       1.0  0.81149  0.69082  0.18334  1.0000
  H   H31       1.0  0.82454  0.70629  0.18489  1.0000
  H   H32       1.0  0.80353  0.68653  0.12642  1.0000
  C   C29       1.0  0.88291  0.22803  0.25944  1.0000
  C   C30       1.0  0.88434  0.20755  0.26039  1.0000
  N   N17       1.0  0.88077  0.23721  0.18033  1.0000
  H   H33       1.0  0.88087  0.25167  0.17816  1.0000
  H   H34       1.0  0.87776  0.22930  0.12341  1.0000
  N   N18       1.0  0.88696  0.19814  0.18279  1.0000
  H   H35       1.0  0.88948  0.18516  0.18422  1.0000
  H   H36       1.0  0.89072  0.20624  0.12613  1.0000
  C   C31       1.0  0.65916  0.88271  0.26119  1.0000
  C   C32       1.0  0.67957  0.88116  0.25937  1.0000
  N   N19       1.0  0.64969  0.88551  0.18413  1.0000
  H   H37       1.0  0.63673  0.88806  0.18624  1.0000
  H   H38       1.0  0.65769  0.88930  0.12726  1.0000
  N   N20       1.0  0.68871  0.87921  0.17982  1.0000
  H   H39       1.0  0.70311  0.87920  0.17716  1.0000
  H   H40       1.0  0.68084  0.87650  0.12292  1.0000
  C   C33       1.0  0.23030  0.35054  0.25994  1.0000
  C   C34       1.0  0.20972  0.32871  0.26099  1.0000
  N   N21       1.0  0.23990  0.36159  0.18078  1.0000
  H   H41       1.0  0.25441  0.37589  0.17888  1.0000
  H   H42       1.0  0.23234  0.35646  0.12331  1.0000
  N   N22       1.0  0.20041  0.31651  0.18366  1.0000
  H   H43       1.0  0.18721  0.30114  0.18500  1.0000
  H   H44       1.0  0.20843  0.32073  0.12682  1.0000
  C   C35       1.0  0.12858  0.77967  0.25983  1.0000
  C   C36       1.0  0.12724  0.80020  0.26084  1.0000
  N   N23       1.0  0.13056  0.77038  0.18071  1.0000
  H   H45       1.0  0.13037  0.75589  0.17859  1.0000
  H   H46       1.0  0.13346  0.77822  0.12365  1.0000
  N   N24       1.0  0.12465  0.80964  0.18328  1.0000
  H   H47       1.0  0.12222  0.82268  0.18476  1.0000
  H   H48       1.0  0.12101  0.80168  0.12633  1.0000
  C   C37       1.0  0.20925  0.43110  0.25853  1.0000
  C   C38       1.0  0.23119  0.43268  0.26066  1.0000
  N   N25       1.0  0.19821  0.42915  0.17885  1.0000
  H   H49       1.0  0.18379  0.42911  0.17601  1.0000
  H   H50       1.0  0.20342  0.42646  0.12203  1.0000
  N   N26       1.0  0.24356  0.43556  0.18381  1.0000
  H   H51       1.0  0.25907  0.43814  0.18621  1.0000
  H   H52       1.0  0.23942  0.43942  0.12693  1.0000
  C   C39       1.0  0.57677  0.77860  0.25980  1.0000
  C   C40       1.0  0.57830  0.80053  0.25876  1.0000
  N   N27       1.0  0.57376  0.76636  0.18248  1.0000
  H   H53       1.0  0.57122  0.75086  0.18422  1.0000
  H   H54       1.0  0.56976  0.77058  0.12605  1.0000
  N   N28       1.0  0.58016  0.81173  0.17959  1.0000
  H   H55       1.0  0.58022  0.82616  0.17753  1.0000
  H   H56       1.0  0.58281  0.80663  0.12240  1.0000
  C   C41       1.0  0.23106  0.79989  0.26017  1.0000
  C   C42       1.0  0.20917  0.77946  0.25943  1.0000
  N   N29       1.0  0.24334  0.80898  0.18282  1.0000
  H   H57       1.0  0.25876  0.82209  0.18408  1.0000
  H   H58       1.0  0.23912  0.80080  0.12630  1.0000
  N   N30       1.0  0.19804  0.76986  0.18040  1.0000
  H   H59       1.0  0.18362  0.75546  0.17870  1.0000
  H   H60       1.0  0.20319  0.77738  0.12286  1.0000
  C   C43       1.0  0.80204  0.57502  0.25966  1.0000
  C   C44       1.0  0.78166  0.57657  0.25898  1.0000
  N   N31       1.0  0.81124  0.57207  0.18214  1.0000
  H   H61       1.0  0.82427  0.56962  0.18330  1.0000
  H   H62       1.0  0.80317  0.56836  0.12539  1.0000
  N   N32       1.0  0.77230  0.57850  0.17996  1.0000
  H   H63       1.0  0.75793  0.57856  0.17810  1.0000
  H   H64       1.0  0.78005  0.58126  0.12275  1.0000
  C   C45       1.0  0.43309  0.22767  0.25849  1.0000
  C   C46       1.0  0.43469  0.20733  0.26064  1.0000
  N   N33       1.0  0.43113  0.23676  0.17880  1.0000
  H   H65       1.0  0.43108  0.25113  0.17595  1.0000
  H   H66       1.0  0.42844  0.22885  0.12199  1.0000
  N   N34       1.0  0.43758  0.19784  0.18380  1.0000
  H   H67       1.0  0.44017  0.18491  0.18621  1.0000
  H   H68       1.0  0.44145  0.20584  0.12692  1.0000
  C   C47       1.0  0.78063  0.20758  0.25958  1.0000
  C   C48       1.0  0.80258  0.22792  0.25871  1.0000
  N   N35       1.0  0.76847  0.19831  0.18213  1.0000
  H   H69       1.0  0.75294  0.18538  0.18373  1.0000
  H   H70       1.0  0.77277  0.20649  0.12562  1.0000
  N   N36       1.0  0.81390  0.23716  0.17966  1.0000
  H   H71       1.0  0.82836  0.25150  0.17766  1.0000
  H   H72       1.0  0.80888  0.22935  0.12257  1.0000
  C   C49       1.0  0.12784  0.43383  0.34067  1.0000
  C   C50       1.0  0.12281  0.44082  0.25708  1.0000
  C   C51       1.0  0.11103  0.45360  0.25704  1.0000
  C   C52       1.0  0.10582  0.46046  0.34059  1.0000
  N   N37       1.0  0.10396  0.45865  0.17808  1.0000
  H   H73       1.0  0.10409  0.45178  0.12130  1.0000
  H   H74       1.0  0.09633  0.46761  0.17608  1.0000
  N   N38       1.0  0.12991  0.43577  0.17819  1.0000
  H   H75       1.0  0.13795  0.42721  0.17647  1.0000
  H   H76       1.0  0.12977  0.44264  0.12141  1.0000
  C   C53       1.0  0.57580  0.69592  0.34002  1.0000
  C   C54       1.0  0.56877  0.68388  0.25648  1.0000
  C   C55       1.0  0.55597  0.65932  0.25655  1.0000
  C   C56       1.0  0.54918  0.64728  0.34017  1.0000
  N   N39       1.0  0.55083  0.64716  0.17768  1.0000
  H   H77       1.0  0.55752  0.65413  0.12064  1.0000
  H   H78       1.0  0.54180  0.63057  0.17575  1.0000
  N   N40       1.0  0.57381  0.69602  0.17759  1.0000
  H   H79       1.0  0.58242  0.71263  0.17573  1.0000
  H   H80       1.0  0.56699  0.68901  0.12076  1.0000
  C   C57       1.0  0.31372  0.88179  0.33878  1.0000
  C   C58       1.0  0.32582  0.88681  0.25537  1.0000
  C   C59       1.0  0.35037  0.89857  0.25569  1.0000
  C   C60       1.0  0.36237  0.90381  0.33941  1.0000
  N   N41       1.0  0.36258  0.90561  0.17692  1.0000
  H   H81       1.0  0.35563  0.90543  0.11993  1.0000
  H   H82       1.0  0.37917  0.91323  0.17519  1.0000
  N   N42       1.0  0.31372  0.87971  0.17637  1.0000
  H   H83       1.0  0.29712  0.87171  0.17434  1.0000
  H   H84       1.0  0.32077  0.87989  0.11964  1.0000
  C   C61       1.0  0.88373  0.57386  0.33905  1.0000
  C   C62       1.0  0.88877  0.56680  0.25562  1.0000
  C   C63       1.0  0.90054  0.55402  0.25593  1.0000
  C   C64       1.0  0.90578  0.54725  0.33963  1.0000
  N   N43       1.0  0.90761  0.54890  0.17714  1.0000
  H   H85       1.0  0.90745  0.55568  0.12019  1.0000
  H   H86       1.0  0.91525  0.53994  0.17537  1.0000
  N   N44       1.0  0.88167  0.57179  0.17663  1.0000
  H   H87       1.0  0.87365  0.58038  0.17461  1.0000
  H   H88       1.0  0.88185  0.56492  0.11990  1.0000
  C   C65       1.0  0.43580  0.31180  0.34067  1.0000
  C   C66       1.0  0.44279  0.32382  0.25707  1.0000
  C   C67       1.0  0.45555  0.34838  0.25702  1.0000
  C   C68       1.0  0.46241  0.36044  0.34058  1.0000
  N   N45       1.0  0.46060  0.36050  0.17807  1.0000
  H   H89       1.0  0.45373  0.35349  0.12128  1.0000
  H   H90       1.0  0.46956  0.37709  0.17606  1.0000
  N   N46       1.0  0.43773  0.31167  0.17819  1.0000
  H   H91       1.0  0.42917  0.29506  0.17647  1.0000
  H   H92       1.0  0.44460  0.31867  0.12140  1.0000
  C   C69       1.0  0.69782  0.12593  0.33998  1.0000
  C   C70       1.0  0.68578  0.12091  0.25644  1.0000
  C   C71       1.0  0.66122  0.10914  0.25651  1.0000
  C   C72       1.0  0.64918  0.10387  0.34013  1.0000
  N   N47       1.0  0.64906  0.10211  0.17764  1.0000
  H   H93       1.0  0.65603  0.10239  0.12060  1.0000
  H   H94       1.0  0.63247  0.09452  0.17571  1.0000
  N   N48       1.0  0.69792  0.12802  0.17755  1.0000
  H   H95       1.0  0.71453  0.13604  0.17569  1.0000
  H   H96       1.0  0.69091  0.12782  0.12071  1.0000
  C   C73       1.0  0.45567  0.10922  0.25850  1.0000
  C   C74       1.0  0.44290  0.12100  0.25867  1.0000
  N   N49       1.0  0.46080  0.10227  0.17943  1.0000
  H   H97       1.0  0.46982  0.09469  0.17722  1.0000
  H   H98       1.0  0.45408  0.10257  0.12250  1.0000
  N   N50       1.0  0.43789  0.12819  0.17992  1.0000
  H   H99       1.0  0.42932  0.13623  0.17831  1.0000
  H   H100      1.0  0.44485  0.12817  0.12322  1.0000
  C   C75       1.0  0.66134  0.55402  0.25955  1.0000
  C   C76       1.0  0.68589  0.56682  0.25996  1.0000
  N   N51       1.0  0.64930  0.54889  0.18036  1.0000
  H   H101      1.0  0.63271  0.53988  0.17805  1.0000
  H   H102      1.0  0.65636  0.55569  0.12357  1.0000
  N   N52       1.0  0.69814  0.57189  0.18132  1.0000
  H   H103      1.0  0.71474  0.58054  0.17976  1.0000
  H   H104      1.0  0.69121  0.56506  0.12439  1.0000
  C   C77       1.0  0.90039  0.34831  0.25960  1.0000
  C   C78       1.0  0.88866  0.32376  0.26004  1.0000
  N   N53       1.0  0.90726  0.36036  0.18044  1.0000
  H   H105      1.0  0.91477  0.37695  0.17812  1.0000
  H   H106      1.0  0.90689  0.35333  0.12347  1.0000
  N   N54       1.0  0.88153  0.31150  0.18141  1.0000
  H   H107      1.0  0.87360  0.29489  0.17989  1.0000
  H   H108      1.0  0.88168  0.31841  0.12439  1.0000
  C   C79       1.0  0.55592  0.89848  0.25859  1.0000
  C   C80       1.0  0.56874  0.88673  0.25872  1.0000
  N   N55       1.0  0.55076  0.90542  0.17956  1.0000
  H   H109      1.0  0.54171  0.91295  0.17739  1.0000
  H   H110      1.0  0.55746  0.90511  0.12257  1.0000
  N   N56       1.0  0.57381  0.87962  0.17993  1.0000
  H   H111      1.0  0.58245  0.87165  0.17829  1.0000
  H   H112      1.0  0.56696  0.87972  0.12308  1.0000
  C   C81       1.0  0.35028  0.45371  0.25851  1.0000
  C   C82       1.0  0.32572  0.44092  0.25868  1.0000
  N   N57       1.0  0.36236  0.45886  0.17944  1.0000
  H   H113      1.0  0.37895  0.46789  0.17722  1.0000
  H   H114      1.0  0.35534  0.45213  0.12251  1.0000
  N   N58       1.0  0.31353  0.43590  0.17993  1.0000
  H   H115      1.0  0.29692  0.42732  0.17831  1.0000
  H   H116      1.0  0.32050  0.44287  0.12324  1.0000
  C   C83       1.0  0.11115  0.65941  0.25920  1.0000
  C   C84       1.0  0.12289  0.68396  0.25957  1.0000
  N   N59       1.0  0.10425  0.64736  0.18003  1.0000
  H   H117      1.0  0.09668  0.63078  0.17774  1.0000
  H   H118      1.0  0.10451  0.65441  0.12322  1.0000
  N   N60       1.0  0.13007  0.69621  0.18093  1.0000
  H   H119      1.0  0.13801  0.71281  0.17935  1.0000
  H   H120      1.0  0.12997  0.68927  0.12400  1.0000
  C   C85       1.0  0.10763  0.20913  0.25660  1.0000
  C   C86       1.0  0.12134  0.23366  0.25654  1.0000
  N   N61       1.0  0.09923  0.19726  0.17784  1.0000
  H   H121      1.0  0.08972  0.18071  0.17604  1.0000
  H   H122      1.0  0.09962  0.20476  0.12193  1.0000
  N   N62       1.0  0.12963  0.24553  0.17771  1.0000
  H   H123      1.0  0.13915  0.26208  0.17587  1.0000
  H   H124      1.0  0.12915  0.23802  0.12170  1.0000
  C   C87       1.0  0.80051  0.90041  0.25766  1.0000
  C   C88       1.0  0.77599  0.88960  0.25771  1.0000
  N   N63       1.0  0.81237  0.90386  0.17885  1.0000
  H   H125      1.0  0.82892  0.91092  0.17696  1.0000
  H   H126      1.0  0.80485  0.89672  0.12300  1.0000
  N   N64       1.0  0.76411  0.88597  0.17886  1.0000
  H   H127      1.0  0.74756  0.87896  0.17720  1.0000
  H   H128      1.0  0.77159  0.89301  0.12285  1.0000
  C   C89       1.0  0.10918  0.90197  0.25808  1.0000
  C   C90       1.0  0.11998  0.88825  0.25812  1.0000
  N   N65       1.0  0.10572  0.91036  0.17925  1.0000
  H   H129      1.0  0.09866  0.91985  0.17733  1.0000
  H   H130      1.0  0.11286  0.90997  0.12339  1.0000
  N   N66       1.0  0.12355  0.87994  0.17929  1.0000
  H   H131      1.0  0.13049  0.87034  0.17764  1.0000
  H   H132      1.0  0.11636  0.88029  0.12352  1.0000
  C   C91       1.0  0.90384  0.79846  0.25694  1.0000
  C   C92       1.0  0.89012  0.77394  0.25710  1.0000
  N   N67       1.0  0.91220  0.81029  0.17804  1.0000
  H   H133      1.0  0.92178  0.82683  0.17624  1.0000
  H   H134      1.0  0.91188  0.80271  0.12241  1.0000
  N   N68       1.0  0.88177  0.76203  0.17836  1.0000
  H   H135      1.0  0.87223  0.74548  0.17665  1.0000
  H   H136      1.0  0.88221  0.76952  0.12234  1.0000
  C   C93       1.0  0.21116  0.10732  0.25701  1.0000
  C   C94       1.0  0.23568  0.11814  0.25693  1.0000
  N   N69       1.0  0.19928  0.10384  0.17825  1.0000
  H   H137      1.0  0.18273  0.09678  0.17645  1.0000
  H   H138      1.0  0.20678  0.11095  0.12234  1.0000
  N   N70       1.0  0.24755  0.12172  0.17808  1.0000
  H   H139      1.0  0.26410  0.12876  0.17621  1.0000
  H   H140      1.0  0.24004  0.11468  0.12208  1.0000
  C   C95       1.0  0.90229  0.10567  0.25714  1.0000
  C   C96       1.0  0.89149  0.11939  0.25697  1.0000
  N   N71       1.0  0.90577  0.09725  0.17843  1.0000
  H   H141      1.0  0.91282  0.08775  0.17667  1.0000
  H   H142      1.0  0.89864  0.09762  0.12251  1.0000
  N   N72       1.0  0.88791  0.12765  0.17804  1.0000
  H   H143      1.0  0.88092  0.13720  0.17624  1.0000
  H   H144      1.0  0.89496  0.12718  0.12210  1.0000
  C   C97       1.0  0.09272  0.56839  0.34138  1.0000
  C   C98       1.0  0.09414  0.55872  0.25794  1.0000
  C   C99       1.0  0.09265  0.53677  0.25736  1.0000
  C   C100      1.0  0.09272  0.52623  0.34059  1.0000
  N   N73       1.0  0.09037  0.52536  0.17831  1.0000
  H   H145      1.0  0.08718  0.53020  0.12162  1.0000
  H   H146      1.0  0.08996  0.51077  0.17614  1.0000
  N   N74       1.0  0.09681  0.57065  0.18000  1.0000
  H   H147      1.0  0.09898  0.58602  0.18027  1.0000
  H   H148      1.0  0.10052  0.56623  0.12341  1.0000
  C   C101      1.0  0.44125  0.52624  0.34138  1.0000
  C   C102      1.0  0.45091  0.53734  0.25792  1.0000
  C   C103      1.0  0.47288  0.55778  0.25732  1.0000
  C   C104      1.0  0.48343  0.56841  0.34052  1.0000
  N   N75       1.0  0.48430  0.56687  0.17825  1.0000
  H   H149      1.0  0.47946  0.55880  0.12162  1.0000
  H   H150      1.0  0.49891  0.58103  0.17602  1.0000
  N   N76       1.0  0.43897  0.52811  0.17999  1.0000
  H   H151      1.0  0.42360  0.51492  0.18025  1.0000
  H   H152      1.0  0.44338  0.53626  0.12345  1.0000
  C   C105      1.0  0.48340  0.91692  0.34142  1.0000
  C   C106      1.0  0.47234  0.91554  0.25794  1.0000
  C   C107      1.0  0.45189  0.91705  0.25732  1.0000
  C   C108      1.0  0.44125  0.91694  0.34055  1.0000
  N   N77       1.0  0.44281  0.91940  0.17825  1.0000
  H   H153      1.0  0.45089  0.92265  0.12165  1.0000
  H   H154      1.0  0.42864  0.91983  0.17597  1.0000
  N   N78       1.0  0.48159  0.91288  0.17995  1.0000
  H   H155      1.0  0.49473  0.91061  0.18045  1.0000
  H   H156      1.0  0.47342  0.90910  0.12346  1.0000
  C   C109      1.0  0.91887  0.43933  0.34156  1.0000
  C   C110      1.0  0.91747  0.44899  0.25806  1.0000
  C   C111      1.0  0.91893  0.47094  0.25741  1.0000
  C   C112      1.0  0.91885  0.48147  0.34063  1.0000
  N   N79       1.0  0.92121  0.48234  0.17835  1.0000
  H   H157      1.0  0.92431  0.47746  0.12157  1.0000
  H   H158      1.0  0.92154  0.49689  0.17610  1.0000
  N   N80       1.0  0.91483  0.43706  0.18016  1.0000
  H   H159      1.0  0.91268  0.42170  0.18048  1.0000
  H   H160      1.0  0.91114  0.44147  0.12351  1.0000
  C   C113      1.0  0.57031  0.48147  0.34150  1.0000
  C   C114      1.0  0.56065  0.47040  0.25803  1.0000
  C   C115      1.0  0.53870  0.44993  0.25741  1.0000
  C   C116      1.0  0.52816  0.43932  0.34063  1.0000
  N   N81       1.0  0.52729  0.44081  0.17835  1.0000
  H   H161      1.0  0.53214  0.44884  0.12167  1.0000
  H   H162      1.0  0.51270  0.42662  0.17614  1.0000
  N   N82       1.0  0.57259  0.47966  0.18011  1.0000
  H   H163      1.0  0.58795  0.49287  0.18040  1.0000
  H   H164      1.0  0.56817  0.47154  0.12351  1.0000
  C   C117      1.0  0.52815  0.09073  0.34134  1.0000
  C   C118      1.0  0.53924  0.09217  0.25789  1.0000
  C   C119      1.0  0.55969  0.09065  0.25728  1.0000
  C   C120      1.0  0.57031  0.09072  0.34049  1.0000
  N   N83       1.0  0.56878  0.08832  0.17821  1.0000
  H   H165      1.0  0.56072  0.08510  0.12159  1.0000
  H   H166      1.0  0.58295  0.08787  0.17599  1.0000
  N   N84       1.0  0.53002  0.09489  0.17995  1.0000
  H   H167      1.0  0.51683  0.09707  0.18021  1.0000
  H   H168      1.0  0.53818  0.09864  0.12342  1.0000
  C   C121      1.0  0.01802  0.44435  0.25767  1.0000
  C   C122      1.0  0.99360  0.43068  0.25773  1.0000
  N   N85       1.0  0.02993  0.45246  0.17878  1.0000
  H   H169      1.0  0.04651  0.46161  0.17676  1.0000
  H   H170      1.0  0.02248  0.45174  0.12236  1.0000
  N   N86       1.0  0.98162  0.42212  0.17926  1.0000
  H   H171      1.0  0.96510  0.41228  0.17821  1.0000
  H   H172      1.0  0.98907  0.42242  0.12333  1.0000
  C   C123      1.0  0.56529  0.57558  0.25761  1.0000
  C   C124      1.0  0.57896  0.56483  0.25767  1.0000
  N   N87       1.0  0.55716  0.57936  0.17872  1.0000
  H   H173      1.0  0.54800  0.58678  0.17668  1.0000
  H   H174      1.0  0.55786  0.57260  0.12232  1.0000
  N   N88       1.0  0.58751  0.56141  0.17915  1.0000
  H   H175      1.0  0.59742  0.55481  0.17829  1.0000
  H   H176      1.0  0.58725  0.56860  0.12327  1.0000
  C   C125      1.0  0.43404  0.99160  0.25737  1.0000
  C   C126      1.0  0.44476  0.01603  0.25739  1.0000
  N   N89       1.0  0.43029  0.97970  0.17849  1.0000
  H   H177      1.0  0.42290  0.96312  0.17647  1.0000
  H   H178      1.0  0.43706  0.98717  0.12212  1.0000
  N   N90       1.0  0.44815  0.02798  0.17887  1.0000
  H   H179      1.0  0.45470  0.04448  0.17798  1.0000
  H   H180      1.0  0.44082  0.02047  0.12325  1.0000
  C   C127      1.0  0.99356  0.56336  0.25746  1.0000
  C   C128      1.0  0.01799  0.57704  0.25750  1.0000
  N   N91       1.0  0.98165  0.55526  0.17853  1.0000
  H   H181      1.0  0.96508  0.54603  0.17661  1.0000
  H   H182      1.0  0.98914  0.55590  0.12228  1.0000
  N   N92       1.0  0.02995  0.58562  0.17903  1.0000
  H   H183      1.0  0.04647  0.59548  0.17797  1.0000
  H   H184      1.0  0.02249  0.58534  0.12314  1.0000
  C   C129      1.0  0.44627  0.43210  0.25749  1.0000
  C   C130      1.0  0.43261  0.44286  0.25747  1.0000
  N   N93       1.0  0.45439  0.42828  0.17862  1.0000
  H   H185      1.0  0.46354  0.42085  0.17666  1.0000
  H   H186      1.0  0.45367  0.43501  0.12218  1.0000
  N   N94       1.0  0.42406  0.44627  0.17896  1.0000
  H   H187      1.0  0.41421  0.45294  0.17786  1.0000
  H   H188      1.0  0.42435  0.43911  0.12304  1.0000
  C   C131      1.0  0.57751  0.01606  0.25753  1.0000
  C   C132      1.0  0.56676  0.99163  0.25755  1.0000
  N   N95       1.0  0.58129  0.02797  0.17864  1.0000
  H   H189      1.0  0.58871  0.04455  0.17663  1.0000
  H   H190      1.0  0.57453  0.02051  0.12224  1.0000
  N   N96       1.0  0.56334  0.97967  0.17902  1.0000
  H   H191      1.0  0.55673  0.96316  0.17812  1.0000
  H   H192      1.0  0.57052  0.98713  0.12314  1.0000
  C   C133      1.0  0.12690  0.10048  0.34100  1.0000
  C   C134      1.0  0.12151  0.10722  0.25759  1.0000
  C   C135      1.0  0.10781  0.11805  0.25732  1.0000
  C   C136      1.0  0.10239  0.12487  0.34047  1.0000
  N   N97       1.0  0.09953  0.12160  0.17835  1.0000
  H   H193      1.0  0.09990  0.11442  0.12261  1.0000
  H   H194      1.0  0.08997  0.12858  0.17653  1.0000
  N   N98       1.0  0.12982  0.10360  0.17888  1.0000
  H   H195      1.0  0.13928  0.09652  0.17716  1.0000
  H   H196      1.0  0.12938  0.11062  0.12279  1.0000
  C   C137      1.0  0.90928  0.02833  0.34047  1.0000
  C   C138      1.0  0.90258  0.01619  0.25705  1.0000
  C   C139      1.0  0.89158  0.99165  0.25683  1.0000
  C   C140      1.0  0.88484  0.97943  0.34006  1.0000
  N   N99       1.0  0.88775  0.97975  0.17788  1.0000
  H   H197      1.0  0.89473  0.98720  0.12179  1.0000
  H   H198      1.0  0.88056  0.96318  0.17610  1.0000
  N   N100      1.0  0.90644  0.02817  0.17830  1.0000
  H   H199      1.0  0.91372  0.04474  0.17658  1.0000
  H   H200      1.0  0.89958  0.02079  0.12195  1.0000
  C   C141      1.0  0.98135  0.88270  0.34102  1.0000
  C   C142      1.0  0.99344  0.88916  0.25744  1.0000
  C   C143      1.0  0.01802  0.90087  0.25714  1.0000
  C   C144      1.0  0.03023  0.90741  0.34043  1.0000
  N   N101      1.0  0.03001  0.90525  0.17808  1.0000
  H   H201      1.0  0.02273  0.89846  0.12157  1.0000
  H   H202      1.0  0.04660  0.91295  0.17616  1.0000
  N   N102      1.0  0.98135  0.88471  0.17864  1.0000
  H   H203      1.0  0.96475  0.87697  0.17703  1.0000
  H   H204      1.0  0.98853  0.89140  0.12187  1.0000
  C   C145      1.0  0.88482  0.90729  0.34113  1.0000
  C   C146      1.0  0.89022  0.90056  0.25772  1.0000
  C   C147      1.0  0.90387  0.88968  0.25747  1.0000
  C   C148      1.0  0.90929  0.88285  0.34062  1.0000
  N   N103      1.0  0.91213  0.88609  0.17853  1.0000
  H   H205      1.0  0.91167  0.89313  0.12254  1.0000
  H   H206      1.0  0.92158  0.87899  0.17657  1.0000
  N   N104      1.0  0.88196  0.90423  0.17899  1.0000
  H   H207      1.0  0.87252  0.91136  0.17728  1.0000
  H   H208      1.0  0.88240  0.89724  0.12285  1.0000
  C   C149      1.0  0.10240  0.97946  0.34041  1.0000
  C   C150      1.0  0.10918  0.99160  0.25703  1.0000
  C   C151      1.0  0.12003  0.01612  0.25677  1.0000
  C   C152      1.0  0.12687  0.02836  0.33992  1.0000
  N   N105      1.0  0.12359  0.02795  0.17781  1.0000
  H   H209      1.0  0.11640  0.02041  0.12206  1.0000
  H   H210      1.0  0.13058  0.04450  0.17600  1.0000
  N   N106      1.0  0.10558  0.97967  0.17832  1.0000
  H   H211      1.0  0.09850  0.96312  0.17663  1.0000
  H   H212      1.0  0.11262  0.98713  0.12226  1.0000
  C   C153      1.0  0.03023  0.12476  0.34102  1.0000
  C   C154      1.0  0.01814  0.11910  0.25742  1.0000
  C   C155      1.0  0.99356  0.10625  0.25711  1.0000
  C   C156      1.0  0.98135  0.10056  0.34041  1.0000
  N   N107      1.0  0.98156  0.09867  0.17806  1.0000
  H   H213      1.0  0.98883  0.09919  0.12148  1.0000
  H   H214      1.0  0.96497  0.08979  0.17614  1.0000
  N   N108      1.0  0.03026  0.12672  0.17866  1.0000
  H   H215      1.0  0.04686  0.13553  0.17698  1.0000
  H   H216      1.0  0.02308  0.12616  0.12179  1.0000
  C   C157      1.0  0.17425  0.42046  0.34131  1.0000
  N   N109      1.0  0.16279  0.43228  0.34119  1.0000
  C   C158      1.0  0.13945  0.42098  0.34068  1.0000
  N   N110      1.0  0.12762  0.39757  0.34014  1.0000
  C   C159      1.0  0.13897  0.38556  0.34006  1.0000
  N   N111      1.0  0.16216  0.39728  0.34051  1.0000
  C   C160      1.0  0.58910  0.75568  0.34093  1.0000
  N   N112      1.0  0.57731  0.73240  0.34095  1.0000
  C   C161      1.0  0.58864  0.72038  0.33995  1.0000
  N   N113      1.0  0.61204  0.73198  0.33924  1.0000
  C   C162      1.0  0.62403  0.75534  0.33971  1.0000
  N   N114      1.0  0.61228  0.76678  0.34055  1.0000
  C   C163      1.0  0.25394  0.83538  0.34035  1.0000
  N   N115      1.0  0.27722  0.84684  0.33959  1.0000
  C   C164      1.0  0.28926  0.87019  0.33847  1.0000
  N   N116      1.0  0.27769  0.88202  0.33841  1.0000
  C   C165      1.0  0.25433  0.87067  0.33912  1.0000
  N   N117      1.0  0.24287  0.84748  0.34074  1.0000
  C   C166      1.0  0.83730  0.58718  0.34035  1.0000
  N   N118      1.0  0.84877  0.57538  0.33990  1.0000
  C   C167      1.0  0.87211  0.58669  0.33874  1.0000
  N   N119      1.0  0.88393  0.61010  0.33842  1.0000
  C   C168      1.0  0.87257  0.62210  0.33892  1.0000
  N   N120      1.0  0.84938  0.61036  0.34045  1.0000
  C   C169      1.0  0.42245  0.25203  0.34126  1.0000
  N   N121      1.0  0.43426  0.27531  0.34117  1.0000
  C   C170      1.0  0.42295  0.28734  0.34068  1.0000
  N   N122      1.0  0.39955  0.27576  0.34013  1.0000
  C   C171      1.0  0.38754  0.25240  0.34000  1.0000
  N   N123      1.0  0.39927  0.24093  0.34043  1.0000
  C   C172      1.0  0.75757  0.17240  0.34092  1.0000
  N   N124      1.0  0.73429  0.16091  0.34096  1.0000
  C   C173      1.0  0.72228  0.13757  0.33990  1.0000
  N   N125      1.0  0.73388  0.12576  0.33909  1.0000
  C   C174      1.0  0.75724  0.13714  0.33950  1.0000
  N   N126      1.0  0.76868  0.16033  0.34040  1.0000
  C   C175      1.0  0.42254  0.17236  0.34353  1.0000
  N   N127      1.0  0.43433  0.16088  0.34300  1.0000
  C   C176      1.0  0.42301  0.13754  0.34254  1.0000
  N   N128      1.0  0.39960  0.12573  0.34273  1.0000
  C   C177      1.0  0.38762  0.13710  0.34389  1.0000
  N   N129      1.0  0.39936  0.16029  0.34423  1.0000
  C   C178      1.0  0.75759  0.58718  0.34375  1.0000
  N   N130      1.0  0.73431  0.57537  0.34378  1.0000
  C   C179      1.0  0.72228  0.58668  0.34415  1.0000
  N   N131      1.0  0.73386  0.61009  0.34410  1.0000
  C   C180      1.0  0.75722  0.62209  0.34406  1.0000
  N   N132      1.0  0.76868  0.61036  0.34347  1.0000
  C   C181      1.0  0.83728  0.25207  0.34367  1.0000
  N   N133      1.0  0.84876  0.27535  0.34379  1.0000
  C   C182      1.0  0.87210  0.28737  0.34429  1.0000
  N   N134      1.0  0.88392  0.27578  0.34419  1.0000
  C   C183      1.0  0.87255  0.25242  0.34399  1.0000
  N   N135      1.0  0.84936  0.24097  0.34321  1.0000
  C   C184      1.0  0.58908  0.83533  0.34309  1.0000
  N   N136      1.0  0.57729  0.84681  0.34221  1.0000
  C   C185      1.0  0.58861  0.87016  0.34252  1.0000
  N   N137      1.0  0.61202  0.88197  0.34328  1.0000
  C   C186      1.0  0.62401  0.87060  0.34366  1.0000
  N   N138      1.0  0.61226  0.84740  0.34373  1.0000
  C   C187      1.0  0.25399  0.42052  0.34355  1.0000
  N   N139      1.0  0.27727  0.43232  0.34305  1.0000
  C   C188      1.0  0.28929  0.42100  0.34255  1.0000
  N   N140      1.0  0.27770  0.39759  0.34266  1.0000
  C   C189      1.0  0.25434  0.38560  0.34379  1.0000
  N   N141      1.0  0.24289  0.39734  0.34417  1.0000
  C   C190      1.0  0.17427  0.75565  0.34387  1.0000
  N   N142      1.0  0.16278  0.73237  0.34348  1.0000
  C   C191      1.0  0.13944  0.72036  0.34373  1.0000
  N   N143      1.0  0.12763  0.73197  0.34389  1.0000
  C   C192      1.0  0.13901  0.75533  0.34423  1.0000
  N   N144      1.0  0.16220  0.76677  0.34383  1.0000
  C   C193      1.0  0.13910  0.30564  0.33982  1.0000
  N   N145      1.0  0.12754  0.28229  0.33892  1.0000
  C   C194      1.0  0.13906  0.27040  0.33980  1.0000
  N   N146      1.0  0.16245  0.28229  0.34150  1.0000
  C   C195      1.0  0.17423  0.30565  0.34206  1.0000
  N   N147      1.0  0.16228  0.31688  0.34165  1.0000
  C   C196      1.0  0.70405  0.83541  0.34027  1.0000
  N   N148      1.0  0.72740  0.84720  0.34030  1.0000
  C   C197      1.0  0.73928  0.87060  0.34113  1.0000
  N   N149      1.0  0.72739  0.88212  0.34213  1.0000
  C   C198      1.0  0.70404  0.87054  0.34254  1.0000
  N   N150      1.0  0.69280  0.84736  0.34150  1.0000
  C   C199      1.0  0.17423  0.87056  0.34008  1.0000
  N   N151      1.0  0.16243  0.88211  0.33990  1.0000
  C   C200      1.0  0.13903  0.87058  0.34149  1.0000
  N   N152      1.0  0.12753  0.84718  0.34301  1.0000
  C   C201      1.0  0.13911  0.83541  0.34257  1.0000
  N   N153      1.0  0.16230  0.84737  0.34130  1.0000
  C   C202      1.0  0.87243  0.70202  0.34007  1.0000
  N   N154      1.0  0.88399  0.72537  0.33926  1.0000
  C   C203      1.0  0.87246  0.73724  0.34064  1.0000
  N   N155      1.0  0.84906  0.72536  0.34246  1.0000
  C   C204      1.0  0.83729  0.70201  0.34261  1.0000
  N   N156      1.0  0.84924  0.69077  0.34159  1.0000
  C   C205      1.0  0.30766  0.17234  0.33985  1.0000
  N   N157      1.0  0.28431  0.16056  0.33917  1.0000
  C   C206      1.0  0.27242  0.13716  0.34014  1.0000
  N   N158      1.0  0.28430  0.12564  0.34168  1.0000
  C   C207      1.0  0.30765  0.13720  0.34197  1.0000
  N   N159      1.0  0.31890  0.16040  0.34145  1.0000
  C   C208      1.0  0.83732  0.13721  0.33963  1.0000
  N   N160      1.0  0.84909  0.12564  0.33916  1.0000
  C   C209      1.0  0.87249  0.13715  0.34007  1.0000
  N   N161      1.0  0.88402  0.16055  0.34166  1.0000
  C   C210      1.0  0.87246  0.17234  0.34201  1.0000
  N   N162      1.0  0.84927  0.16040  0.34155  1.0000
  C   C211      1.0  0.08554  0.50239  0.34197  1.0000
  N   N163      1.0  0.10004  0.49372  0.34082  1.0000
  C   C212      1.0  0.09158  0.47058  0.34066  1.0000
  N   N164      1.0  0.06852  0.45625  0.34110  1.0000
  C   C213      1.0  0.05398  0.46467  0.34228  1.0000
  N   N165      1.0  0.06262  0.48763  0.34256  1.0000
  C   C214      1.0  0.50726  0.58507  0.34188  1.0000
  N   N166      1.0  0.51592  0.60823  0.34059  1.0000
  C   C215      1.0  0.53907  0.62292  0.34038  1.0000
  N   N167      1.0  0.55340  0.61419  0.34088  1.0000
  C   C216      1.0  0.54499  0.59124  0.34218  1.0000
  N   N168      1.0  0.52202  0.57691  0.34252  1.0000
  C   C217      1.0  0.42458  0.92410  0.34178  1.0000
  N   N169      1.0  0.40141  0.90960  0.34026  1.0000
  C   C218      1.0  0.38673  0.91805  0.33989  1.0000
  N   N170      1.0  0.39545  0.94111  0.34044  1.0000
  C   C219      1.0  0.41840  0.95565  0.34199  1.0000
  N   N171      1.0  0.43273  0.94702  0.34248  1.0000
  C   C220      1.0  0.92604  0.50531  0.34191  1.0000
  N   N172      1.0  0.91155  0.51398  0.34042  1.0000
  C   C221      1.0  0.92002  0.53713  0.34006  1.0000
  N   N173      1.0  0.94307  0.55145  0.34058  1.0000
  C   C222      1.0  0.95761  0.54303  0.34207  1.0000
  N   N174      1.0  0.94896  0.52007  0.34256  1.0000
  C   C223      1.0  0.50432  0.42265  0.34198  1.0000
  N   N175      1.0  0.49566  0.39949  0.34083  1.0000
  C   C224      1.0  0.47251  0.38480  0.34065  1.0000
  N   N176      1.0  0.45818  0.39353  0.34103  1.0000
  C   C225      1.0  0.46659  0.41648  0.34221  1.0000
  N   N177      1.0  0.48955  0.43081  0.34252  1.0000
  C   C226      1.0  0.58698  0.08355  0.34185  1.0000
  N   N178      1.0  0.61014  0.09806  0.34056  1.0000
  C   C227      1.0  0.62483  0.08961  0.34035  1.0000
  N   N179      1.0  0.61611  0.06655  0.34084  1.0000
  C   C228      1.0  0.59316  0.05201  0.34214  1.0000
  N   N180      1.0  0.57882  0.06063  0.34249  1.0000
  C   C229      1.0  0.50431  0.08355  0.34010  1.0000
  N   N181      1.0  0.49566  0.09806  0.34139  1.0000
  C   C230      1.0  0.47251  0.08960  0.34170  1.0000
  N   N182      1.0  0.45818  0.06654  0.34135  1.0000
  C   C231      1.0  0.46658  0.05200  0.34004  1.0000
  N   N183      1.0  0.48955  0.06063  0.33959  1.0000
  C   C232      1.0  0.58697  0.50532  0.34043  1.0000
  N   N184      1.0  0.61013  0.51397  0.34195  1.0000
  C   C233      1.0  0.62482  0.53712  0.34242  1.0000
  N   N185      1.0  0.61609  0.55145  0.34195  1.0000
  C   C234      1.0  0.59314  0.54304  0.34039  1.0000
  N   N186      1.0  0.57881  0.52008  0.33982  1.0000
  C   C235      1.0  0.92606  0.42268  0.34055  1.0000
  N   N187      1.0  0.91156  0.39951  0.34205  1.0000
  C   C236      1.0  0.92003  0.38483  0.34250  1.0000
  N   N188      1.0  0.94309  0.39356  0.34201  1.0000
  C   C237      1.0  0.95762  0.41651  0.34045  1.0000
  N   N189      1.0  0.94898  0.43084  0.33989  1.0000
  C   C238      1.0  0.50725  0.92410  0.34028  1.0000
  N   N190      1.0  0.51591  0.90960  0.34154  1.0000
  C   C239      1.0  0.53905  0.91806  0.34188  1.0000
  N   N191      1.0  0.55338  0.94112  0.34154  1.0000
  C   C240      1.0  0.54497  0.95566  0.34025  1.0000
  N   N192      1.0  0.52201  0.94703  0.33977  1.0000
  C   C241      1.0  0.42460  0.50240  0.34014  1.0000
  N   N193      1.0  0.40143  0.49373  0.34142  1.0000
  C   C242      1.0  0.38675  0.47058  0.34172  1.0000
  N   N194      1.0  0.39549  0.45626  0.34137  1.0000
  C   C243      1.0  0.41844  0.46468  0.34008  1.0000
  N   N195      1.0  0.43276  0.48764  0.33963  1.0000
  C   C244      1.0  0.08553  0.58505  0.34026  1.0000
  N   N196      1.0  0.10002  0.60821  0.34172  1.0000
  C   C245      1.0  0.09155  0.62289  0.34211  1.0000
  N   N197      1.0  0.06849  0.61415  0.34166  1.0000
  C   C246      1.0  0.05396  0.59120  0.34019  1.0000
  N   N198      1.0  0.06260  0.57688  0.33965  1.0000
  C   C247      1.0  0.09009  0.13714  0.34022  1.0000
  N   N199      1.0  0.10150  0.16048  0.33949  1.0000
  C   C248      1.0  0.09006  0.17239  0.33991  1.0000
  N   N200      1.0  0.06671  0.16045  0.34075  1.0000
  C   C249      1.0  0.05480  0.13710  0.34109  1.0000
  N   N201      1.0  0.06674  0.12569  0.34100  1.0000
  C   C250      1.0  0.87256  0.95486  0.33992  1.0000
  N   N202      1.0  0.84921  0.94294  0.33982  1.0000
  C   C251      1.0  0.83728  0.91959  0.34078  1.0000
  N   N203      1.0  0.84920  0.90816  0.34164  1.0000
  C   C252      1.0  0.87255  0.91958  0.34131  1.0000
  N   N204      1.0  0.88397  0.94293  0.34056  1.0000
  C   C253      1.0  0.05481  0.91966  0.33996  1.0000
  N   N205      1.0  0.06671  0.90821  0.34048  1.0000
  C   C254      1.0  0.09005  0.91961  0.34120  1.0000
  N   N206      1.0  0.10150  0.94296  0.34145  1.0000
  C   C255      1.0  0.09010  0.95490  0.34064  1.0000
  N   N207      1.0  0.06675  0.94300  0.33992  1.0000
  C   C256      1.0  0.92154  0.87054  0.34035  1.0000
  N   N208      1.0  0.91009  0.84719  0.33964  1.0000
  C   C257      1.0  0.92148  0.83524  0.33998  1.0000
  N   N209      1.0  0.94483  0.84713  0.34071  1.0000
  C   C258      1.0  0.95678  0.87047  0.34106  1.0000
  N   N210      1.0  0.94488  0.88193  0.34109  1.0000
  C   C259      1.0  0.13916  0.05292  0.33973  1.0000
  N   N211      1.0  0.16250  0.06484  0.33944  1.0000
  C   C260      1.0  0.17443  0.08818  0.34035  1.0000
  N   N212      1.0  0.16252  0.09962  0.34133  1.0000
  C   C261      1.0  0.13917  0.08820  0.34119  1.0000
  N   N213      1.0  0.12774  0.06485  0.34049  1.0000
  C   C262      1.0  0.95677  0.08821  0.33996  1.0000
  N   N214      1.0  0.94482  0.09960  0.34002  1.0000
  C   C263      1.0  0.92148  0.08814  0.34057  1.0000
  N   N215      1.0  0.91008  0.06479  0.34105  1.0000
  C   C264      1.0  0.92153  0.05290  0.34066  1.0000
  N   N216      1.0  0.94488  0.06485  0.34015  1.0000
  C   C265      1.0  0.12757  0.35054  0.42319  1.0000
  C   C266      1.0  0.12780  0.32941  0.42325  1.0000
  N   N217      1.0  0.12691  0.36101  0.50128  1.0000
  H   H217      1.0  0.12527  0.37453  0.50096  1.0000
  H   H218      1.0  0.12636  0.35487  0.56031  1.0000
  N   N218      1.0  0.12748  0.31846  0.50146  1.0000
  H   H219      1.0  0.12612  0.30342  0.50135  1.0000
  H   H220      1.0  0.12703  0.32414  0.56046  1.0000
  C   C267      1.0  0.65918  0.77845  0.42201  1.0000
  C   C268      1.0  0.67956  0.80042  0.42372  1.0000
  N   N219      1.0  0.64974  0.76620  0.49915  1.0000
  H   H221      1.0  0.63682  0.75067  0.49711  1.0000
  H   H222      1.0  0.65778  0.77044  0.55596  1.0000
  N   N220      1.0  0.68865  0.81158  0.50321  1.0000
  H   H223      1.0  0.70303  0.82600  0.50585  1.0000
  H   H224      1.0  0.68072  0.80647  0.56003  1.0000
  C   C269      1.0  0.23009  0.88140  0.42316  1.0000
  C   C270      1.0  0.20952  0.88265  0.42207  1.0000
  N   N221      1.0  0.23958  0.87976  0.50231  1.0000
  H   H225      1.0  0.25412  0.88002  0.50429  1.0000
  H   H226      1.0  0.23195  0.87719  0.55968  1.0000
  N   N222      1.0  0.20003  0.88526  0.49944  1.0000
  H   H227      1.0  0.18685  0.88746  0.49807  1.0000
  H   H228      1.0  0.20789  0.88880  0.55659  1.0000
  C   C271      1.0  0.88314  0.65691  0.42310  1.0000
  C   C272      1.0  0.88426  0.67868  0.42214  1.0000
  N   N223      1.0  0.88148  0.64573  0.50214  1.0000
  H   H229      1.0  0.88191  0.63155  0.50403  1.0000
  H   H230      1.0  0.87883  0.65071  0.55955  1.0000
  N   N224      1.0  0.88662  0.69063  0.49973  1.0000
  H   H231      1.0  0.88891  0.70605  0.49830  1.0000
  H   H232      1.0  0.89005  0.68627  0.55697  1.0000
  C   C273      1.0  0.35251  0.22877  0.42311  1.0000
  C   C274      1.0  0.33136  0.20744  0.42315  1.0000
  N   N225      1.0  0.36302  0.23987  0.50124  1.0000
  H   H233      1.0  0.37656  0.25502  0.50100  1.0000
  H   H234      1.0  0.35697  0.23416  0.56030  1.0000
  N   N226      1.0  0.32033  0.19689  0.50131  1.0000
  H   H235      1.0  0.30527  0.18322  0.50108  1.0000
  H   H236      1.0  0.32586  0.20314  0.56026  1.0000
  C   C275      1.0  0.78044  0.12524  0.42193  1.0000
  C   C276      1.0  0.80243  0.12687  0.42352  1.0000
  N   N227      1.0  0.76825  0.12252  0.49918  1.0000
  H   H237      1.0  0.75270  0.11987  0.49725  1.0000
  H   H238      1.0  0.77255  0.11880  0.55602  1.0000
  N   N228      1.0  0.81368  0.12911  0.50290  1.0000
  H   H239      1.0  0.82810  0.12917  0.50550  1.0000
  H   H240      1.0  0.80863  0.13204  0.55964  1.0000
  C   C277      1.0  0.32134  0.12675  0.34406  1.0000
  C   C278      1.0  0.33213  0.12707  0.42710  1.0000
  C   C279      1.0  0.35260  0.12563  0.42640  1.0000
  C   C280      1.0  0.36346  0.12653  0.34293  1.0000
  N   N229      1.0  0.36224  0.12343  0.50418  1.0000
  H   H241      1.0  0.35443  0.12015  0.56136  1.0000
  H   H242      1.0  0.37520  0.12088  0.50283  1.0000
  N   N230      1.0  0.32291  0.12928  0.50599  1.0000
  H   H243      1.0  0.30844  0.12915  0.50790  1.0000
  H   H244      1.0  0.33072  0.13223  0.56309  1.0000
  C   C281      1.0  0.81313  0.68831  0.34442  1.0000
  C   C282      1.0  0.80249  0.67759  0.42729  1.0000
  C   C283      1.0  0.78051  0.65721  0.42624  1.0000
  C   C284      1.0  0.77080  0.64626  0.34270  1.0000
  N   N231      1.0  0.76844  0.64777  0.50370  1.0000
  H   H245      1.0  0.77289  0.65558  0.56093  1.0000
  H   H246      1.0  0.75293  0.63477  0.50226  1.0000
  N   N232      1.0  0.81384  0.68674  0.50638  1.0000
  H   H247      1.0  0.82827  0.70112  0.50853  1.0000
  H   H248      1.0  0.80882  0.67892  0.56342  1.0000
  C   C285      1.0  0.88291  0.19649  0.34389  1.0000
  C   C286      1.0  0.88294  0.20719  0.42673  1.0000
  C   C287      1.0  0.88458  0.22919  0.42573  1.0000
  C   C288      1.0  0.88311  0.23882  0.34234  1.0000
  N   N233      1.0  0.88734  0.24129  0.50322  1.0000
  H   H249      1.0  0.89108  0.23696  0.55991  1.0000
  H   H250      1.0  0.88997  0.25684  0.50152  1.0000
  N   N234      1.0  0.88078  0.19586  0.50584  1.0000
  H   H251      1.0  0.88066  0.18140  0.50798  1.0000
  H   H252      1.0  0.87797  0.20089  0.56286  1.0000
  C   C289      1.0  0.69032  0.88098  0.34181  1.0000
  C   C290      1.0  0.68078  0.88228  0.42574  1.0000
  C   C291      1.0  0.65893  0.88095  0.42741  1.0000
  C   C292      1.0  0.64816  0.88115  0.34500  1.0000
  N   N235      1.0  0.64774  0.87891  0.50681  1.0000
  H   H253      1.0  0.65273  0.87597  0.56365  1.0000
  H   H254      1.0  0.63342  0.87906  0.50930  1.0000
  N   N236      1.0  0.69288  0.88469  0.50294  1.0000
  H   H255      1.0  0.70830  0.88698  0.50129  1.0000
  H   H256      1.0  0.68854  0.88806  0.56039  1.0000
  C   C293      1.0  0.19838  0.31937  0.34429  1.0000
  C   C294      1.0  0.20883  0.33028  0.42720  1.0000
  C   C295      1.0  0.23080  0.35066  0.42638  1.0000
  C   C296      1.0  0.24076  0.36144  0.34281  1.0000
  N   N237      1.0  0.24267  0.36026  0.50411  1.0000
  H   H257      1.0  0.23814  0.35241  0.56124  1.0000
  H   H258      1.0  0.25824  0.37314  0.50266  1.0000
  N   N238      1.0  0.19733  0.32126  0.50616  1.0000
  H   H259      1.0  0.18292  0.30686  0.50829  1.0000
  H   H260      1.0  0.20217  0.32924  0.56296  1.0000
  C   C297      1.0  0.12869  0.81126  0.34438  1.0000
  C   C298      1.0  0.12869  0.80057  0.42724  1.0000
  C   C299      1.0  0.12712  0.77860  0.42623  1.0000
  C   C300      1.0  0.12844  0.76892  0.34274  1.0000
  N   N239      1.0  0.12446  0.76652  0.50369  1.0000
  H   H261      1.0  0.12105  0.77095  0.56087  1.0000
  H   H262      1.0  0.12198  0.75103  0.50226  1.0000
  N   N240      1.0  0.13081  0.81189  0.50633  1.0000
  H   H263      1.0  0.13085  0.82632  0.50843  1.0000
  H   H264      1.0  0.13356  0.80686  0.56343  1.0000
  C   C301      1.0  0.24038  0.43100  0.34479  1.0000
  C   C302      1.0  0.22947  0.43080  0.42722  1.0000
  C   C303      1.0  0.20907  0.43230  0.42517  1.0000
  C   C304      1.0  0.19832  0.43089  0.34102  1.0000
  N   N241      1.0  0.19938  0.43479  0.50219  1.0000
  H   H265      1.0  0.20724  0.43844  0.55935  1.0000
  H   H266      1.0  0.18641  0.43733  0.49985  1.0000
  N   N242      1.0  0.23846  0.42860  0.50673  1.0000
  H   H267      1.0  0.25288  0.42862  0.50948  1.0000
  H   H268      1.0  0.23047  0.42568  0.56344  1.0000
  C   C305      1.0  0.57859  0.81124  0.34186  1.0000
  C   C306      1.0  0.57754  0.80046  0.42558  1.0000
  C   C307      1.0  0.57908  0.78008  0.42641  1.0000
  C   C308      1.0  0.57862  0.76928  0.34330  1.0000
  N   N243      1.0  0.58152  0.77102  0.50534  1.0000
  H   H269      1.0  0.58468  0.77901  0.56213  1.0000
  H   H270      1.0  0.58156  0.75664  0.50736  1.0000
  N   N244      1.0  0.57513  0.81000  0.50319  1.0000
  H   H271      1.0  0.57265  0.82301  0.50200  1.0000
  H   H272      1.0  0.57187  0.80220  0.56046  1.0000
  C   C309      1.0  0.19835  0.76925  0.34264  1.0000
  C   C310      1.0  0.20910  0.77919  0.42619  1.0000
  C   C311      1.0  0.22946  0.80112  0.42659  1.0000
  C   C312      1.0  0.24030  0.81131  0.34334  1.0000
  N   N245      1.0  0.23848  0.81278  0.50526  1.0000
  H   H273      1.0  0.23045  0.80807  0.56203  1.0000
  H   H274      1.0  0.25286  0.82720  0.50708  1.0000
  N   N246      1.0  0.19955  0.76742  0.50415  1.0000
  H   H275      1.0  0.18663  0.75187  0.50305  1.0000
  H   H276      1.0  0.20738  0.77202  0.56132  1.0000
  C   C313      1.0  0.77123  0.57674  0.34225  1.0000
  C   C314      1.0  0.78091  0.57545  0.42571  1.0000
  C   C315      1.0  0.80283  0.57698  0.42626  1.0000
  C   C316      1.0  0.81322  0.57672  0.34305  1.0000
  N   N247      1.0  0.81432  0.57926  0.50504  1.0000
  H   H277      1.0  0.80944  0.58220  0.56216  1.0000
  H   H278      1.0  0.82873  0.57928  0.50678  1.0000
  N   N248      1.0  0.76897  0.57296  0.50342  1.0000
  H   H279      1.0  0.75351  0.57055  0.50239  1.0000
  H   H280      1.0  0.77348  0.56958  0.56052  1.0000
  C   C317      1.0  0.43301  0.19645  0.34477  1.0000
  C   C318      1.0  0.43280  0.20716  0.42720  1.0000
  C   C319      1.0  0.43429  0.22905  0.42514  1.0000
  C   C320      1.0  0.43288  0.23839  0.34097  1.0000
  N   N249      1.0  0.43678  0.24124  0.50214  1.0000
  H   H281      1.0  0.44043  0.23703  0.55931  1.0000
  H   H282      1.0  0.43930  0.25674  0.49981  1.0000
  N   N250      1.0  0.43059  0.19597  0.50671  1.0000
  H   H283      1.0  0.43063  0.18158  0.50947  1.0000
  H   H284      1.0  0.42767  0.20104  0.56341  1.0000
  C   C321      1.0  0.81320  0.23845  0.34180  1.0000
  C   C322      1.0  0.80225  0.22882  0.42540  1.0000
  C   C323      1.0  0.78187  0.20689  0.42623  1.0000
  C   C324      1.0  0.77118  0.19648  0.34307  1.0000
  N   N251      1.0  0.77275  0.19545  0.50519  1.0000
  H   H285      1.0  0.78071  0.20032  0.56205  1.0000
  H   H286      1.0  0.75839  0.18101  0.50719  1.0000
  N   N252      1.0  0.81164  0.24084  0.50302  1.0000
  H   H287      1.0  0.82466  0.25633  0.50188  1.0000
  H   H288      1.0  0.80372  0.23638  0.56005  1.0000
  C   C325      1.0  0.11122  0.45379  0.42421  1.0000
  C   C326      1.0  0.12293  0.44094  0.42424  1.0000
  N   N253      1.0  0.10436  0.45908  0.50316  1.0000
  H   H289      1.0  0.09685  0.46816  0.50517  1.0000
  H   H290      1.0  0.10473  0.45248  0.56030  1.0000
  N   N254      1.0  0.13005  0.43590  0.50307  1.0000
  H   H291      1.0  0.13795  0.42720  0.50489  1.0000
  H   H292      1.0  0.12991  0.44274  0.55991  1.0000
  C   C327      1.0  0.55591  0.65936  0.42373  1.0000
  C   C328      1.0  0.56873  0.68392  0.42365  1.0000
  N   N255      1.0  0.55071  0.64725  0.50274  1.0000
  H   H293      1.0  0.54164  0.63066  0.50486  1.0000
  H   H294      1.0  0.55737  0.65424  0.55977  1.0000
  N   N256      1.0  0.57380  0.69610  0.50247  1.0000
  H   H295      1.0  0.58247  0.71270  0.50417  1.0000
  H   H296      1.0  0.56694  0.68913  0.55930  1.0000
  C   C329      1.0  0.35023  0.89844  0.42285  1.0000
  C   C330      1.0  0.32567  0.88670  0.42252  1.0000
  N   N257      1.0  0.36229  0.90535  0.50198  1.0000
  H   H297      1.0  0.37887  0.91288  0.50429  1.0000
  H   H298      1.0  0.35525  0.90505  0.55889  1.0000
  N   N258      1.0  0.31344  0.87955  0.50123  1.0000
  H   H299      1.0  0.29684  0.87158  0.50279  1.0000
  H   H300      1.0  0.32040  0.87957  0.55801  1.0000
  C   C331      1.0  0.90038  0.55399  0.42308  1.0000
  C   C332      1.0  0.88864  0.56681  0.42278  1.0000
  N   N259      1.0  0.90725  0.54880  0.50222  1.0000
  H   H301      1.0  0.91482  0.53978  0.50444  1.0000
  H   H302      1.0  0.90696  0.55555  0.55909  1.0000
  N   N260      1.0  0.88147  0.57187  0.50147  1.0000
  H   H303      1.0  0.87355  0.58055  0.50311  1.0000
  H   H304      1.0  0.88157  0.56503  0.55838  1.0000
  C   C333      1.0  0.45575  0.34838  0.42420  1.0000
  C   C334      1.0  0.44291  0.32383  0.42424  1.0000
  N   N261      1.0  0.46103  0.36053  0.50315  1.0000
  H   H305      1.0  0.47010  0.37712  0.50515  1.0000
  H   H306      1.0  0.45444  0.35356  0.56030  1.0000
  N   N262      1.0  0.43786  0.31166  0.50307  1.0000
  H   H307      1.0  0.42917  0.29506  0.50489  1.0000
  H   H308      1.0  0.44470  0.31864  0.55992  1.0000
  C   C335      1.0  0.66126  0.10924  0.42370  1.0000
  C   C336      1.0  0.68582  0.12099  0.42361  1.0000
  N   N263      1.0  0.64915  0.10232  0.50271  1.0000
  H   H309      1.0  0.63256  0.09479  0.50483  1.0000
  H   H310      1.0  0.65614  0.10266  0.55975  1.0000
  N   N264      1.0  0.69800  0.12810  0.50243  1.0000
  H   H311      1.0  0.71461  0.13606  0.50413  1.0000
  H   H312      1.0  0.69103  0.12799  0.55928  1.0000
  C   C337      1.0  0.43583  0.12592  0.34233  1.0000
  C   C338      1.0  0.44287  0.12089  0.42583  1.0000
  C   C339      1.0  0.45566  0.10912  0.42567  1.0000
  C   C340      1.0  0.46241  0.10384  0.34200  1.0000
  N   N265      1.0  0.46081  0.10210  0.50450  1.0000
  H   H313      1.0  0.45406  0.10231  0.56149  1.0000
  H   H314      1.0  0.46979  0.09448  0.50633  1.0000
  N   N266      1.0  0.43782  0.12796  0.50479  1.0000
  H   H315      1.0  0.42919  0.13594  0.50675  1.0000
  H   H316      1.0  0.44465  0.12776  0.56159  1.0000
  C   C341      1.0  0.69782  0.57384  0.34374  1.0000
  C   C342      1.0  0.68571  0.56674  0.42711  1.0000
  C   C343      1.0  0.66115  0.55395  0.42671  1.0000
  C   C344      1.0  0.64917  0.54723  0.34293  1.0000
  N   N267      1.0  0.64893  0.54877  0.50544  1.0000
  H   H317      1.0  0.65586  0.55550  0.56248  1.0000
  H   H318      1.0  0.63234  0.53980  0.50712  1.0000
  N   N268      1.0  0.69778  0.57173  0.50616  1.0000
  H   H319      1.0  0.71438  0.58034  0.50825  1.0000
  H   H320      1.0  0.69072  0.56485  0.56286  1.0000
  C   C345      1.0  0.88373  0.31183  0.34384  1.0000
  C   C346      1.0  0.88875  0.32395  0.42720  1.0000
  C   C347      1.0  0.90055  0.34851  0.42678  1.0000
  C   C348      1.0  0.90578  0.36047  0.34299  1.0000
  N   N269      1.0  0.90763  0.36072  0.50552  1.0000
  H   H321      1.0  0.90747  0.35378  0.56249  1.0000
  H   H322      1.0  0.91527  0.37732  0.50722  1.0000
  N   N270      1.0  0.88165  0.31189  0.50628  1.0000
  H   H323      1.0  0.87360  0.29529  0.50832  1.0000
  H   H324      1.0  0.88178  0.31896  0.56290  1.0000
  C   C349      1.0  0.57578  0.88178  0.34237  1.0000
  C   C350      1.0  0.56872  0.88678  0.42589  1.0000
  C   C351      1.0  0.55591  0.89853  0.42577  1.0000
  C   C352      1.0  0.54916  0.90381  0.34212  1.0000
  N   N271      1.0  0.55073  0.90552  0.50462  1.0000
  H   H325      1.0  0.55740  0.90523  0.56170  1.0000
  H   H326      1.0  0.54170  0.91308  0.50651  1.0000
  N   N272      1.0  0.57376  0.87969  0.50481  1.0000
  H   H327      1.0  0.58239  0.87171  0.50672  1.0000
  H   H328      1.0  0.56693  0.87987  0.56163  1.0000
  C   C353      1.0  0.31375  0.43384  0.34234  1.0000
  C   C354      1.0  0.32582  0.44089  0.42584  1.0000
  C   C355      1.0  0.35037  0.45370  0.42566  1.0000
  C   C356      1.0  0.36240  0.46046  0.34199  1.0000
  N   N273      1.0  0.36255  0.45886  0.50451  1.0000
  H   H329      1.0  0.35559  0.45210  0.56148  1.0000
  H   H330      1.0  0.37914  0.46785  0.50634  1.0000
  N   N274      1.0  0.31370  0.43584  0.50479  1.0000
  H   H331      1.0  0.29709  0.42719  0.50676  1.0000
  H   H332      1.0  0.32072  0.44268  0.56159  1.0000
  C   C357      1.0  0.12780  0.69590  0.34333  1.0000
  C   C358      1.0  0.12278  0.68379  0.42672  1.0000
  C   C359      1.0  0.11103  0.65924  0.42635  1.0000
  C   C360      1.0  0.10578  0.64725  0.34260  1.0000
  N   N275      1.0  0.10398  0.64702  0.50510  1.0000
  H   H333      1.0  0.10416  0.65396  0.56211  1.0000
  H   H334      1.0  0.09637  0.63043  0.50681  1.0000
  N   N276      1.0  0.12987  0.69587  0.50576  1.0000
  H   H335      1.0  0.13784  0.71247  0.50785  1.0000
  H   H336      1.0  0.12969  0.68881  0.56247  1.0000
  C   C361      1.0  0.12678  0.24585  0.33980  1.0000
  C   C362      1.0  0.12002  0.23367  0.42309  1.0000
  C   C363      1.0  0.10921  0.20914  0.42310  1.0000
  C   C364      1.0  0.10232  0.19695  0.33986  1.0000
  N   N277      1.0  0.10573  0.19730  0.50195  1.0000
  H   H337      1.0  0.11298  0.20483  0.55764  1.0000
  H   H338      1.0  0.09874  0.18075  0.50366  1.0000
  N   N278      1.0  0.12359  0.24553  0.50196  1.0000
  H   H339      1.0  0.13059  0.26208  0.50368  1.0000
  H   H340      1.0  0.11650  0.23803  0.55789  1.0000
  C   C365      1.0  0.76383  0.88288  0.34103  1.0000
  C   C366      1.0  0.77603  0.88835  0.42428  1.0000
  C   C367      1.0  0.80055  0.90205  0.42416  1.0000
  C   C368      1.0  0.81272  0.90732  0.34087  1.0000
  N   N279      1.0  0.81244  0.91046  0.50289  1.0000
  H   H341      1.0  0.80496  0.91010  0.55883  1.0000
  H   H342      1.0  0.82899  0.91995  0.50462  1.0000
  N   N280      1.0  0.76417  0.88011  0.50317  1.0000
  H   H343      1.0  0.74762  0.87061  0.50509  1.0000
  H   H344      1.0  0.77168  0.88061  0.55919  1.0000
  C   C369      1.0  0.12674  0.88284  0.34143  1.0000
  C   C370      1.0  0.12131  0.88961  0.42467  1.0000
  C   C371      1.0  0.10759  0.90041  0.42458  1.0000
  C   C372      1.0  0.10230  0.90730  0.34131  1.0000
  N   N281      1.0  0.09919  0.90389  0.50337  1.0000
  H   H345      1.0  0.09948  0.89665  0.55908  1.0000
  H   H346      1.0  0.08961  0.91085  0.50497  1.0000
  N   N282      1.0  0.12961  0.88606  0.50353  1.0000
  H   H347      1.0  0.13914  0.87904  0.50542  1.0000
  H   H348      1.0  0.12914  0.89311  0.55949  1.0000
  C   C373      1.0  0.88473  0.76179  0.34045  1.0000
  C   C374      1.0  0.89152  0.77401  0.42364  1.0000
  C   C375      1.0  0.90232  0.79853  0.42346  1.0000
  C   C376      1.0  0.90918  0.81068  0.34011  1.0000
  N   N283      1.0  0.90582  0.81042  0.50222  1.0000
  H   H349      1.0  0.89859  0.80291  0.55797  1.0000
  H   H350      1.0  0.91279  0.82696  0.50379  1.0000
  N   N284      1.0  0.88799  0.76218  0.50255  1.0000
  H   H351      1.0  0.88097  0.74563  0.50450  1.0000
  H   H352      1.0  0.89507  0.76972  0.55846  1.0000
  C   C377      1.0  0.24787  0.12489  0.34018  1.0000
  C   C378      1.0  0.23570  0.11947  0.42349  1.0000
  C   C379      1.0  0.21118  0.10575  0.42352  1.0000
  C   C380      1.0  0.19898  0.10045  0.34029  1.0000
  N   N285      1.0  0.19934  0.09736  0.50237  1.0000
  H   H353      1.0  0.20688  0.09765  0.55804  1.0000
  H   H354      1.0  0.18280  0.08779  0.50407  1.0000
  N   N286      1.0  0.24757  0.12776  0.50235  1.0000
  H   H355      1.0  0.26412  0.13732  0.50404  1.0000
  H   H356      1.0  0.24007  0.12734  0.55829  1.0000
  C   C381      1.0  0.88475  0.12486  0.34019  1.0000
  C   C382      1.0  0.89019  0.11814  0.42355  1.0000
  C   C383      1.0  0.90388  0.10731  0.42365  1.0000
  C   C384      1.0  0.90918  0.10039  0.34046  1.0000
  N   N287      1.0  0.91226  0.10385  0.50249  1.0000
  H   H357      1.0  0.91188  0.11097  0.55838  1.0000
  H   H358      1.0  0.92174  0.09678  0.50437  1.0000
  N   N288      1.0  0.88191  0.12178  0.50233  1.0000
  H   H359      1.0  0.87241  0.12883  0.50410  1.0000
  H   H360      1.0  0.88239  0.11477  0.55841  1.0000
  C   C385      1.0  0.09427  0.53739  0.42401  1.0000
  C   C386      1.0  0.09277  0.55785  0.42464  1.0000
  N   N289      1.0  0.09708  0.52821  0.50190  1.0000
  H   H361      1.0  0.09924  0.51501  0.50161  1.0000
  H   H362      1.0  0.10089  0.53640  0.55837  1.0000
  N   N290      1.0  0.09059  0.56703  0.50374  1.0000
  H   H363      1.0  0.09017  0.58121  0.50597  1.0000
  H   H364      1.0  0.08746  0.55902  0.56048  1.0000
  C   C387      1.0  0.47225  0.55882  0.42393  1.0000
  C   C388      1.0  0.45181  0.53684  0.42458  1.0000
  N   N291      1.0  0.48141  0.57081  0.50183  1.0000
  H   H365      1.0  0.49452  0.58623  0.50128  1.0000
  H   H366      1.0  0.47306  0.56650  0.55793  1.0000
  N   N292      1.0  0.44268  0.52546  0.50368  1.0000
  H   H367      1.0  0.42850  0.51087  0.50598  1.0000
  H   H368      1.0  0.45068  0.53038  0.56043  1.0000
  C   C389      1.0  0.45082  0.91533  0.42396  1.0000
  C   C390      1.0  0.47277  0.91681  0.42463  1.0000
  N   N293      1.0  0.43881  0.91251  0.50179  1.0000
  H   H369      1.0  0.42346  0.91037  0.50143  1.0000
  H   H370      1.0  0.44316  0.90869  0.55828  1.0000
  N   N294      1.0  0.48411  0.91894  0.50374  1.0000
  H   H371      1.0  0.49867  0.91929  0.50599  1.0000
  H   H372      1.0  0.47916  0.92192  0.56063  1.0000
  C   C391      1.0  0.91731  0.47034  0.42410  1.0000
  C   C392      1.0  0.91881  0.44987  0.42480  1.0000
  N   N295      1.0  0.91451  0.47954  0.50194  1.0000
  H   H373      1.0  0.91235  0.49274  0.50157  1.0000
  H   H374      1.0  0.91072  0.47138  0.55846  1.0000
  N   N296      1.0  0.92096  0.44069  0.50393  1.0000
  H   H375      1.0  0.92134  0.42650  0.50620  1.0000
  H   H376      1.0  0.92402  0.44866  0.56073  1.0000
  C   C393      1.0  0.53931  0.44892  0.42407  1.0000
  C   C394      1.0  0.55976  0.47088  0.42475  1.0000
  N   N297      1.0  0.53012  0.43692  0.50194  1.0000
  H   H377      1.0  0.51692  0.42155  0.50162  1.0000
  H   H378      1.0  0.53831  0.44128  0.55841  1.0000
  N   N298      1.0  0.56893  0.48223  0.50387  1.0000
  H   H379      1.0  0.58311  0.49682  0.50613  1.0000
  H   H380      1.0  0.56092  0.47734  0.56059  1.0000
  C   C395      1.0  0.56073  0.09231  0.42389  1.0000
  C   C396      1.0  0.53875  0.09078  0.42454  1.0000
  N   N299      1.0  0.57272  0.09515  0.50180  1.0000
  H   H381      1.0  0.58814  0.09746  0.50125  1.0000
  H   H382      1.0  0.56841  0.09919  0.55790  1.0000
  N   N300      1.0  0.52737  0.08853  0.50364  1.0000
  H   H383      1.0  0.51278  0.08811  0.50594  1.0000
  H   H384      1.0  0.53228  0.08544  0.56040  1.0000
  C   C397      1.0  0.98167  0.42588  0.34129  1.0000
  C   C398      1.0  0.99359  0.43225  0.42507  1.0000
  C   C399      1.0  0.01801  0.44297  0.42506  1.0000
  C   C400      1.0  0.02993  0.44998  0.34147  1.0000
  N   N301      1.0  0.02996  0.44645  0.50364  1.0000
  H   H385      1.0  0.02247  0.43921  0.55940  1.0000
  H   H386      1.0  0.04646  0.45297  0.50449  1.0000
  N   N302      1.0  0.98170  0.42859  0.50395  1.0000
  H   H387      1.0  0.96512  0.42124  0.50588  1.0000
  H   H388      1.0  0.98917  0.43546  0.56020  1.0000
  C   C401      1.0  0.58379  0.55774  0.34125  1.0000
  C   C402      1.0  0.57743  0.56329  0.42503  1.0000
  C   C403      1.0  0.56668  0.57696  0.42501  1.0000
  C   C404      1.0  0.55968  0.58188  0.34141  1.0000
  N   N303      1.0  0.56318  0.58544  0.50354  1.0000
  H   H389      1.0  0.57024  0.58506  0.55960  1.0000
  H   H390      1.0  0.55653  0.59530  0.50456  1.0000
  N   N304      1.0  0.58115  0.55510  0.50388  1.0000
  H   H391      1.0  0.58857  0.54594  0.50589  1.0000
  H   H392      1.0  0.57436  0.55576  0.56025  1.0000
  C   C405      1.0  0.45189  0.02795  0.34094  1.0000
  C   C406      1.0  0.44636  0.01605  0.42475  1.0000
  C   C407      1.0  0.43266  0.99163  0.42476  1.0000
  C   C408      1.0  0.42775  0.97970  0.34118  1.0000
  N   N305      1.0  0.42419  0.97967  0.50334  1.0000
  H   H393      1.0  0.42445  0.98716  0.55911  1.0000
  H   H394      1.0  0.41422  0.96317  0.50419  1.0000
  N   N306      1.0  0.45459  0.02796  0.50358  1.0000
  H   H395      1.0  0.46377  0.04454  0.50556  1.0000
  H   H396      1.0  0.45395  0.02049  0.55989  1.0000
  C   C409      1.0  0.02991  0.58183  0.34105  1.0000
  C   C410      1.0  0.01800  0.57544  0.42484  1.0000
  C   C411      1.0  0.99358  0.56472  0.42485  1.0000
  C   C412      1.0  0.98165  0.55771  0.34127  1.0000
  N   N307      1.0  0.98163  0.56123  0.50344  1.0000
  H   H397      1.0  0.98912  0.56846  0.55921  1.0000
  H   H398      1.0  0.96513  0.55470  0.50429  1.0000
  N   N308      1.0  0.02991  0.57910  0.50368  1.0000
  H   H399      1.0  0.04649  0.58650  0.50568  1.0000
  H   H400      1.0  0.02244  0.57227  0.55997  1.0000
  C   C413      1.0  0.42780  0.44999  0.34099  1.0000
  C   C414      1.0  0.43417  0.44447  0.42481  1.0000
  C   C415      1.0  0.44489  0.43076  0.42487  1.0000
  C   C416      1.0  0.45190  0.42584  0.34132  1.0000
  N   N309      1.0  0.44836  0.42229  0.50350  1.0000
  H   H401      1.0  0.44112  0.42256  0.55924  1.0000
  H   H402      1.0  0.45489  0.41232  0.50439  1.0000
  N   N310      1.0  0.43050  0.45271  0.50365  1.0000
  H   H403      1.0  0.42314  0.46192  0.50553  1.0000
  H   H404      1.0  0.43736  0.45211  0.55993  1.0000
  C   C417      1.0  0.55967  0.97971  0.34112  1.0000
  C   C418      1.0  0.56521  0.99161  0.42493  1.0000
  C   C419      1.0  0.57888  0.01603  0.42493  1.0000
  C   C420      1.0  0.58380  0.02796  0.34133  1.0000
  N   N311      1.0  0.58735  0.02800  0.50347  1.0000
  H   H405      1.0  0.58698  0.02056  0.55952  1.0000
  H   H406      1.0  0.59722  0.04452  0.50450  1.0000
  N   N312      1.0  0.55702  0.97969  0.50376  1.0000
  H   H407      1.0  0.54787  0.96311  0.50575  1.0000
  H   H408      1.0  0.55768  0.98714  0.56014  1.0000
  C   C421      1.0  0.10917  0.11953  0.42388  1.0000
  C   C422      1.0  0.12007  0.10589  0.42415  1.0000
  N   N313      1.0  0.10551  0.12782  0.50257  1.0000
  H   H409      1.0  0.09837  0.13723  0.50426  1.0000
  H   H410      1.0  0.11253  0.12740  0.55869  1.0000
  N   N314      1.0  0.12370  0.09767  0.50312  1.0000
  H   H411      1.0  0.13075  0.08818  0.50498  1.0000
  H   H412      1.0  0.11653  0.09805  0.55890  1.0000
  C   C423      1.0  0.89029  0.99157  0.42349  1.0000
  C   C424      1.0  0.90382  0.01611  0.42368  1.0000
  N   N315      1.0  0.88220  0.97960  0.50229  1.0000
  H   H413      1.0  0.87284  0.96303  0.50392  1.0000
  H   H414      1.0  0.88262  0.98701  0.55844  1.0000
  N   N316      1.0  0.91194  0.02801  0.50259  1.0000
  H   H415      1.0  0.92125  0.04458  0.50455  1.0000
  H   H416      1.0  0.91143  0.02057  0.55879  1.0000
  C   C425      1.0  0.01816  0.90117  0.42414  1.0000
  C   C426      1.0  0.99355  0.88901  0.42444  1.0000
  N   N317      1.0  0.03042  0.90638  0.50280  1.0000
  H   H417      1.0  0.04703  0.91456  0.50417  1.0000
  H   H418      1.0  0.02346  0.90062  0.56065  1.0000
  N   N318      1.0  0.98139  0.88386  0.50335  1.0000
  H   H419      1.0  0.96478  0.87570  0.50508  1.0000
  H   H420      1.0  0.98844  0.88966  0.56106  1.0000
  C   C427      1.0  0.90253  0.88823  0.42403  1.0000
  C   C428      1.0  0.89162  0.90185  0.42429  1.0000
  N   N319      1.0  0.90623  0.87997  0.50273  1.0000
  H   H421      1.0  0.91340  0.87058  0.50442  1.0000
  H   H422      1.0  0.89926  0.88042  0.55891  1.0000
  N   N320      1.0  0.88796  0.91004  0.50325  1.0000
  H   H423      1.0  0.88086  0.91950  0.50511  1.0000
  H   H424      1.0  0.89500  0.90959  0.55925  1.0000
  C   C429      1.0  0.12150  0.01622  0.42331  1.0000
  C   C430      1.0  0.10781  0.99170  0.42356  1.0000
  N   N321      1.0  0.12982  0.02815  0.50203  1.0000
  H   H425      1.0  0.13928  0.04470  0.50375  1.0000
  H   H426      1.0  0.12940  0.02069  0.55809  1.0000
  N   N322      1.0  0.09953  0.97987  0.50252  1.0000
  H   H427      1.0  0.08998  0.96333  0.50438  1.0000
  H   H428      1.0  0.09989  0.98743  0.55823  1.0000
  C   C431      1.0  0.99342  0.10637  0.42410  1.0000
  C   C432      1.0  0.01803  0.11891  0.42441  1.0000
  N   N323      1.0  0.98118  0.09921  0.50279  1.0000
  H   H429      1.0  0.96457  0.09066  0.50417  1.0000
  H   H430      1.0  0.98820  0.10022  0.56038  1.0000
  N   N324      1.0  0.03016  0.12605  0.50334  1.0000
  H   H431      1.0  0.04677  0.13458  0.50512  1.0000
  H   H432      1.0  0.02307  0.12497  0.56083  1.0000
