data_image0
_chemical_formula_structural       C2HNH2C4H3C4HNH2C4H2C4H2C3HNH2C2HNH2C2H2C4H2C4HC2H2C2HC2HC2HC2H2C3H2C6NH2C4H2NH2C2H2NH2C2NH3C4H2C4HNH2C4H2C4HNH2C4H2C4HNH2C4H2C4HNH2C4H3NH2C4H3NH2C4H3NH2C4H3NH2C4H3NH2C4HNHC4H2C4HNH2C4H2C4HNH2C4H2C4H2C4HNH2C4H2C4HNH2C6H3C6H3C6H3C6H3C6H3C6H3C6H3C6H3C6H3C6H3C4H3NH3C4H3NH2C4H3NH2C4H3NH2C4H2C4HNH2C4H2C4HNH2C4H2C4HNH2C4H2C4HNH2C4H2C4HNH2C2H2C4H3NH2C4H3NH2C2HNH2C4H3NH2C4H3NH2
_chemical_formula_sum              "C288 H216 N36"
_cell_length_a       60.1068
_cell_length_b       60.1068
_cell_length_c       14.8573
_cell_angle_alpha    90
_cell_angle_beta     90
_cell_angle_gamma    120

_space_group_name_H-M_alt    "P 1"
_space_group_IT_number       1

loop_
  _space_group_symop_operation_xyz
  'x, y, z'

loop_
  _atom_site_type_symbol
  _atom_site_label
  _atom_site_symmetry_multiplicity
  _atom_site_fract_x
  _atom_site_fract_y
  _atom_site_fract_z
  _atom_site_occupancy
  C   C1        1.0  0.12271  0.61509  0.27841  1.0000
  C   C2        1.0  0.12418  0.59230  0.27990  1.0000
  H   H1        1.0  0.10952  0.61591  0.23697  1.0000
  N   N1        1.0  0.10768  0.57222  0.22724  1.0000
  H   H2        1.0  0.09523  0.57339  0.18857  1.0000
  H   H3        1.0  0.10778  0.55612  0.22595  1.0000
  C   C3        1.0  0.08024  0.42668  0.33022  1.0000
  C   C4        1.0  0.02586  0.39120  0.33606  1.0000
  C   C5        1.0  0.03675  0.41074  0.27008  1.0000
  C   C6        1.0  0.06334  0.42802  0.26704  1.0000
  H   H4        1.0  0.02522  0.41335  0.22564  1.0000
  H   H5        1.0  0.07018  0.44241  0.22007  1.0000
  H   H6        1.0  0.00982  0.35979  0.19421  1.0000
  C   C7        1.0  0.02428  0.64924  0.34243  1.0000
  C   C8        1.0  0.07888  0.66988  0.35096  1.0000
  C   C9        1.0  0.06752  0.67592  0.27871  1.0000
  C   C10       1.0  0.04052  0.66578  0.27286  1.0000
  H   H7        1.0  0.07899  0.68673  0.22656  1.0000
  N   N2        1.0  0.03098  0.67197  0.20002  1.0000
  H   H8        1.0  0.01280  0.66625  0.19421  1.0000
  H   H9        1.0  0.04225  0.68337  0.15320  1.0000
  C   C11       1.0  0.13657  0.49386  0.34759  1.0000
  C   C12       1.0  0.11141  0.47264  0.34163  1.0000
  C   C13       1.0  0.10645  0.44707  0.33613  1.0000
  C   C14       1.0  0.12775  0.44299  0.33942  1.0000
  H   H10       1.0  0.12442  0.42455  0.33734  1.0000
  H   H11       1.0  0.09627  0.47597  0.34100  1.0000
  C   C15       1.0  0.13470  0.65827  0.33641  1.0000
  C   C16       1.0  0.10968  0.65467  0.34426  1.0000
  C   C17       1.0  0.10498  0.67548  0.34636  1.0000
  C   C18       1.0  0.12632  0.70074  0.33965  1.0000
  H   H12       1.0  0.12315  0.71596  0.33978  1.0000
  H   H13       1.0  0.09440  0.63632  0.34840  1.0000
  C   C19       1.0  0.13842  0.63654  0.33348  1.0000
  C   C20       1.0  0.12667  0.52540  0.41547  1.0000
  C   C21       1.0  0.12763  0.54943  0.41536  1.0000
  H   H14       1.0  0.11515  0.51177  0.46144  1.0000
  N   N3        1.0  0.11312  0.55349  0.47641  1.0000
  H   H15       1.0  0.11305  0.56960  0.47919  1.0000
  H   H16       1.0  0.10253  0.54042  0.52028  1.0000
  C   C22       1.0  0.06950  0.40660  0.39429  1.0000
  C   C23       1.0  0.04263  0.38892  0.39871  1.0000
  H   H17       1.0  0.08132  0.40566  0.44191  1.0000
  N   N4        1.0  0.03372  0.37043  0.46344  1.0000
  H   H18       1.0  0.04537  0.36888  0.50512  1.0000
  H   H19       1.0  0.01570  0.35734  0.46717  1.0000
  C   C24       1.0  0.03581  0.64393  0.41614  1.0000
  C   C25       1.0  0.06253  0.65400  0.42023  1.0000
  H   H20       1.0  0.02466  0.63138  0.46546  1.0000
  H   H21       1.0  0.06986  0.64853  0.47244  1.0000
  C   C26       1.0  0.17534  0.45997  0.34770  1.0000
  C   C27       1.0  0.22131  0.45635  0.34245  1.0000
  C   C28       1.0  0.20019  0.44109  0.28562  1.0000
  C   C29       1.0  0.17765  0.44282  0.28837  1.0000
  H   H22       1.0  0.20136  0.42907  0.23943  1.0000
  H   H23       1.0  0.16332  0.43223  0.24332  1.0000
  C   C30       1.0  0.22064  0.77966  0.33124  1.0000
  C   C31       1.0  0.17386  0.73083  0.32808  1.0000
  C   C32       1.0  0.19394  0.73690  0.26570  1.0000
  C   C33       1.0  0.21728  0.76079  0.26621  1.0000
  H   H24       1.0  0.19173  0.72331  0.21944  1.0000
  C   C34       1.0  0.15766  0.56239  0.28849  1.0000
  C   C35       1.0  0.15638  0.53838  0.29002  1.0000
  H   H25       1.0  0.16841  0.57532  0.23951  1.0000
  H   H26       1.0  0.16610  0.53445  0.24181  1.0000
  C   C36       1.0  0.15348  0.46375  0.34523  1.0000
  C   C37       1.0  0.15730  0.48905  0.34753  1.0000
  H   H27       1.0  0.17558  0.50444  0.35018  1.0000
  C   C38       1.0  0.15188  0.70535  0.33277  1.0000
  C   C39       1.0  0.15550  0.68376  0.33202  1.0000
  H   H28       1.0  0.17374  0.68659  0.32756  1.0000
  C   C40       1.0  0.19634  0.47461  0.40616  1.0000
  C   C41       1.0  0.21931  0.47338  0.40431  1.0000
  H   H29       1.0  0.19507  0.48690  0.45084  1.0000
  C   C42       1.0  0.20039  0.77404  0.39210  1.0000
  C   C43       1.0  0.17741  0.75014  0.39031  1.0000
  H   H30       1.0  0.20260  0.78705  0.44079  1.0000
  H   H31       1.0  0.16379  0.74646  0.43832  1.0000
  C   C44       1.0  0.14247  0.59117  0.33786  1.0000
  C   C45       1.0  0.15876  0.61275  0.39109  1.0000
  C   C46       1.0  0.15681  0.63511  0.38873  1.0000
  H   H32       1.0  0.17163  0.61204  0.43452  1.0000
  H   H33       1.0  0.16817  0.64992  0.43108  1.0000
  C   C47       1.0  0.14321  0.56807  0.34988  1.0000
  C   C48       1.0  0.14044  0.51929  0.35240  1.0000
  C   C49       1.0  0.24466  0.45570  0.33125  1.0000
  C   C50       1.0  0.29350  0.45776  0.32816  1.0000
  C   C51       1.0  0.28742  0.47176  0.26575  1.0000
  C   C52       1.0  0.26354  0.47121  0.26625  1.0000
  N   N5        1.0  0.25983  0.48609  0.20585  1.0000
  H   H34       1.0  0.24395  0.48663  0.20367  1.0000
  H   H35       1.0  0.27303  0.49671  0.16237  1.0000
  C   C53       1.0  0.29423  0.84897  0.34767  1.0000
  C   C54       1.0  0.24464  0.80301  0.34243  1.0000
  C   C55       1.0  0.25050  0.82413  0.28562  1.0000
  C   C56       1.0  0.27478  0.84667  0.28837  1.0000
  H   H36       1.0  0.23731  0.82296  0.23944  1.0000
  H   H37       1.0  0.27851  0.86100  0.24334  1.0000
  N   N6        1.0  0.23586  0.76450  0.20579  1.0000
  H   H38       1.0  0.25227  0.78037  0.20363  1.0000
  H   H39       1.0  0.23328  0.75130  0.16230  1.0000
  C   C57       1.0  0.25027  0.44105  0.39208  1.0000
  C   C58       1.0  0.27418  0.44198  0.39031  1.0000
  H   H40       1.0  0.23726  0.43024  0.44075  1.0000
  H   H41       1.0  0.27786  0.43203  0.43832  1.0000
  N   N7        1.0  0.23883  0.48902  0.46055  1.0000
  H   H42       1.0  0.23719  0.50072  0.50173  1.0000
  H   H43       1.0  0.25508  0.48921  0.46138  1.0000
  C   C59       1.0  0.28788  0.82797  0.40614  1.0000
  C   C60       1.0  0.26368  0.80500  0.40429  1.0000
  N   N8        1.0  0.25980  0.78548  0.46052  1.0000
  H   H44       1.0  0.27313  0.78712  0.50170  1.0000
  H   H45       1.0  0.24374  0.76924  0.46135  1.0000
  H   H46       1.0  0.30102  0.48315  0.21951  1.0000
  C   C61       1.0  0.56435  0.73009  0.34767  1.0000
  C   C62       1.0  0.56798  0.77968  0.34244  1.0000
  C   C63       1.0  0.58324  0.77382  0.28562  1.0000
  C   C64       1.0  0.58151  0.74955  0.28838  1.0000
  H   H47       1.0  0.59526  0.78701  0.23945  1.0000
  H   H48       1.0  0.59210  0.74582  0.24334  1.0000
  C   C65       1.0  0.56863  0.80368  0.33125  1.0000
  C   C66       1.0  0.56658  0.85046  0.32811  1.0000
  C   C67       1.0  0.55257  0.83038  0.26570  1.0000
  C   C68       1.0  0.55312  0.80705  0.26621  1.0000
  H   H49       1.0  0.54119  0.83259  0.21944  1.0000
  N   N9        1.0  0.53824  0.78846  0.20579  1.0000
  H   H50       1.0  0.53771  0.77205  0.20362  1.0000
  H   H51       1.0  0.52763  0.79104  0.16230  1.0000
  C   C69       1.0  0.84728  0.56607  0.34773  1.0000
  C   C70       1.0  0.80130  0.56968  0.34245  1.0000
  C   C71       1.0  0.82243  0.58494  0.28562  1.0000
  C   C72       1.0  0.84497  0.58321  0.28838  1.0000
  H   H52       1.0  0.82125  0.59695  0.23942  1.0000
  H   H53       1.0  0.85930  0.59380  0.24334  1.0000
  C   C73       1.0  0.77796  0.57033  0.33125  1.0000
  C   C74       1.0  0.72912  0.56827  0.32810  1.0000
  C   C75       1.0  0.73520  0.55427  0.26570  1.0000
  C   C76       1.0  0.75909  0.55482  0.26622  1.0000
  H   H54       1.0  0.72160  0.54288  0.21945  1.0000
  N   N10       1.0  0.76279  0.53994  0.20581  1.0000
  H   H55       1.0  0.77867  0.53941  0.20364  1.0000
  H   H56       1.0  0.74960  0.52933  0.16233  1.0000
  C   C77       1.0  0.45826  0.29593  0.34773  1.0000
  C   C78       1.0  0.45465  0.24635  0.34246  1.0000
  C   C79       1.0  0.43939  0.25221  0.28562  1.0000
  C   C80       1.0  0.44112  0.27648  0.28839  1.0000
  H   H57       1.0  0.42738  0.23902  0.23943  1.0000
  H   H58       1.0  0.43053  0.28021  0.24334  1.0000
  C   C81       1.0  0.45400  0.22235  0.33127  1.0000
  C   C82       1.0  0.45606  0.17557  0.32813  1.0000
  C   C83       1.0  0.47007  0.19565  0.26574  1.0000
  C   C84       1.0  0.46952  0.21899  0.26625  1.0000
  H   H59       1.0  0.48146  0.19345  0.21949  1.0000
  N   N11       1.0  0.48440  0.23758  0.20585  1.0000
  H   H60       1.0  0.48493  0.25399  0.20369  1.0000
  H   H61       1.0  0.49502  0.23500  0.16237  1.0000
  C   C85       1.0  0.72839  0.17705  0.34770  1.0000
  C   C86       1.0  0.77798  0.22303  0.34243  1.0000
  C   C87       1.0  0.77212  0.20190  0.28560  1.0000
  C   C88       1.0  0.74785  0.17936  0.28836  1.0000
  H   H62       1.0  0.78531  0.20308  0.23941  1.0000
  H   H63       1.0  0.74411  0.16504  0.24331  1.0000
  C   C89       1.0  0.80197  0.24637  0.33124  1.0000
  C   C90       1.0  0.84876  0.29520  0.32810  1.0000
  C   C91       1.0  0.82868  0.28913  0.26569  1.0000
  C   C92       1.0  0.80534  0.26524  0.26621  1.0000
  H   H64       1.0  0.83089  0.30273  0.21944  1.0000
  N   N12       1.0  0.78675  0.26154  0.20579  1.0000
  H   H65       1.0  0.77034  0.24566  0.20362  1.0000
  H   H66       1.0  0.78934  0.27473  0.16230  1.0000
  C   C93       1.0  0.40923  0.52233  0.27842  1.0000
  C   C94       1.0  0.43203  0.54659  0.27990  1.0000
  C   C95       1.0  0.46194  0.60998  0.28851  1.0000
  C   C96       1.0  0.48595  0.63272  0.29003  1.0000
  H   H67       1.0  0.44901  0.60780  0.23953  1.0000
  H   H68       1.0  0.48988  0.64636  0.24182  1.0000
  H   H69       1.0  0.40841  0.50832  0.23698  1.0000
  N   N13       1.0  0.45210  0.55017  0.22724  1.0000
  H   H70       1.0  0.45093  0.53655  0.18856  1.0000
  H   H71       1.0  0.46821  0.56638  0.22594  1.0000
  C   C97       1.0  0.50198  0.90160  0.27839  1.0000
  C   C98       1.0  0.47772  0.90014  0.27989  1.0000
  C   C99       1.0  0.41433  0.86666  0.28851  1.0000
  C   C100      1.0  0.39160  0.86794  0.29004  1.0000
  H   H72       1.0  0.41651  0.85591  0.23954  1.0000
  H   H73       1.0  0.37795  0.85822  0.24184  1.0000
  H   H74       1.0  0.51599  0.91480  0.23695  1.0000
  N   N14       1.0  0.47414  0.91664  0.22722  1.0000
  H   H75       1.0  0.48776  0.92909  0.18854  1.0000
  H   H76       1.0  0.45794  0.91654  0.22594  1.0000
  C   C101      1.0  0.89990  0.41094  0.27840  1.0000
  C   C102      1.0  0.89844  0.43373  0.27989  1.0000
  C   C103      1.0  0.86496  0.46364  0.28850  1.0000
  C   C104      1.0  0.86624  0.48766  0.29003  1.0000
  H   H77       1.0  0.85421  0.45071  0.23953  1.0000
  H   H78       1.0  0.85652  0.49158  0.24182  1.0000
  H   H79       1.0  0.91310  0.41012  0.23696  1.0000
  N   N15       1.0  0.91494  0.45381  0.22723  1.0000
  H   H80       1.0  0.92739  0.45265  0.18856  1.0000
  H   H81       1.0  0.91484  0.46992  0.22595  1.0000
  C   C105      1.0  0.61339  0.50369  0.27840  1.0000
  C   C106      1.0  0.59059  0.47942  0.27989  1.0000
  C   C107      1.0  0.56068  0.41604  0.28851  1.0000
  C   C108      1.0  0.53667  0.39330  0.29003  1.0000
  H   H82       1.0  0.57361  0.41822  0.23953  1.0000
  H   H83       1.0  0.53274  0.37966  0.24183  1.0000
  H   H84       1.0  0.61420  0.51770  0.23695  1.0000
  N   N16       1.0  0.57052  0.47585  0.22723  1.0000
  H   H85       1.0  0.57168  0.48946  0.18855  1.0000
  H   H86       1.0  0.55441  0.45964  0.22594  1.0000
  C   C109      1.0  0.52063  0.12440  0.27843  1.0000
  C   C110      1.0  0.54489  0.12587  0.27991  1.0000
  C   C111      1.0  0.60828  0.15935  0.28851  1.0000
  C   C112      1.0  0.63102  0.15808  0.29002  1.0000
  H   H87       1.0  0.60610  0.17011  0.23955  1.0000
  H   H88       1.0  0.64467  0.16780  0.24183  1.0000
  H   H89       1.0  0.50661  0.11121  0.23700  1.0000
  N   N17       1.0  0.54846  0.10937  0.22725  1.0000
  H   H90       1.0  0.53485  0.09692  0.18859  1.0000
  H   H91       1.0  0.56467  0.10947  0.22596  1.0000
  C   C113      1.0  0.99833  0.37680  0.34243  1.0000
  C   C114      1.0  0.94374  0.35616  0.35095  1.0000
  C   C115      1.0  0.95510  0.35012  0.27871  1.0000
  C   C116      1.0  0.98210  0.36025  0.27286  1.0000
  H   H92       1.0  0.94363  0.33930  0.22656  1.0000
  N   N18       1.0  0.99164  0.35406  0.20002  1.0000
  H   H93       1.0  0.98037  0.34267  0.15320  1.0000
  C   C117      1.0  0.59765  0.66828  0.33022  1.0000
  C   C118      1.0  0.63314  0.64939  0.33606  1.0000
  C   C119      1.0  0.61359  0.64074  0.27007  1.0000
  C   C120      1.0  0.59631  0.65005  0.26703  1.0000
  H   H94       1.0  0.61099  0.62660  0.22562  1.0000
  H   H95       1.0  0.58193  0.64250  0.22005  1.0000
  C   C121      1.0  0.64753  0.63626  0.34243  1.0000
  C   C122      1.0  0.66817  0.60230  0.35095  1.0000
  C   C123      1.0  0.67421  0.61971  0.27871  1.0000
  C   C124      1.0  0.66408  0.63657  0.27286  1.0000
  H   H96       1.0  0.68503  0.61905  0.22657  1.0000
  N   N19       1.0  0.67028  0.65231  0.20003  1.0000
  H   H97       1.0  0.66455  0.66476  0.19423  1.0000
  H   H98       1.0  0.68167  0.65243  0.15323  1.0000
  C   C125      1.0  0.35605  0.94408  0.33023  1.0000
  C   C126      1.0  0.37493  0.99846  0.33606  1.0000
  C   C127      1.0  0.38360  0.98757  0.27010  1.0000
  C   C128      1.0  0.37429  0.96098  0.26705  1.0000
  H   H99       1.0  0.39774  0.99911  0.22567  1.0000
  H   H100      1.0  0.38184  0.95415  0.22010  1.0000
  C   C129      1.0  0.38806  0.02599  0.34243  1.0000
  C   C130      1.0  0.42201  0.08059  0.35100  1.0000
  C   C131      1.0  0.40462  0.06922  0.27871  1.0000
  C   C132      1.0  0.38777  0.04222  0.27284  1.0000
  H   H101      1.0  0.40529  0.08069  0.22655  1.0000
  N   N20       1.0  0.37204  0.03268  0.19997  1.0000
  H   H102      1.0  0.35959  0.01451  0.19415  1.0000
  H   H103      1.0  0.37193  0.04396  0.15315  1.0000
  C   C133      1.0  0.94239  0.59935  0.33026  1.0000
  C   C134      1.0  0.99676  0.63484  0.33606  1.0000
  C   C135      1.0  0.98587  0.61529  0.27010  1.0000
  C   C136      1.0  0.95928  0.59801  0.26705  1.0000
  H   H104      1.0  0.99740  0.61269  0.22565  1.0000
  H   H105      1.0  0.95244  0.58363  0.22009  1.0000
  C   C137      1.0  0.42497  0.35776  0.33024  1.0000
  C   C138      1.0  0.38948  0.37663  0.33606  1.0000
  C   C139      1.0  0.40903  0.38530  0.27010  1.0000
  C   C140      1.0  0.42631  0.37599  0.26705  1.0000
  H   H106      1.0  0.41163  0.39943  0.22565  1.0000
  H   H107      1.0  0.44070  0.38354  0.22009  1.0000
  C   C141      1.0  0.37509  0.38976  0.34243  1.0000
  C   C142      1.0  0.35444  0.42372  0.35097  1.0000
  C   C143      1.0  0.34841  0.40632  0.27871  1.0000
  C   C144      1.0  0.35854  0.38946  0.27285  1.0000
  H   H108      1.0  0.33760  0.40698  0.22656  1.0000
  N   N21       1.0  0.35235  0.37373  0.20000  1.0000
  H   H109      1.0  0.35808  0.36128  0.19419  1.0000
  H   H110      1.0  0.34096  0.37361  0.15318  1.0000
  C   C145      1.0  0.66659  0.08194  0.33016  1.0000
  C   C146      1.0  0.64768  0.02756  0.33607  1.0000
  C   C147      1.0  0.63903  0.03845  0.27006  1.0000
  C   C148      1.0  0.64835  0.06504  0.26699  1.0000
  H   H111      1.0  0.62490  0.02692  0.22561  1.0000
  H   H112      1.0  0.64081  0.07188  0.22000  1.0000
  C   C149      1.0  0.63455  0.00004  0.34244  1.0000
  C   C150      1.0  0.60060  0.94544  0.35097  1.0000
  C   C151      1.0  0.61801  0.95680  0.27874  1.0000
  C   C152      1.0  0.63487  0.98380  0.27288  1.0000
  H   H113      1.0  0.61735  0.94533  0.22660  1.0000
  N   N22       1.0  0.65061  0.99334  0.20006  1.0000
  H   H114      1.0  0.66306  0.01152  0.19426  1.0000
  H   H115      1.0  0.65073  0.98206  0.15327  1.0000
  C   C153      1.0  0.53047  0.65743  0.34757  1.0000
  C   C154      1.0  0.55169  0.65349  0.34163  1.0000
  C   C155      1.0  0.57726  0.67410  0.33613  1.0000
  C   C156      1.0  0.58134  0.69948  0.33942  1.0000
  C   C157      1.0  0.56057  0.70444  0.34522  1.0000
  C   C158      1.0  0.53527  0.68296  0.34752  1.0000
  H   H116      1.0  0.59978  0.71460  0.33733  1.0000
  H   H117      1.0  0.51988  0.68586  0.35016  1.0000
  H   H118      1.0  0.54836  0.63502  0.34099  1.0000
  C   C159      1.0  0.36689  0.88775  0.34759  1.0000
  C   C160      1.0  0.37083  0.91291  0.34166  1.0000
  C   C161      1.0  0.35022  0.91787  0.33614  1.0000
  C   C162      1.0  0.32484  0.89657  0.33942  1.0000
  C   C163      1.0  0.31988  0.87085  0.34522  1.0000
  C   C164      1.0  0.34136  0.86703  0.34753  1.0000
  H   H119      1.0  0.30973  0.89989  0.33732  1.0000
  H   H120      1.0  0.33847  0.84874  0.35017  1.0000
  H   H121      1.0  0.38931  0.92806  0.34102  1.0000
  C   C165      1.0  0.88605  0.53218  0.34759  1.0000
  C   C166      1.0  0.91121  0.55339  0.34164  1.0000
  C   C167      1.0  0.91617  0.57897  0.33613  1.0000
  C   C168      1.0  0.89487  0.58305  0.33944  1.0000
  C   C169      1.0  0.86915  0.56228  0.34524  1.0000
  C   C170      1.0  0.86532  0.53698  0.34755  1.0000
  H   H122      1.0  0.89820  0.60148  0.33736  1.0000
  H   H123      1.0  0.84704  0.52159  0.35018  1.0000
  H   H124      1.0  0.92635  0.55006  0.34101  1.0000
  C   C171      1.0  0.49215  0.36859  0.34759  1.0000
  C   C172      1.0  0.47094  0.37254  0.34163  1.0000
  C   C173      1.0  0.44536  0.35193  0.33610  1.0000
  C   C174      1.0  0.44128  0.32654  0.33943  1.0000
  C   C175      1.0  0.46204  0.32158  0.34524  1.0000
  C   C176      1.0  0.48734  0.34306  0.34755  1.0000
  H   H125      1.0  0.42284  0.31143  0.33736  1.0000
  H   H126      1.0  0.50273  0.34016  0.35018  1.0000
  H   H127      1.0  0.47427  0.39101  0.34098  1.0000
  C   C177      1.0  0.65573  0.13827  0.34755  1.0000
  C   C178      1.0  0.65179  0.11311  0.34158  1.0000
  C   C179      1.0  0.67241  0.10815  0.33605  1.0000
  C   C180      1.0  0.69779  0.12946  0.33938  1.0000
  C   C181      1.0  0.70274  0.15518  0.34520  1.0000
  C   C182      1.0  0.68126  0.15900  0.34753  1.0000
  H   H128      1.0  0.71290  0.12613  0.33731  1.0000
  H   H129      1.0  0.68415  0.17728  0.35017  1.0000
  H   H130      1.0  0.63332  0.09797  0.34093  1.0000
  C   C183      1.0  0.48944  0.13640  0.33642  1.0000
  C   C184      1.0  0.46802  0.11138  0.34427  1.0000
  C   C185      1.0  0.44252  0.10669  0.34634  1.0000
  C   C186      1.0  0.43860  0.12803  0.33966  1.0000
  C   C187      1.0  0.45955  0.15359  0.33278  1.0000
  C   C188      1.0  0.48477  0.15721  0.33203  1.0000
  H   H131      1.0  0.42021  0.12487  0.33981  1.0000
  H   H132      1.0  0.50018  0.17544  0.32758  1.0000
  H   H133      1.0  0.47109  0.09609  0.34841  1.0000
  C   C189      1.0  0.65656  0.53488  0.33639  1.0000
  C   C190      1.0  0.65296  0.55629  0.34425  1.0000
  C   C191      1.0  0.67377  0.58180  0.34635  1.0000
  C   C192      1.0  0.69903  0.58572  0.33965  1.0000
  C   C193      1.0  0.70365  0.56478  0.33276  1.0000
  C   C194      1.0  0.68205  0.53956  0.33201  1.0000
  H   H134      1.0  0.71426  0.60411  0.33979  1.0000
  H   H135      1.0  0.68488  0.52415  0.32756  1.0000
  H   H136      1.0  0.63461  0.55323  0.34837  1.0000
  C   C195      1.0  0.88792  0.36776  0.33639  1.0000
  C   C196      1.0  0.91294  0.37137  0.34425  1.0000
  C   C197      1.0  0.91764  0.35055  0.34635  1.0000
  C   C198      1.0  0.89630  0.32530  0.33965  1.0000
  C   C199      1.0  0.87073  0.32068  0.33276  1.0000
  C   C200      1.0  0.86711  0.34227  0.33203  1.0000
  H   H137      1.0  0.89946  0.31007  0.33979  1.0000
  H   H138      1.0  0.84887  0.33945  0.32756  1.0000
  H   H139      1.0  0.92822  0.38972  0.34837  1.0000
  C   C201      1.0  0.53317  0.88962  0.33640  1.0000
  C   C202      1.0  0.55459  0.91464  0.34426  1.0000
  C   C203      1.0  0.58010  0.91934  0.34636  1.0000
  C   C204      1.0  0.58402  0.89800  0.33966  1.0000
  C   C205      1.0  0.56307  0.87243  0.33277  1.0000
  C   C206      1.0  0.53785  0.86881  0.33203  1.0000
  H   H140      1.0  0.60241  0.90117  0.33981  1.0000
  H   H141      1.0  0.52245  0.85057  0.32756  1.0000
  H   H142      1.0  0.55152  0.92992  0.34838  1.0000
  C   C207      1.0  0.36605  0.49114  0.33642  1.0000
  C   C208      1.0  0.36966  0.46973  0.34427  1.0000
  C   C209      1.0  0.34884  0.44422  0.34636  1.0000
  C   C210      1.0  0.32359  0.44030  0.33967  1.0000
  C   C211      1.0  0.31897  0.46125  0.33281  1.0000
  C   C212      1.0  0.34057  0.48647  0.33206  1.0000
  H   H143      1.0  0.30836  0.42191  0.33981  1.0000
  H   H144      1.0  0.33774  0.50188  0.32760  1.0000
  H   H145      1.0  0.38800  0.47279  0.34838  1.0000
  C   C213      1.0  0.54970  0.73644  0.40613  1.0000
  C   C214      1.0  0.55094  0.76065  0.40429  1.0000
  C   C215      1.0  0.58327  0.82393  0.39210  1.0000
  C   C216      1.0  0.58234  0.84691  0.39031  1.0000
  H   H146      1.0  0.59407  0.82173  0.44079  1.0000
  H   H147      1.0  0.59228  0.86054  0.43833  1.0000
  H   H148      1.0  0.53741  0.72288  0.45080  1.0000
  N   N23       1.0  0.53529  0.76452  0.46051  1.0000
  H   H149      1.0  0.52359  0.75119  0.50169  1.0000
  H   H150      1.0  0.53511  0.78059  0.46134  1.0000
  H   H151      1.0  0.30145  0.82925  0.45082  1.0000
  C   C217      1.0  0.82628  0.55142  0.40617  1.0000
  C   C218      1.0  0.80330  0.55264  0.40432  1.0000
  C   C219      1.0  0.77234  0.58497  0.39209  1.0000
  C   C220      1.0  0.74843  0.58404  0.39031  1.0000
  H   H152      1.0  0.78535  0.59577  0.44078  1.0000
  H   H153      1.0  0.74475  0.59398  0.43831  1.0000
  H   H154      1.0  0.82756  0.53913  0.45086  1.0000
  N   N24       1.0  0.78379  0.53700  0.46054  1.0000
  H   H155      1.0  0.78542  0.52531  0.50173  1.0000
  H   H156      1.0  0.76754  0.53681  0.46136  1.0000
  C   C221      1.0  0.47291  0.28958  0.40619  1.0000
  C   C222      1.0  0.47169  0.26538  0.40433  1.0000
  C   C223      1.0  0.43936  0.20209  0.39210  1.0000
  C   C224      1.0  0.44029  0.17911  0.39031  1.0000
  H   H157      1.0  0.42856  0.20430  0.44077  1.0000
  H   H158      1.0  0.43034  0.16549  0.43832  1.0000
  H   H159      1.0  0.48520  0.30315  0.45086  1.0000
  N   N25       1.0  0.48733  0.26151  0.46056  1.0000
  H   H160      1.0  0.49902  0.27484  0.50175  1.0000
  H   H161      1.0  0.48752  0.24545  0.46139  1.0000
  C   C225      1.0  0.73474  0.19805  0.40614  1.0000
  C   C226      1.0  0.75894  0.22102  0.40429  1.0000
  C   C227      1.0  0.82223  0.25199  0.39209  1.0000
  C   C228      1.0  0.84521  0.27590  0.39031  1.0000
  H   H162      1.0  0.82002  0.23898  0.44078  1.0000
  H   H163      1.0  0.85883  0.27958  0.43832  1.0000
  H   H164      1.0  0.72117  0.19677  0.45082  1.0000
  N   N26       1.0  0.76282  0.24055  0.46052  1.0000
  H   H165      1.0  0.74948  0.23890  0.50171  1.0000
  H   H166      1.0  0.77888  0.25679  0.46135  1.0000
  C   C229      1.0  0.38779  0.51660  0.33350  1.0000
  C   C230      1.0  0.43316  0.56601  0.33786  1.0000
  C   C231      1.0  0.41158  0.56073  0.39112  1.0000
  C   C232      1.0  0.38922  0.53642  0.38875  1.0000
  H   H167      1.0  0.41229  0.57430  0.43454  1.0000
  H   H168      1.0  0.37441  0.53296  0.43111  1.0000
  C   C233      1.0  0.45626  0.58986  0.34988  1.0000
  C   C234      1.0  0.50504  0.63586  0.35238  1.0000
  C   C235      1.0  0.49893  0.61598  0.41546  1.0000
  C   C236      1.0  0.47490  0.59291  0.41535  1.0000
  H   H169      1.0  0.51257  0.61809  0.46143  1.0000
  N   N27       1.0  0.47084  0.57435  0.47640  1.0000
  H   H170      1.0  0.45473  0.55817  0.47919  1.0000
  H   H171      1.0  0.48391  0.57682  0.52028  1.0000
  C   C237      1.0  0.50772  0.88589  0.33347  1.0000
  C   C238      1.0  0.45831  0.88185  0.33786  1.0000
  C   C239      1.0  0.46359  0.86556  0.39111  1.0000
  C   C240      1.0  0.48790  0.86751  0.38873  1.0000
  H   H172      1.0  0.45002  0.85270  0.43455  1.0000
  H   H173      1.0  0.49136  0.85616  0.43110  1.0000
  C   C241      1.0  0.43446  0.88111  0.34989  1.0000
  C   C242      1.0  0.38846  0.88389  0.35240  1.0000
  C   C243      1.0  0.40834  0.89766  0.41547  1.0000
  C   C244      1.0  0.43141  0.89669  0.41536  1.0000
  H   H174      1.0  0.40623  0.90918  0.46144  1.0000
  N   N28       1.0  0.44998  0.91120  0.47640  1.0000
  H   H175      1.0  0.46616  0.91127  0.47919  1.0000
  H   H176      1.0  0.44750  0.92180  0.52028  1.0000
  C   C245      1.0  0.88419  0.38950  0.33346  1.0000
  C   C246      1.0  0.88015  0.43486  0.33786  1.0000
  C   C247      1.0  0.86386  0.41328  0.39110  1.0000
  C   C248      1.0  0.86581  0.39092  0.38873  1.0000
  H   H177      1.0  0.85099  0.41399  0.43453  1.0000
  H   H178      1.0  0.85445  0.37611  0.43108  1.0000
  C   C249      1.0  0.87941  0.45796  0.34988  1.0000
  C   C250      1.0  0.88219  0.50675  0.35240  1.0000
  C   C251      1.0  0.89595  0.50063  0.41548  1.0000
  C   C252      1.0  0.89499  0.47660  0.41537  1.0000
  H   H179      1.0  0.90747  0.51427  0.46145  1.0000
  N   N29       1.0  0.90949  0.47254  0.47641  1.0000
  H   H180      1.0  0.90956  0.45643  0.47920  1.0000
  H   H181      1.0  0.92008  0.48561  0.52030  1.0000
  C   C253      1.0  0.63483  0.50942  0.33346  1.0000
  C   C254      1.0  0.58947  0.46001  0.33785  1.0000
  C   C255      1.0  0.61104  0.46529  0.39109  1.0000
  C   C256      1.0  0.63340  0.48961  0.38872  1.0000
  H   H182      1.0  0.61033  0.45172  0.43453  1.0000
  H   H183      1.0  0.64822  0.49307  0.43108  1.0000
  C   C257      1.0  0.56636  0.43616  0.34988  1.0000
  C   C258      1.0  0.51758  0.39016  0.35239  1.0000
  C   C259      1.0  0.52369  0.41004  0.41547  1.0000
  C   C260      1.0  0.54773  0.43311  0.41536  1.0000
  H   H184      1.0  0.51006  0.40793  0.46144  1.0000
  N   N30       1.0  0.55179  0.45167  0.47641  1.0000
  H   H185      1.0  0.56789  0.46786  0.47919  1.0000
  H   H186      1.0  0.53871  0.44920  0.52028  1.0000
  C   C261      1.0  0.51490  0.14011  0.33351  1.0000
  C   C262      1.0  0.56430  0.14416  0.33786  1.0000
  C   C263      1.0  0.55903  0.16046  0.39109  1.0000
  C   C264      1.0  0.53472  0.15851  0.38873  1.0000
  H   H187      1.0  0.57261  0.17333  0.43451  1.0000
  H   H188      1.0  0.53126  0.16987  0.43108  1.0000
  C   C265      1.0  0.58815  0.14490  0.34988  1.0000
  C   C266      1.0  0.63416  0.14212  0.35237  1.0000
  C   C267      1.0  0.61428  0.12835  0.41544  1.0000
  C   C268      1.0  0.59121  0.12932  0.41533  1.0000
  H   H189      1.0  0.61639  0.11683  0.46139  1.0000
  N   N31       1.0  0.57264  0.11481  0.47637  1.0000
  H   H190      1.0  0.55646  0.11473  0.47917  1.0000
  H   H191      1.0  0.57512  0.10421  0.52024  1.0000
  C   C269      1.0  0.98680  0.38211  0.41613  1.0000
  C   C270      1.0  0.96008  0.37204  0.42023  1.0000
  H   H192      1.0  0.99796  0.39466  0.46545  1.0000
  H   H193      1.0  0.95275  0.37750  0.47242  1.0000
  C   C271      1.0  0.61773  0.67762  0.39429  1.0000
  C   C272      1.0  0.63541  0.66844  0.39871  1.0000
  C   C273      1.0  0.64221  0.61941  0.41613  1.0000
  C   C274      1.0  0.65228  0.60276  0.42022  1.0000
  H   H194      1.0  0.62967  0.61803  0.46544  1.0000
  H   H195      1.0  0.64682  0.58997  0.47242  1.0000
  H   H196      1.0  0.61867  0.69038  0.44193  1.0000
  N   N32       1.0  0.65390  0.67801  0.46346  1.0000
  H   H197      1.0  0.65545  0.69121  0.50514  1.0000
  H   H198      1.0  0.66699  0.67308  0.46719  1.0000
  C   C275      1.0  0.34670  0.95482  0.39428  1.0000
  C   C276      1.0  0.35588  0.98169  0.39870  1.0000
  C   C277      1.0  0.40490  0.03752  0.41615  1.0000
  C   C278      1.0  0.42154  0.06424  0.42025  1.0000
  H   H199      1.0  0.40628  0.02636  0.46548  1.0000
  H   H200      1.0  0.43433  0.07157  0.47247  1.0000
  H   H201      1.0  0.33393  0.94300  0.44190  1.0000
  N   N33       1.0  0.34630  0.99060  0.46342  1.0000
  H   H202      1.0  0.33310  0.97895  0.50509  1.0000
  H   H203      1.0  0.35123  0.00862  0.46715  1.0000
  C   C279      1.0  0.95312  0.61944  0.39429  1.0000
  C   C280      1.0  0.97998  0.63712  0.39871  1.0000
  H   H204      1.0  0.94130  0.62038  0.44191  1.0000
  N   N34       1.0  0.98890  0.65561  0.46342  1.0000
  H   H205      1.0  0.97725  0.65717  0.50510  1.0000
  H   H206      1.0  0.00692  0.66871  0.46715  1.0000
  C   C281      1.0  0.40488  0.34840  0.39428  1.0000
  C   C282      1.0  0.38720  0.35758  0.39869  1.0000
  C   C283      1.0  0.38039  0.40660  0.41615  1.0000
  C   C284      1.0  0.37032  0.42325  0.42025  1.0000
  H   H207      1.0  0.39293  0.40799  0.46547  1.0000
  H   H208      1.0  0.37578  0.43604  0.47245  1.0000
  H   H209      1.0  0.40394  0.33563  0.44189  1.0000
  N   N35       1.0  0.36871  0.34800  0.46341  1.0000
  H   H210      1.0  0.36715  0.33479  0.50508  1.0000
  H   H211      1.0  0.35561  0.35293  0.46714  1.0000
  C   C285      1.0  0.67591  0.07120  0.39428  1.0000
  C   C286      1.0  0.66672  0.04434  0.39873  1.0000
  C   C287      1.0  0.61770  0.98851  0.41613  1.0000
  C   C288      1.0  0.60105  0.96179  0.42023  1.0000
  H   H212      1.0  0.61631  0.99966  0.46544  1.0000
  H   H213      1.0  0.58825  0.95446  0.47242  1.0000
  H   H214      1.0  0.68867  0.08302  0.44192  1.0000
  N   N36       1.0  0.67629  0.03543  0.46350  1.0000
  H   H215      1.0  0.68949  0.04707  0.50519  1.0000
  H   H216      1.0  0.67136  0.01740  0.46726  1.0000
