data_image0
_chemical_formula_structural       C2NOCHC2NOCHC2NOCHC2NOCHC4NOCHC4NOCHC2NOCHC2NOCHC4NOCHC4NOCHC2NOCHC2NOCHC2NOCHC2NOCHC4NOCHC4NOCHC4NOCHC4NOCHC6H3C6H3C6H3C6H3C6H3C6H3C6H3C6H3C6H3C6H3C6H3C6H3C4NOCHC4NOCHC4NOCHC4NOCHC2NOCHC2NOCHC4NOCHC4NOCHC2NOCHC2NOCHC4NOCHC4NOCHC4NOCHC4NOCHC2NOCHC2NOCHC2NOCHC2NOCHC2NOCHC2NOCHC2NOCHC2NOCHC4NOCHC4NOCHC2NOCHC2NOCHC4NOCHC4NOCHC2NOCHC2NOCHC2NOCHC2NOCHC4NOCHC4NOCHC4NOCHC4NOCHC6H3C6H3C6H3C6H3C6H3C6H3C6H3C6H3C6H3C6H3C6H3C6H3C4NOCHC4NOCHC4NOCHC4NOCHC2NOCHC2NOCHC4NOCHC4NOCHC2NOCHC2NOCHC4NOCHC4NOCHC4NOCHC4NOCHC2NOCHC2NOCHC2NOCHC2NOCH
_chemical_formula_sum              "C432 N72 O72 H144"
_cell_length_a       43.3034
_cell_length_b       56.1412
_cell_length_c       14.9092
_cell_angle_alpha    90
_cell_angle_beta     90
_cell_angle_gamma    90

_space_group_name_H-M_alt    "P 1"
_space_group_IT_number       1

loop_
  _space_group_symop_operation_xyz
  'x, y, z'

loop_
  _atom_site_type_symbol
  _atom_site_label
  _atom_site_symmetry_multiplicity
  _atom_site_fract_x
  _atom_site_fract_y
  _atom_site_fract_z
  _atom_site_occupancy
  C   C1        1.0  0.23726  0.18537  0.26933  1.0000
  C   C2        1.0  0.26938  0.18529  0.27154  1.0000
  N   N1        1.0  0.27877  0.20163  0.21251  1.0000
  O   O1        1.0  0.22638  0.20163  0.20883  1.0000
  C   C3        1.0  0.25319  0.21114  0.17721  1.0000
  H   H1        1.0  0.25372  0.22401  0.12879  1.0000
  C   C4        1.0  0.26979  0.85422  0.33260  1.0000
  C   C5        1.0  0.23730  0.85396  0.33266  1.0000
  N   N2        1.0  0.22828  0.87008  0.27257  1.0000
  O   O2        1.0  0.28088  0.87035  0.27232  1.0000
  C   C6        1.0  0.25413  0.88030  0.24151  1.0000
  H   H2        1.0  0.25384  0.89228  0.18997  1.0000
  C   C7        1.0  0.48643  0.68617  0.27375  1.0000
  C   C8        1.0  0.01857  0.68596  0.27401  1.0000
  N   N3        1.0  0.02761  0.70216  0.21396  1.0000
  O   O3        1.0  0.47521  0.70242  0.21373  1.0000
  C   C9        1.0  0.50184  0.71170  0.17994  1.0000
  H   H3        1.0  0.50212  0.72462  0.13169  1.0000
  C   C10       1.0  0.01950  0.32042  0.27263  1.0000
  C   C11       1.0  0.48736  0.32047  0.27197  1.0000
  N   N4        1.0  0.47863  0.30420  0.21181  1.0000
  O   O4        1.0  0.03103  0.30422  0.21290  1.0000
  C   C12       1.0  0.00458  0.29480  0.17845  1.0000
  H   H4        1.0  0.00457  0.28186  0.13028  1.0000
  C   C13       1.0  0.05915  0.10728  0.33172  1.0000
  C   C14       1.0  0.05851  0.12905  0.28288  1.0000
  C   C15       1.0  0.08256  0.14559  0.28593  1.0000
  C   C16       1.0  0.10999  0.14208  0.33615  1.0000
  N   N5        1.0  0.07499  0.16312  0.22962  1.0000
  O   O5        1.0  0.03619  0.13614  0.22386  1.0000
  C   C17       1.0  0.04725  0.15761  0.19625  1.0000
  H   H5        1.0  0.03668  0.16755  0.14774  1.0000
  C   C18       1.0  0.44712  0.89886  0.31975  1.0000
  C   C19       1.0  0.44661  0.87757  0.26803  1.0000
  C   C20       1.0  0.42225  0.86128  0.27198  1.0000
  C   C21       1.0  0.39579  0.86450  0.32676  1.0000
  N   N6        1.0  0.42879  0.84404  0.21333  1.0000
  O   O6        1.0  0.46818  0.87060  0.20646  1.0000
  C   C22       1.0  0.45604  0.84967  0.17679  1.0000
  H   H6        1.0  0.46633  0.83955  0.12833  1.0000
  C   C23       1.0  0.42293  0.14492  0.28444  1.0000
  C   C24       1.0  0.44680  0.12822  0.28230  1.0000
  N   N7        1.0  0.46735  0.13630  0.22297  1.0000
  O   O7        1.0  0.42849  0.16333  0.22665  1.0000
  C   C25       1.0  0.45642  0.15702  0.19219  1.0000
  H   H7        1.0  0.46760  0.16690  0.14469  1.0000
  C   C26       1.0  0.08450  0.86069  0.26984  1.0000
  C   C27       1.0  0.06035  0.87719  0.26685  1.0000
  N   N8        1.0  0.04001  0.86885  0.20738  1.0000
  O   O8        1.0  0.07937  0.84222  0.21203  1.0000
  C   C28       1.0  0.05139  0.84822  0.17704  1.0000
  H   H8        1.0  0.04044  0.83817  0.12961  1.0000
  C   C29       1.0  0.30884  0.60740  0.33537  1.0000
  C   C30       1.0  0.30817  0.62889  0.28479  1.0000
  C   C31       1.0  0.33225  0.64543  0.28636  1.0000
  C   C32       1.0  0.35971  0.64216  0.33667  1.0000
  N   N9        1.0  0.32459  0.66274  0.22922  1.0000
  O   O9        1.0  0.28570  0.63576  0.22586  1.0000
  C   C33       1.0  0.29679  0.65708  0.19658  1.0000
  H   H9        1.0  0.28606  0.66687  0.14795  1.0000
  C   C34       1.0  0.19668  0.39921  0.33741  1.0000
  C   C35       1.0  0.19698  0.37787  0.28587  1.0000
  C   C36       1.0  0.17285  0.36140  0.28788  1.0000
  C   C37       1.0  0.14572  0.36459  0.33968  1.0000
  N   N10       1.0  0.18020  0.34411  0.23027  1.0000
  O   O10       1.0  0.21918  0.37102  0.22609  1.0000
  C   C38       1.0  0.20772  0.34990  0.19602  1.0000
  H   H10       1.0  0.21860  0.33983  0.14849  1.0000
  C   C39       1.0  0.17259  0.64515  0.28979  1.0000
  C   C40       1.0  0.19640  0.62840  0.28834  1.0000
  N   N11       1.0  0.21682  0.63614  0.22796  1.0000
  O   O11       1.0  0.17806  0.66325  0.23053  1.0000
  C   C41       1.0  0.20587  0.65672  0.19595  1.0000
  H   H11       1.0  0.21695  0.66632  0.14743  1.0000
  C   C42       1.0  0.33247  0.36037  0.28813  1.0000
  C   C43       1.0  0.30871  0.37718  0.28685  1.0000
  N   N12       1.0  0.28787  0.36922  0.22814  1.0000
  O   O12       1.0  0.32658  0.34207  0.23015  1.0000
  C   C44       1.0  0.29854  0.34848  0.19680  1.0000
  H   H12       1.0  0.28712  0.33870  0.14947  1.0000
  C   C45       1.0  0.14771  0.24464  0.27766  1.0000
  C   C46       1.0  0.14026  0.26887  0.28152  1.0000
  N   N13       1.0  0.15377  0.27929  0.21153  1.0000
  O   O13       1.0  0.16606  0.23972  0.20571  1.0000
  C   C47       1.0  0.16895  0.26188  0.16851  1.0000
  H   H13       1.0  0.18125  0.26486  0.11112  1.0000
  C   C48       1.0  0.35959  0.76268  0.27538  1.0000
  C   C49       1.0  0.36678  0.73839  0.27796  1.0000
  N   N14       1.0  0.35452  0.72859  0.20485  1.0000
  O   O14       1.0  0.34239  0.76826  0.20183  1.0000
  C   C50       1.0  0.34030  0.74643  0.16147  1.0000
  H   H14       1.0  0.32891  0.74393  0.10219  1.0000
  C   C51       1.0  0.38568  0.27777  0.34121  1.0000
  C   C52       1.0  0.39752  0.26133  0.27767  1.0000
  C   C53       1.0  0.39012  0.23709  0.28120  1.0000
  C   C54       1.0  0.37074  0.22740  0.34826  1.0000
  N   N15       1.0  0.40372  0.22674  0.21119  1.0000
  O   O15       1.0  0.41595  0.26633  0.20596  1.0000
  C   C55       1.0  0.41887  0.24421  0.16841  1.0000
  H   H15       1.0  0.43132  0.24128  0.11128  1.0000
  C   C56       1.0  0.12064  0.72795  0.34312  1.0000
  C   C57       1.0  0.10979  0.74419  0.27749  1.0000
  C   C58       1.0  0.11752  0.76838  0.28027  1.0000
  C   C59       1.0  0.13629  0.77824  0.34855  1.0000
  N   N16       1.0  0.10479  0.77851  0.20844  1.0000
  O   O16       1.0  0.09198  0.73902  0.20465  1.0000
  C   C60       1.0  0.08978  0.76099  0.16552  1.0000
  H   H16       1.0  0.07800  0.76377  0.10710  1.0000
  C   C61       1.0  0.00380  0.97658  0.34690  1.0000
  C   C62       1.0  0.02164  0.99056  0.28691  1.0000
  C   C63       1.0  0.02140  0.01555  0.28953  1.0000
  C   C64       1.0  0.00371  0.02886  0.35195  1.0000
  N   N17       1.0  0.03918  0.02302  0.22228  1.0000
  O   O17       1.0  0.03943  0.98235  0.21813  1.0000
  C   C65       1.0  0.04983  0.00327  0.18225  1.0000
  H   H17       1.0  0.06369  0.00383  0.12685  1.0000
  C   C66       1.0  0.25344  0.47696  0.36315  1.0000
  C   C67       1.0  0.27112  0.49057  0.30159  1.0000
  C   C68       1.0  0.27080  0.51557  0.30189  1.0000
  C   C69       1.0  0.25324  0.52926  0.36349  1.0000
  N   N18       1.0  0.28851  0.52262  0.23383  1.0000
  O   O18       1.0  0.28887  0.48193  0.23345  1.0000
  C   C70       1.0  0.29904  0.50262  0.19528  1.0000
  H   H18       1.0  0.31311  0.50284  0.14029  1.0000
  C   C71       1.0  0.14498  0.20369  0.34068  1.0000
  C   C72       1.0  0.17645  0.19779  0.33647  1.0000
  C   C73       1.0  0.18726  0.17397  0.33506  1.0000
  C   C74       1.0  0.16499  0.15556  0.34400  1.0000
  C   C75       1.0  0.13273  0.16042  0.34237  1.0000
  C   C76       1.0  0.12359  0.18479  0.34319  1.0000
  H   H19       1.0  0.17230  0.13831  0.33832  1.0000
  H   H20       1.0  0.10070  0.18911  0.34789  1.0000
  H   H21       1.0  0.19205  0.21149  0.33938  1.0000
  C   C77       1.0  0.36126  0.80286  0.34386  1.0000
  C   C78       1.0  0.33002  0.80849  0.35716  1.0000
  C   C79       1.0  0.31926  0.83229  0.36321  1.0000
  C   C80       1.0  0.34133  0.85073  0.35087  1.0000
  C   C81       1.0  0.37329  0.84607  0.33693  1.0000
  C   C82       1.0  0.38251  0.82172  0.33567  1.0000
  H   H22       1.0  0.33386  0.86797  0.35248  1.0000
  H   H23       1.0  0.40539  0.81732  0.33186  1.0000
  H   H24       1.0  0.31463  0.79464  0.35934  1.0000
  C   C83       1.0  0.36142  0.20306  0.34749  1.0000
  C   C84       1.0  0.32987  0.19740  0.34391  1.0000
  C   C85       1.0  0.31888  0.17365  0.34006  1.0000
  C   C86       1.0  0.34096  0.15504  0.34730  1.0000
  C   C87       1.0  0.37322  0.15975  0.34349  1.0000
  C   C88       1.0  0.38264  0.18406  0.34443  1.0000
  H   H25       1.0  0.33351  0.13785  0.34040  1.0000
  H   H26       1.0  0.40561  0.18822  0.34887  1.0000
  H   H27       1.0  0.31441  0.21121  0.34570  1.0000
  C   C89       1.0  0.14550  0.80270  0.34861  1.0000
  C   C90       1.0  0.17671  0.80861  0.36185  1.0000
  C   C91       1.0  0.18760  0.83239  0.36496  1.0000
  C   C92       1.0  0.16562  0.85071  0.34961  1.0000
  C   C93       1.0  0.13375  0.84595  0.33466  1.0000
  C   C94       1.0  0.12455  0.82159  0.33508  1.0000
  H   H28       1.0  0.17312  0.86795  0.34949  1.0000
  H   H29       1.0  0.10163  0.81730  0.33206  1.0000
  H   H30       1.0  0.19225  0.79487  0.36318  1.0000
  C   C95       1.0  0.39410  0.70391  0.34594  1.0000
  C   C96       1.0  0.42567  0.69830  0.34331  1.0000
  C   C97       1.0  0.43668  0.67455  0.34025  1.0000
  C   C98       1.0  0.41456  0.65596  0.34706  1.0000
  C   C99       1.0  0.38227  0.66063  0.34293  1.0000
  C   C100      1.0  0.37286  0.68494  0.34298  1.0000
  H   H31       1.0  0.42212  0.63878  0.34090  1.0000
  H   H32       1.0  0.34992  0.68916  0.34732  1.0000
  H   H33       1.0  0.44111  0.71213  0.34555  1.0000
  C   C101      1.0  0.11150  0.30279  0.34838  1.0000
  C   C102      1.0  0.07993  0.30839  0.34454  1.0000
  C   C103      1.0  0.06887  0.33213  0.34134  1.0000
  C   C104      1.0  0.09089  0.35075  0.34925  1.0000
  C   C105      1.0  0.12319  0.34612  0.34608  1.0000
  C   C106      1.0  0.13268  0.32183  0.34630  1.0000
  H   H34       1.0  0.08339  0.36795  0.34325  1.0000
  H   H35       1.0  0.15564  0.31768  0.35102  1.0000
  H   H36       1.0  0.06451  0.29455  0.34569  1.0000
  C   C107      1.0  0.11125  0.70362  0.34390  1.0000
  C   C108      1.0  0.07971  0.69797  0.34028  1.0000
  C   C109      1.0  0.06854  0.67423  0.33993  1.0000
  C   C110      1.0  0.09061  0.65567  0.34979  1.0000
  C   C111      1.0  0.12292  0.66030  0.34754  1.0000
  C   C112      1.0  0.13240  0.68459  0.34706  1.0000
  H   H37       1.0  0.08316  0.63843  0.34512  1.0000
  H   H38       1.0  0.15537  0.68875  0.35111  1.0000
  H   H39       1.0  0.06435  0.71184  0.34298  1.0000
  C   C113      1.0  0.39476  0.30219  0.34136  1.0000
  C   C114      1.0  0.42625  0.30806  0.33783  1.0000
  C   C115      1.0  0.43714  0.33186  0.33698  1.0000
  C   C116      1.0  0.41489  0.35029  0.34602  1.0000
  C   C117      1.0  0.38263  0.34548  0.34392  1.0000
  C   C118      1.0  0.37342  0.32112  0.34397  1.0000
  H   H40       1.0  0.42221  0.36755  0.34087  1.0000
  H   H41       1.0  0.35050  0.31682  0.34817  1.0000
  H   H42       1.0  0.44179  0.29433  0.34107  1.0000
  C   C119      1.0  0.03205  0.09284  0.33934  1.0000
  C   C120      1.0  0.50294  0.10423  0.33988  1.0000
  C   C121      1.0  0.47405  0.09249  0.34036  1.0000
  C   C122      1.0  0.47505  0.06736  0.35022  1.0000
  C   C123      1.0  0.00342  0.05452  0.35233  1.0000
  C   C124      1.0  0.03151  0.06770  0.34852  1.0000
  H   H43       1.0  0.45476  0.05804  0.34821  1.0000
  H   H44       1.0  0.05200  0.05865  0.34790  1.0000
  H   H45       1.0  0.50278  0.12230  0.34840  1.0000
  C   C125      1.0  0.47454  0.91297  0.32660  1.0000
  C   C126      1.0  0.00349  0.90133  0.32268  1.0000
  C   C127      1.0  0.03252  0.91286  0.32454  1.0000
  C   C128      1.0  0.03177  0.93790  0.33702  1.0000
  C   C129      1.0  0.50365  0.95094  0.34305  1.0000
  C   C130      1.0  0.47541  0.93799  0.34006  1.0000
  H   H46       1.0  0.05218  0.94706  0.33765  1.0000
  H   H47       1.0  0.45506  0.94724  0.33999  1.0000
  H   H48       1.0  0.00345  0.88319  0.32832  1.0000
  C   C131      1.0  0.28170  0.59308  0.34486  1.0000
  C   C132      1.0  0.25264  0.60455  0.34546  1.0000
  C   C133      1.0  0.22370  0.59288  0.34796  1.0000
  C   C134      1.0  0.22466  0.56781  0.35981  1.0000
  C   C135      1.0  0.25299  0.55491  0.36181  1.0000
  C   C136      1.0  0.28110  0.56801  0.35608  1.0000
  H   H49       1.0  0.20434  0.55852  0.35900  1.0000
  H   H50       1.0  0.30157  0.55892  0.35555  1.0000
  H   H51       1.0  0.25261  0.62266  0.35268  1.0000
  C   C137      1.0  0.22397  0.41338  0.34635  1.0000
  C   C138      1.0  0.25289  0.40168  0.34520  1.0000
  C   C139      1.0  0.28198  0.41310  0.34561  1.0000
  C   C140      1.0  0.28136  0.43820  0.35652  1.0000
  C   C141      1.0  0.25324  0.45131  0.36142  1.0000
  C   C142      1.0  0.22491  0.43845  0.35826  1.0000
  H   H52       1.0  0.30182  0.44728  0.35658  1.0000
  H   H53       1.0  0.20459  0.44774  0.35683  1.0000
  H   H54       1.0  0.25274  0.38357  0.35268  1.0000
  C   C143      1.0  0.28670  0.16986  0.32756  1.0000
  C   C144      1.0  0.26921  0.15189  0.37126  1.0000
  C   C145      1.0  0.23671  0.15231  0.37051  1.0000
  C   C146      1.0  0.21947  0.16996  0.32427  1.0000
  N   N19       1.0  0.22734  0.13617  0.43003  1.0000
  O   O19       1.0  0.28003  0.13571  0.43168  1.0000
  C   C147      1.0  0.25306  0.12588  0.46173  1.0000
  H   H55       1.0  0.25254  0.11379  0.51291  1.0000
  C   C148      1.0  0.21976  0.83638  0.37839  1.0000
  C   C149      1.0  0.23735  0.82085  0.43346  1.0000
  C   C150      1.0  0.26952  0.82081  0.43206  1.0000
  C   C151      1.0  0.28716  0.83630  0.37707  1.0000
  N   N20       1.0  0.27865  0.80419  0.49028  1.0000
  O   O20       1.0  0.22622  0.80438  0.49271  1.0000
  C   C152      1.0  0.25289  0.79469  0.52459  1.0000
  H   H56       1.0  0.25319  0.78146  0.57165  1.0000
  C   C153      1.0  0.03625  0.67051  0.32913  1.0000
  C   C154      1.0  0.01891  0.65261  0.37386  1.0000
  C   C155      1.0  0.48640  0.65309  0.37470  1.0000
  C   C156      1.0  0.46892  0.67071  0.32913  1.0000
  N   N21       1.0  0.47725  0.63672  0.43358  1.0000
  O   O21       1.0  0.02998  0.63624  0.43314  1.0000
  C   C157      1.0  0.00314  0.62647  0.46435  1.0000
  H   H57       1.0  0.00282  0.61384  0.51364  1.0000
  C   C158      1.0  0.46940  0.33580  0.32675  1.0000
  C   C159      1.0  0.48645  0.35372  0.37228  1.0000
  C   C160      1.0  0.01893  0.35345  0.37387  1.0000
  C   C161      1.0  0.03670  0.33591  0.32875  1.0000
  N   N22       1.0  0.02772  0.36984  0.43314  1.0000
  O   O22       1.0  0.47500  0.37004  0.43119  1.0000
  C   C162      1.0  0.50165  0.38005  0.46278  1.0000
  H   H58       1.0  0.50166  0.39239  0.51314  1.0000
  C   C163      1.0  0.11249  0.11905  0.37543  1.0000
  C   C164      1.0  0.08786  0.10264  0.37429  1.0000
  N   N23       1.0  0.09604  0.08460  0.42717  1.0000
  O   O23       1.0  0.13573  0.11131  0.42975  1.0000
  C   C165      1.0  0.12462  0.08964  0.45608  1.0000
  H   H59       1.0  0.13586  0.07921  0.50177  1.0000
  C   C166      1.0  0.39449  0.88709  0.37002  1.0000
  C   C167      1.0  0.41925  0.90336  0.36691  1.0000
  N   N24       1.0  0.41254  0.92081  0.42422  1.0000
  O   O24       1.0  0.37260  0.89444  0.42966  1.0000
  C   C168      1.0  0.38452  0.91574  0.45718  1.0000
  H   H60       1.0  0.37456  0.92561  0.50691  1.0000
  C   C169      1.0  0.44673  0.10669  0.33268  1.0000
  C   C170      1.0  0.41814  0.10177  0.37557  1.0000
  C   C171      1.0  0.39398  0.11859  0.37757  1.0000
  C   C172      1.0  0.39579  0.14134  0.33591  1.0000
  N   N25       1.0  0.37249  0.10993  0.43251  1.0000
  O   O25       1.0  0.41190  0.08292  0.43017  1.0000
  C   C173      1.0  0.38303  0.08870  0.46009  1.0000
  H   H61       1.0  0.37142  0.07853  0.50582  1.0000
  C   C174      1.0  0.05987  0.89869  0.31735  1.0000
  C   C175      1.0  0.08805  0.90366  0.36238  1.0000
  C   C176      1.0  0.11236  0.88701  0.36570  1.0000
  C   C177      1.0  0.11126  0.86434  0.32307  1.0000
  N   N26       1.0  0.13302  0.89569  0.42328  1.0000
  O   O26       1.0  0.09350  0.92240  0.41829  1.0000
  C   C178      1.0  0.12215  0.91685  0.45018  1.0000
  H   H62       1.0  0.13282  0.92671  0.49875  1.0000
  C   C179      1.0  0.36225  0.61934  0.37757  1.0000
  C   C180      1.0  0.33759  0.60295  0.37788  1.0000
  N   N27       1.0  0.34577  0.58521  0.43221  1.0000
  O   O27       1.0  0.38548  0.61190  0.43254  1.0000
  C   C181      1.0  0.37438  0.59037  0.46053  1.0000
  H   H63       1.0  0.38559  0.58023  0.50719  1.0000
  C   C182      1.0  0.14345  0.38730  0.38148  1.0000
  C   C183      1.0  0.16811  0.40370  0.38097  1.0000
  N   N28       1.0  0.16029  0.42127  0.43646  1.0000
  O   O28       1.0  0.12042  0.39468  0.43722  1.0000
  C   C184      1.0  0.13180  0.41608  0.46578  1.0000
  H   H64       1.0  0.12084  0.42613  0.51321  1.0000
  C   C185      1.0  0.19640  0.60711  0.34011  1.0000
  C   C186      1.0  0.16784  0.60243  0.38363  1.0000
  C   C187      1.0  0.14368  0.61928  0.38472  1.0000
  C   C188      1.0  0.14550  0.64184  0.34172  1.0000
  N   N29       1.0  0.12217  0.61084  0.44008  1.0000
  O   O29       1.0  0.16156  0.58380  0.43923  1.0000
  C   C189      1.0  0.13269  0.58972  0.46883  1.0000
  H   H65       1.0  0.12106  0.57973  0.51505  1.0000
  C   C190      1.0  0.30911  0.39870  0.33729  1.0000
  C   C191      1.0  0.33793  0.40345  0.37920  1.0000
  C   C192      1.0  0.36206  0.38660  0.37987  1.0000
  C   C193      1.0  0.35992  0.36386  0.33831  1.0000
  N   N30       1.0  0.38394  0.39528  0.43346  1.0000
  O   O30       1.0  0.34464  0.42235  0.43310  1.0000
  C   C194      1.0  0.37377  0.41661  0.46098  1.0000
  H   H66       1.0  0.38552  0.42663  0.50687  1.0000
  C   C195      1.0  0.12088  0.27846  0.34877  1.0000
  C   C196      1.0  0.10901  0.26197  0.41189  1.0000
  C   C197      1.0  0.11647  0.23774  0.40805  1.0000
  C   C198      1.0  0.13593  0.22813  0.34106  1.0000
  N   N31       1.0  0.10284  0.22733  0.47783  1.0000
  O   O31       1.0  0.09043  0.26690  0.48325  1.0000
  C   C199      1.0  0.08757  0.24475  0.52057  1.0000
  H   H67       1.0  0.07513  0.24177  0.57768  1.0000
  C   C200      1.0  0.38480  0.72823  0.34721  1.0000
  C   C201      1.0  0.39552  0.74416  0.41399  1.0000
  C   C202      1.0  0.38832  0.76843  0.41144  1.0000
  C   C203      1.0  0.37047  0.77858  0.34195  1.0000
  N   N32       1.0  0.40054  0.77829  0.48447  1.0000
  O   O32       1.0  0.41256  0.73861  0.48791  1.0000
  C   C204      1.0  0.41467  0.76045  0.52814  1.0000
  H   H68       1.0  0.42605  0.76298  0.58740  1.0000
  C   C205      1.0  0.35878  0.24384  0.41146  1.0000
  C   C206      1.0  0.36619  0.26808  0.40796  1.0000
  N   N33       1.0  0.35249  0.27841  0.47778  1.0000
  O   O33       1.0  0.34015  0.23883  0.48265  1.0000
  C   C207      1.0  0.33726  0.26093  0.52029  1.0000
  H   H69       1.0  0.32466  0.26387  0.57716  1.0000
  C   C208      1.0  0.14700  0.76194  0.41435  1.0000
  C   C209      1.0  0.13934  0.73775  0.41141  1.0000
  N   N34       1.0  0.15193  0.72754  0.48323  1.0000
  O   O34       1.0  0.16451  0.76705  0.48790  1.0000
  C   C210      1.0  0.16676  0.74506  0.52669  1.0000
  H   H70       1.0  0.17847  0.74224  0.58523  1.0000
  C   C211      1.0  0.98568  0.01490  0.41151  1.0000
  C   C212      1.0  0.98590  0.98988  0.40887  1.0000
  N   N35       1.0  0.96743  0.98242  0.47450  1.0000
  O   O35       1.0  0.96719  0.02316  0.47860  1.0000
  C   C213      1.0  0.95659  0.00221  0.51391  1.0000
  H   H71       1.0  0.94197  0.00167  0.56765  1.0000
  C   C214      1.0  0.23538  0.51565  0.42464  1.0000
  C   C215      1.0  0.23560  0.49062  0.42412  1.0000
  N   N36       1.0  0.21728  0.48354  0.49069  1.0000
  O   O36       1.0  0.21701  0.52430  0.49128  1.0000
  C   C216      1.0  0.20649  0.50357  0.52854  1.0000
  H   H72       1.0  0.19199  0.50334  0.58260  1.0000
  C   C217      1.0  0.73726  0.18537  0.26933  1.0000
  C   C218      1.0  0.76938  0.18529  0.27154  1.0000
  N   N37       1.0  0.77877  0.20163  0.21251  1.0000
  O   O37       1.0  0.72638  0.20163  0.20883  1.0000
  C   C219      1.0  0.75319  0.21114  0.17721  1.0000
  H   H73       1.0  0.75372  0.22401  0.12879  1.0000
  C   C220      1.0  0.76980  0.85422  0.33260  1.0000
  C   C221      1.0  0.73730  0.85396  0.33266  1.0000
  N   N38       1.0  0.72828  0.87008  0.27257  1.0000
  O   O38       1.0  0.78088  0.87035  0.27232  1.0000
  C   C222      1.0  0.75413  0.88030  0.24151  1.0000
  H   H74       1.0  0.75384  0.89228  0.18997  1.0000
  C   C223      1.0  0.98643  0.68617  0.27375  1.0000
  C   C224      1.0  0.51857  0.68596  0.27401  1.0000
  N   N39       1.0  0.52761  0.70216  0.21396  1.0000
  O   O39       1.0  0.97521  0.70242  0.21373  1.0000
  C   C225      1.0  0.00184  0.71170  0.17994  1.0000
  H   H75       1.0  0.00212  0.72462  0.13169  1.0000
  C   C226      1.0  0.51950  0.32042  0.27263  1.0000
  C   C227      1.0  0.98736  0.32047  0.27197  1.0000
  N   N40       1.0  0.97863  0.30420  0.21181  1.0000
  O   O40       1.0  0.53103  0.30422  0.21290  1.0000
  C   C228      1.0  0.50458  0.29480  0.17845  1.0000
  H   H76       1.0  0.50457  0.28186  0.13028  1.0000
  C   C229      1.0  0.55915  0.10728  0.33172  1.0000
  C   C230      1.0  0.55850  0.12905  0.28288  1.0000
  C   C231      1.0  0.58256  0.14559  0.28593  1.0000
  C   C232      1.0  0.60999  0.14208  0.33615  1.0000
  N   N41       1.0  0.57499  0.16312  0.22962  1.0000
  O   O41       1.0  0.53619  0.13614  0.22386  1.0000
  C   C233      1.0  0.54725  0.15761  0.19625  1.0000
  H   H77       1.0  0.53668  0.16755  0.14774  1.0000
  C   C234      1.0  0.94712  0.89886  0.31975  1.0000
  C   C235      1.0  0.94661  0.87757  0.26803  1.0000
  C   C236      1.0  0.92225  0.86128  0.27198  1.0000
  C   C237      1.0  0.89579  0.86450  0.32676  1.0000
  N   N42       1.0  0.92879  0.84404  0.21333  1.0000
  O   O42       1.0  0.96817  0.87060  0.20646  1.0000
  C   C238      1.0  0.95603  0.84967  0.17679  1.0000
  H   H78       1.0  0.96633  0.83955  0.12833  1.0000
  C   C239      1.0  0.92293  0.14492  0.28444  1.0000
  C   C240      1.0  0.94680  0.12822  0.28230  1.0000
  N   N43       1.0  0.96735  0.13630  0.22297  1.0000
  O   O43       1.0  0.92849  0.16333  0.22665  1.0000
  C   C241      1.0  0.95641  0.15702  0.19219  1.0000
  H   H79       1.0  0.96760  0.16690  0.14469  1.0000
  C   C242      1.0  0.58450  0.86069  0.26984  1.0000
  C   C243      1.0  0.56034  0.87719  0.26685  1.0000
  N   N44       1.0  0.54001  0.86885  0.20738  1.0000
  O   O44       1.0  0.57937  0.84222  0.21203  1.0000
  C   C244      1.0  0.55139  0.84822  0.17704  1.0000
  H   H80       1.0  0.54044  0.83817  0.12961  1.0000
  C   C245      1.0  0.80883  0.60740  0.33537  1.0000
  C   C246      1.0  0.80817  0.62889  0.28479  1.0000
  C   C247      1.0  0.83225  0.64543  0.28636  1.0000
  C   C248      1.0  0.85971  0.64216  0.33667  1.0000
  N   N45       1.0  0.82459  0.66274  0.22922  1.0000
  O   O45       1.0  0.78570  0.63576  0.22586  1.0000
  C   C249      1.0  0.79679  0.65708  0.19658  1.0000
  H   H81       1.0  0.78606  0.66687  0.14795  1.0000
  C   C250      1.0  0.69668  0.39921  0.33741  1.0000
  C   C251      1.0  0.69698  0.37787  0.28587  1.0000
  C   C252      1.0  0.67285  0.36140  0.28788  1.0000
  C   C253      1.0  0.64572  0.36459  0.33968  1.0000
  N   N46       1.0  0.68020  0.34411  0.23027  1.0000
  O   O46       1.0  0.71918  0.37102  0.22609  1.0000
  C   C254      1.0  0.70772  0.34990  0.19602  1.0000
  H   H82       1.0  0.71861  0.33983  0.14849  1.0000
  C   C255      1.0  0.67259  0.64515  0.28979  1.0000
  C   C256      1.0  0.69640  0.62840  0.28834  1.0000
  N   N47       1.0  0.71681  0.63614  0.22796  1.0000
  O   O47       1.0  0.67806  0.66325  0.23053  1.0000
  C   C257      1.0  0.70588  0.65672  0.19595  1.0000
  H   H83       1.0  0.71695  0.66632  0.14743  1.0000
  C   C258      1.0  0.83247  0.36037  0.28813  1.0000
  C   C259      1.0  0.80871  0.37718  0.28685  1.0000
  N   N48       1.0  0.78787  0.36922  0.22814  1.0000
  O   O48       1.0  0.82657  0.34207  0.23015  1.0000
  C   C260      1.0  0.79854  0.34848  0.19680  1.0000
  H   H84       1.0  0.78712  0.33870  0.14947  1.0000
  C   C261      1.0  0.64770  0.24464  0.27766  1.0000
  C   C262      1.0  0.64026  0.26887  0.28152  1.0000
  N   N49       1.0  0.65376  0.27929  0.21153  1.0000
  O   O49       1.0  0.66606  0.23972  0.20571  1.0000
  C   C263      1.0  0.66895  0.26188  0.16851  1.0000
  H   H85       1.0  0.68125  0.26486  0.11112  1.0000
  C   C264      1.0  0.85959  0.76268  0.27538  1.0000
  C   C265      1.0  0.86678  0.73839  0.27796  1.0000
  N   N50       1.0  0.85452  0.72859  0.20485  1.0000
  O   O50       1.0  0.84239  0.76826  0.20183  1.0000
  C   C266      1.0  0.84029  0.74643  0.16147  1.0000
  H   H86       1.0  0.82891  0.74393  0.10219  1.0000
  C   C267      1.0  0.88568  0.27777  0.34121  1.0000
  C   C268      1.0  0.89752  0.26133  0.27767  1.0000
  C   C269      1.0  0.89013  0.23709  0.28120  1.0000
  C   C270      1.0  0.87074  0.22740  0.34826  1.0000
  N   N51       1.0  0.90372  0.22674  0.21119  1.0000
  O   O51       1.0  0.91595  0.26633  0.20596  1.0000
  C   C271      1.0  0.91887  0.24421  0.16841  1.0000
  H   H87       1.0  0.93132  0.24128  0.11128  1.0000
  C   C272      1.0  0.62064  0.72795  0.34312  1.0000
  C   C273      1.0  0.60979  0.74419  0.27749  1.0000
  C   C274      1.0  0.61752  0.76838  0.28027  1.0000
  C   C275      1.0  0.63629  0.77824  0.34855  1.0000
  N   N52       1.0  0.60479  0.77851  0.20844  1.0000
  O   O52       1.0  0.59198  0.73902  0.20465  1.0000
  C   C276      1.0  0.58978  0.76099  0.16552  1.0000
  H   H88       1.0  0.57800  0.76377  0.10710  1.0000
  C   C277      1.0  0.50379  0.97658  0.34690  1.0000
  C   C278      1.0  0.52164  0.99056  0.28691  1.0000
  C   C279      1.0  0.52140  0.01555  0.28953  1.0000
  C   C280      1.0  0.50371  0.02886  0.35195  1.0000
  N   N53       1.0  0.53918  0.02302  0.22228  1.0000
  O   O53       1.0  0.53943  0.98235  0.21813  1.0000
  C   C281      1.0  0.54982  0.00327  0.18225  1.0000
  H   H89       1.0  0.56369  0.00383  0.12685  1.0000
  C   C282      1.0  0.75344  0.47696  0.36315  1.0000
  C   C283      1.0  0.77112  0.49057  0.30159  1.0000
  C   C284      1.0  0.77080  0.51557  0.30189  1.0000
  C   C285      1.0  0.75324  0.52926  0.36349  1.0000
  N   N54       1.0  0.78850  0.52262  0.23383  1.0000
  O   O54       1.0  0.78887  0.48193  0.23345  1.0000
  C   C286      1.0  0.79904  0.50262  0.19528  1.0000
  H   H90       1.0  0.81311  0.50284  0.14029  1.0000
  C   C287      1.0  0.64498  0.20369  0.34068  1.0000
  C   C288      1.0  0.67645  0.19779  0.33647  1.0000
  C   C289      1.0  0.68726  0.17397  0.33506  1.0000
  C   C290      1.0  0.66499  0.15556  0.34400  1.0000
  C   C291      1.0  0.63273  0.16042  0.34237  1.0000
  C   C292      1.0  0.62359  0.18479  0.34319  1.0000
  H   H91       1.0  0.67229  0.13831  0.33832  1.0000
  H   H92       1.0  0.60070  0.18911  0.34789  1.0000
  H   H93       1.0  0.69205  0.21149  0.33938  1.0000
  C   C293      1.0  0.86126  0.80286  0.34386  1.0000
  C   C294      1.0  0.83002  0.80849  0.35716  1.0000
  C   C295      1.0  0.81926  0.83229  0.36321  1.0000
  C   C296      1.0  0.84133  0.85073  0.35087  1.0000
  C   C297      1.0  0.87329  0.84607  0.33693  1.0000
  C   C298      1.0  0.88251  0.82172  0.33567  1.0000
  H   H94       1.0  0.83386  0.86797  0.35248  1.0000
  H   H95       1.0  0.90539  0.81732  0.33186  1.0000
  H   H96       1.0  0.81463  0.79464  0.35934  1.0000
  C   C299      1.0  0.86142  0.20306  0.34749  1.0000
  C   C300      1.0  0.82987  0.19740  0.34391  1.0000
  C   C301      1.0  0.81888  0.17365  0.34006  1.0000
  C   C302      1.0  0.84095  0.15504  0.34730  1.0000
  C   C303      1.0  0.87322  0.15975  0.34349  1.0000
  C   C304      1.0  0.88264  0.18406  0.34443  1.0000
  H   H97       1.0  0.83351  0.13785  0.34040  1.0000
  H   H98       1.0  0.90561  0.18822  0.34887  1.0000
  H   H99       1.0  0.81441  0.21121  0.34570  1.0000
  C   C305      1.0  0.64550  0.80270  0.34861  1.0000
  C   C306      1.0  0.67671  0.80861  0.36185  1.0000
  C   C307      1.0  0.68761  0.83239  0.36496  1.0000
  C   C308      1.0  0.66563  0.85071  0.34961  1.0000
  C   C309      1.0  0.63375  0.84595  0.33466  1.0000
  C   C310      1.0  0.62455  0.82159  0.33508  1.0000
  H   H100      1.0  0.67312  0.86795  0.34949  1.0000
  H   H101      1.0  0.60163  0.81730  0.33206  1.0000
  H   H102      1.0  0.69225  0.79487  0.36318  1.0000
  C   C311      1.0  0.89410  0.70391  0.34594  1.0000
  C   C312      1.0  0.92567  0.69830  0.34331  1.0000
  C   C313      1.0  0.93668  0.67455  0.34025  1.0000
  C   C314      1.0  0.91456  0.65596  0.34706  1.0000
  C   C315      1.0  0.88227  0.66063  0.34293  1.0000
  C   C316      1.0  0.87286  0.68494  0.34298  1.0000
  H   H103      1.0  0.92212  0.63878  0.34090  1.0000
  H   H104      1.0  0.84992  0.68916  0.34732  1.0000
  H   H105      1.0  0.94111  0.71213  0.34555  1.0000
  C   C317      1.0  0.61150  0.30279  0.34838  1.0000
  C   C318      1.0  0.57993  0.30839  0.34454  1.0000
  C   C319      1.0  0.56887  0.33213  0.34134  1.0000
  C   C320      1.0  0.59089  0.35075  0.34925  1.0000
  C   C321      1.0  0.62319  0.34612  0.34608  1.0000
  C   C322      1.0  0.63268  0.32183  0.34630  1.0000
  H   H106      1.0  0.58339  0.36795  0.34325  1.0000
  H   H107      1.0  0.65564  0.31768  0.35102  1.0000
  H   H108      1.0  0.56451  0.29455  0.34569  1.0000
  C   C323      1.0  0.61125  0.70362  0.34390  1.0000
  C   C324      1.0  0.57971  0.69797  0.34028  1.0000
  C   C325      1.0  0.56854  0.67423  0.33993  1.0000
  C   C326      1.0  0.59061  0.65567  0.34979  1.0000
  C   C327      1.0  0.62292  0.66030  0.34754  1.0000
  C   C328      1.0  0.63240  0.68459  0.34706  1.0000
  H   H109      1.0  0.58316  0.63843  0.34512  1.0000
  H   H110      1.0  0.65537  0.68875  0.35111  1.0000
  H   H111      1.0  0.56435  0.71184  0.34298  1.0000
  C   C329      1.0  0.89476  0.30219  0.34136  1.0000
  C   C330      1.0  0.92625  0.30806  0.33783  1.0000
  C   C331      1.0  0.93714  0.33186  0.33698  1.0000
  C   C332      1.0  0.91489  0.35029  0.34602  1.0000
  C   C333      1.0  0.88263  0.34548  0.34392  1.0000
  C   C334      1.0  0.87341  0.32112  0.34397  1.0000
  H   H112      1.0  0.92222  0.36755  0.34087  1.0000
  H   H113      1.0  0.85050  0.31682  0.34817  1.0000
  H   H114      1.0  0.94179  0.29433  0.34107  1.0000
  C   C335      1.0  0.53205  0.09284  0.33934  1.0000
  C   C336      1.0  0.00294  0.10423  0.33988  1.0000
  C   C337      1.0  0.97405  0.09249  0.34036  1.0000
  C   C338      1.0  0.97505  0.06736  0.35022  1.0000
  C   C339      1.0  0.50342  0.05452  0.35233  1.0000
  C   C340      1.0  0.53151  0.06770  0.34852  1.0000
  H   H115      1.0  0.95476  0.05804  0.34821  1.0000
  H   H116      1.0  0.55200  0.05865  0.34790  1.0000
  H   H117      1.0  0.00278  0.12230  0.34840  1.0000
  C   C341      1.0  0.97454  0.91297  0.32660  1.0000
  C   C342      1.0  0.50349  0.90133  0.32268  1.0000
  C   C343      1.0  0.53251  0.91286  0.32454  1.0000
  C   C344      1.0  0.53177  0.93790  0.33702  1.0000
  C   C345      1.0  0.00365  0.95094  0.34305  1.0000
  C   C346      1.0  0.97541  0.93799  0.34006  1.0000
  H   H118      1.0  0.55218  0.94706  0.33765  1.0000
  H   H119      1.0  0.95506  0.94724  0.33999  1.0000
  H   H120      1.0  0.50345  0.88319  0.32832  1.0000
  C   C347      1.0  0.78170  0.59308  0.34486  1.0000
  C   C348      1.0  0.75264  0.60455  0.34546  1.0000
  C   C349      1.0  0.72370  0.59288  0.34796  1.0000
  C   C350      1.0  0.72466  0.56781  0.35981  1.0000
  C   C351      1.0  0.75299  0.55491  0.36181  1.0000
  C   C352      1.0  0.78110  0.56801  0.35608  1.0000
  H   H121      1.0  0.70434  0.55852  0.35900  1.0000
  H   H122      1.0  0.80157  0.55892  0.35555  1.0000
  H   H123      1.0  0.75261  0.62266  0.35268  1.0000
  C   C353      1.0  0.72397  0.41338  0.34635  1.0000
  C   C354      1.0  0.75289  0.40168  0.34520  1.0000
  C   C355      1.0  0.78198  0.41310  0.34561  1.0000
  C   C356      1.0  0.78136  0.43820  0.35652  1.0000
  C   C357      1.0  0.75324  0.45131  0.36142  1.0000
  C   C358      1.0  0.72491  0.43845  0.35826  1.0000
  H   H124      1.0  0.80182  0.44728  0.35658  1.0000
  H   H125      1.0  0.70459  0.44774  0.35683  1.0000
  H   H126      1.0  0.75274  0.38357  0.35268  1.0000
  C   C359      1.0  0.78670  0.16986  0.32756  1.0000
  C   C360      1.0  0.76921  0.15189  0.37126  1.0000
  C   C361      1.0  0.73671  0.15231  0.37051  1.0000
  C   C362      1.0  0.71947  0.16996  0.32427  1.0000
  N   N55       1.0  0.72734  0.13617  0.43003  1.0000
  O   O55       1.0  0.78003  0.13571  0.43168  1.0000
  C   C363      1.0  0.75306  0.12588  0.46173  1.0000
  H   H127      1.0  0.75254  0.11379  0.51291  1.0000
  C   C364      1.0  0.71976  0.83638  0.37839  1.0000
  C   C365      1.0  0.73735  0.82085  0.43346  1.0000
  C   C366      1.0  0.76952  0.82081  0.43206  1.0000
  C   C367      1.0  0.78716  0.83630  0.37707  1.0000
  N   N56       1.0  0.77865  0.80419  0.49028  1.0000
  O   O56       1.0  0.72622  0.80438  0.49271  1.0000
  C   C368      1.0  0.75289  0.79469  0.52459  1.0000
  H   H128      1.0  0.75319  0.78146  0.57165  1.0000
  C   C369      1.0  0.53625  0.67051  0.32913  1.0000
  C   C370      1.0  0.51890  0.65261  0.37386  1.0000
  C   C371      1.0  0.98640  0.65309  0.37470  1.0000
  C   C372      1.0  0.96891  0.67071  0.32913  1.0000
  N   N57       1.0  0.97725  0.63672  0.43358  1.0000
  O   O57       1.0  0.52998  0.63624  0.43314  1.0000
  C   C373      1.0  0.50314  0.62647  0.46435  1.0000
  H   H129      1.0  0.50282  0.61384  0.51364  1.0000
  C   C374      1.0  0.96940  0.33580  0.32675  1.0000
  C   C375      1.0  0.98645  0.35372  0.37228  1.0000
  C   C376      1.0  0.51893  0.35345  0.37387  1.0000
  C   C377      1.0  0.53670  0.33591  0.32875  1.0000
  N   N58       1.0  0.52772  0.36984  0.43314  1.0000
  O   O58       1.0  0.97500  0.37004  0.43119  1.0000
  C   C378      1.0  0.00165  0.38005  0.46278  1.0000
  H   H130      1.0  0.00166  0.39239  0.51314  1.0000
  C   C379      1.0  0.61249  0.11905  0.37543  1.0000
  C   C380      1.0  0.58786  0.10264  0.37429  1.0000
  N   N59       1.0  0.59604  0.08460  0.42717  1.0000
  O   O59       1.0  0.63573  0.11131  0.42975  1.0000
  C   C381      1.0  0.62462  0.08964  0.45608  1.0000
  H   H131      1.0  0.63586  0.07921  0.50177  1.0000
  C   C382      1.0  0.89449  0.88709  0.37002  1.0000
  C   C383      1.0  0.91925  0.90336  0.36691  1.0000
  N   N60       1.0  0.91254  0.92081  0.42422  1.0000
  O   O60       1.0  0.87260  0.89444  0.42966  1.0000
  C   C384      1.0  0.88452  0.91574  0.45718  1.0000
  H   H132      1.0  0.87456  0.92561  0.50691  1.0000
  C   C385      1.0  0.94673  0.10669  0.33268  1.0000
  C   C386      1.0  0.91814  0.10177  0.37557  1.0000
  C   C387      1.0  0.89398  0.11859  0.37757  1.0000
  C   C388      1.0  0.89579  0.14134  0.33591  1.0000
  N   N61       1.0  0.87249  0.10993  0.43251  1.0000
  O   O61       1.0  0.91190  0.08292  0.43017  1.0000
  C   C389      1.0  0.88303  0.08870  0.46009  1.0000
  H   H133      1.0  0.87142  0.07853  0.50582  1.0000
  C   C390      1.0  0.55987  0.89869  0.31735  1.0000
  C   C391      1.0  0.58805  0.90366  0.36238  1.0000
  C   C392      1.0  0.61236  0.88701  0.36570  1.0000
  C   C393      1.0  0.61126  0.86434  0.32307  1.0000
  N   N62       1.0  0.63302  0.89569  0.42328  1.0000
  O   O62       1.0  0.59350  0.92240  0.41829  1.0000
  C   C394      1.0  0.62215  0.91685  0.45018  1.0000
  H   H134      1.0  0.63282  0.92671  0.49875  1.0000
  C   C395      1.0  0.86225  0.61934  0.37757  1.0000
  C   C396      1.0  0.83759  0.60295  0.37788  1.0000
  N   N63       1.0  0.84577  0.58521  0.43221  1.0000
  O   O63       1.0  0.88548  0.61190  0.43254  1.0000
  C   C397      1.0  0.87438  0.59037  0.46053  1.0000
  H   H135      1.0  0.88559  0.58023  0.50719  1.0000
  C   C398      1.0  0.64345  0.38730  0.38148  1.0000
  C   C399      1.0  0.66811  0.40370  0.38097  1.0000
  N   N64       1.0  0.66028  0.42127  0.43646  1.0000
  O   O64       1.0  0.62042  0.39468  0.43722  1.0000
  C   C400      1.0  0.63180  0.41608  0.46578  1.0000
  H   H136      1.0  0.62084  0.42613  0.51321  1.0000
  C   C401      1.0  0.69640  0.60711  0.34011  1.0000
  C   C402      1.0  0.66784  0.60243  0.38363  1.0000
  C   C403      1.0  0.64368  0.61928  0.38472  1.0000
  C   C404      1.0  0.64550  0.64184  0.34172  1.0000
  N   N65       1.0  0.62217  0.61084  0.44008  1.0000
  O   O65       1.0  0.66156  0.58380  0.43923  1.0000
  C   C405      1.0  0.63269  0.58972  0.46883  1.0000
  H   H137      1.0  0.62106  0.57973  0.51505  1.0000
  C   C406      1.0  0.80911  0.39870  0.33729  1.0000
  C   C407      1.0  0.83793  0.40345  0.37920  1.0000
  C   C408      1.0  0.86206  0.38660  0.37987  1.0000
  C   C409      1.0  0.85992  0.36386  0.33831  1.0000
  N   N66       1.0  0.88394  0.39528  0.43346  1.0000
  O   O66       1.0  0.84465  0.42235  0.43310  1.0000
  C   C410      1.0  0.87377  0.41661  0.46098  1.0000
  H   H138      1.0  0.88552  0.42663  0.50687  1.0000
  C   C411      1.0  0.62089  0.27846  0.34877  1.0000
  C   C412      1.0  0.60901  0.26197  0.41189  1.0000
  C   C413      1.0  0.61647  0.23774  0.40805  1.0000
  C   C414      1.0  0.63593  0.22813  0.34106  1.0000
  N   N67       1.0  0.60284  0.22733  0.47783  1.0000
  O   O67       1.0  0.59043  0.26690  0.48325  1.0000
  C   C415      1.0  0.58757  0.24475  0.52057  1.0000
  H   H139      1.0  0.57513  0.24177  0.57768  1.0000
  C   C416      1.0  0.88480  0.72823  0.34721  1.0000
  C   C417      1.0  0.89552  0.74416  0.41399  1.0000
  C   C418      1.0  0.88832  0.76843  0.41144  1.0000
  C   C419      1.0  0.87047  0.77858  0.34195  1.0000
  N   N68       1.0  0.90054  0.77829  0.48447  1.0000
  O   O68       1.0  0.91256  0.73861  0.48791  1.0000
  C   C420      1.0  0.91467  0.76045  0.52814  1.0000
  H   H140      1.0  0.92605  0.76298  0.58740  1.0000
  C   C421      1.0  0.85878  0.24384  0.41146  1.0000
  C   C422      1.0  0.86619  0.26808  0.40796  1.0000
  N   N69       1.0  0.85249  0.27841  0.47778  1.0000
  O   O69       1.0  0.84015  0.23883  0.48265  1.0000
  C   C423      1.0  0.83726  0.26093  0.52029  1.0000
  H   H141      1.0  0.82467  0.26387  0.57716  1.0000
  C   C424      1.0  0.64700  0.76194  0.41435  1.0000
  C   C425      1.0  0.63934  0.73775  0.41141  1.0000
  N   N70       1.0  0.65193  0.72754  0.48323  1.0000
  O   O70       1.0  0.66451  0.76705  0.48790  1.0000
  C   C426      1.0  0.66676  0.74506  0.52669  1.0000
  H   H142      1.0  0.67847  0.74224  0.58523  1.0000
  C   C427      1.0  0.48568  0.01490  0.41151  1.0000
  C   C428      1.0  0.48590  0.98988  0.40887  1.0000
  N   N71       1.0  0.46743  0.98242  0.47450  1.0000
  O   O71       1.0  0.46719  0.02316  0.47860  1.0000
  C   C429      1.0  0.45659  0.00221  0.51391  1.0000
  H   H143      1.0  0.44197  0.00167  0.56765  1.0000
  C   C430      1.0  0.73538  0.51565  0.42464  1.0000
  C   C431      1.0  0.73560  0.49062  0.42412  1.0000
  N   N72       1.0  0.71728  0.48354  0.49069  1.0000
  O   O72       1.0  0.71701  0.52430  0.49128  1.0000
  C   C432      1.0  0.70649  0.50357  0.52854  1.0000
  H   H144      1.0  0.69199  0.50334  0.58260  1.0000
