data_image0
_chemical_formula_structural       C2HC3N2HC2HC3N2HC2HC3N2HC2HC3N2HC2NC2HNCHC2NC2HNCHC2NC2HNCHC2NC2HNCHC2NC2HNCHC2NC2HNCHC2NC2HNCHC2NC2HNCHC2HC3N2HC2HC3N2HC2HC3N2HC2HC3N2HC2HC3N2HC2HC3N2HC2HC3N2HC2HC3N2HC2NC2HNCHC2NC2HNCHC2NC2HNCHC2NC2HNCHC2NC2HNCHC2NC2HNCHC2NC2HNCHC2NC2HNCHC2NC2HNCHC2NC2HNCHC6H3C6H3C6H3C6H3C6H3C6H3C6H3C6H3C6H3C6H3C6H3C6H3C6H3C6H3C6H3C6H3C6H3C6H3C6H3C6H3C2NC2HNCHC2NC2HNCHC2NC2HNCHC2NC2HNCHC2HC3N2HC2HC3N2HC2HC3N2HC2HC3N2HC2HC3N2HC2HC3N2HC2HC3N2HC2HC3N2HC2NC2HNCHC2NC2HNCHC2NC2HNCHC2NC2HNCHC2NC2HNCHC2NC2HNCHC2NC2HNCHC2NC2HNCHC2HC3N2HC2HC3N2HC2HC3N2HC2HC3N2HC2HC3N2HC2HC3N2HC2HC3N2HC2HC3N2HC2HC3N2HC2HC3N2H
_chemical_formula_sum              "C420 H180 N120"
_cell_length_a       65.8864
_cell_length_b       65.8864
_cell_length_c       14.9612
_cell_angle_alpha    90
_cell_angle_beta     90
_cell_angle_gamma    90

_space_group_name_H-M_alt    "P 1"
_space_group_IT_number       1

loop_
  _space_group_symop_operation_xyz
  'x, y, z'

loop_
  _atom_site_type_symbol
  _atom_site_label
  _atom_site_symmetry_multiplicity
  _atom_site_fract_x
  _atom_site_fract_y
  _atom_site_fract_z
  _atom_site_occupancy
  C   C1        1.0  0.31714  0.05111  0.26501  1.0000
  C   C2        1.0  0.29634  0.04645  0.26434  1.0000
  H   H1        1.0  0.28700  0.05392  0.22059  1.0000
  C   C3        1.0  0.39186  0.05782  0.33101  1.0000
  C   C4        1.0  0.37831  0.06710  0.27004  1.0000
  C   C5        1.0  0.35775  0.06144  0.26821  1.0000
  N   N1        1.0  0.34438  0.07021  0.21098  1.0000
  N   N2        1.0  0.32513  0.06534  0.20955  1.0000
  H   H2        1.0  0.38337  0.07787  0.22605  1.0000
  C   C6        1.0  0.68537  0.95158  0.26556  1.0000
  C   C7        1.0  0.70617  0.95622  0.26476  1.0000
  H   H3        1.0  0.71548  0.94878  0.22083  1.0000
  C   C8        1.0  0.61067  0.94480  0.33228  1.0000
  C   C9        1.0  0.62420  0.93560  0.27097  1.0000
  C   C10       1.0  0.64475  0.94126  0.26900  1.0000
  N   N3        1.0  0.65809  0.93253  0.21152  1.0000
  N   N4        1.0  0.67734  0.93739  0.20997  1.0000
  H   H4        1.0  0.61912  0.92487  0.22681  1.0000
  C   C11       1.0  0.95150  0.31718  0.26556  1.0000
  C   C12       1.0  0.95615  0.29638  0.26478  1.0000
  H   H5        1.0  0.94869  0.28706  0.22095  1.0000
  C   C13       1.0  0.94478  0.39189  0.33196  1.0000
  C   C14       1.0  0.93554  0.37835  0.27086  1.0000
  C   C15       1.0  0.94119  0.35780  0.26893  1.0000
  N   N5        1.0  0.93242  0.34444  0.21161  1.0000
  N   N6        1.0  0.93729  0.32519  0.21009  1.0000
  H   H6        1.0  0.92478  0.38342  0.22679  1.0000
  C   C16       1.0  0.05104  0.68541  0.26502  1.0000
  C   C17       1.0  0.04639  0.70622  0.26434  1.0000
  H   H7        1.0  0.05383  0.71555  0.22048  1.0000
  C   C18       1.0  0.05779  0.61070  0.33125  1.0000
  C   C19       1.0  0.06702  0.62424  0.27011  1.0000
  C   C20       1.0  0.06135  0.64480  0.26824  1.0000
  N   N7        1.0  0.07010  0.65816  0.21085  1.0000
  N   N8        1.0  0.06522  0.67741  0.20941  1.0000
  H   H8        1.0  0.07776  0.61917  0.22598  1.0000
  C   C21       1.0  0.21432  0.53197  0.34673  1.0000
  C   C22       1.0  0.20065  0.52206  0.28829  1.0000
  N   N9        1.0  0.18063  0.52695  0.28864  1.0000
  C   C23       1.0  0.17262  0.54104  0.34480  1.0000
  C   C24       1.0  0.15191  0.54630  0.34320  1.0000
  H   H9        1.0  0.20568  0.51172  0.24245  1.0000
  N   N10       1.0  0.13861  0.53762  0.28536  1.0000
  C   C25       1.0  0.11867  0.54271  0.28251  1.0000
  H   H10       1.0  0.10964  0.53570  0.23632  1.0000
  C   C26       1.0  0.78823  0.47061  0.34643  1.0000
  C   C27       1.0  0.80188  0.48049  0.28780  1.0000
  N   N11       1.0  0.82190  0.47560  0.28811  1.0000
  C   C28       1.0  0.82993  0.46155  0.34436  1.0000
  C   C29       1.0  0.85064  0.45629  0.34268  1.0000
  H   H11       1.0  0.79683  0.49083  0.24198  1.0000
  N   N12       1.0  0.86392  0.46494  0.28468  1.0000
  C   C30       1.0  0.88386  0.45986  0.28177  1.0000
  H   H12       1.0  0.89287  0.46684  0.23541  1.0000
  C   C31       1.0  0.53197  0.78821  0.34636  1.0000
  C   C32       1.0  0.52209  0.80186  0.28775  1.0000
  N   N13       1.0  0.52697  0.82188  0.28801  1.0000
  C   C33       1.0  0.54104  0.82991  0.34416  1.0000
  C   C34       1.0  0.54631  0.85062  0.34241  1.0000
  H   H13       1.0  0.51172  0.79682  0.24202  1.0000
  N   N14       1.0  0.53764  0.86389  0.28443  1.0000
  C   C35       1.0  0.54273  0.88384  0.28145  1.0000
  H   H14       1.0  0.53573  0.89284  0.23515  1.0000
  C   C36       1.0  0.47062  0.21431  0.34675  1.0000
  C   C37       1.0  0.48046  0.20064  0.28806  1.0000
  N   N15       1.0  0.47558  0.18063  0.28854  1.0000
  C   C38       1.0  0.46155  0.17261  0.34496  1.0000
  C   C39       1.0  0.45630  0.15190  0.34344  1.0000
  H   H15       1.0  0.49078  0.20568  0.24215  1.0000
  N   N16       1.0  0.46493  0.13860  0.28545  1.0000
  C   C40       1.0  0.45985  0.11866  0.28267  1.0000
  H   H16       1.0  0.46681  0.10963  0.23633  1.0000
  C   C41       1.0  0.21974  0.05900  0.35597  1.0000
  C   C42       1.0  0.20476  0.06435  0.29244  1.0000
  N   N17       1.0  0.19622  0.08318  0.29355  1.0000
  C   C43       1.0  0.20096  0.09758  0.35536  1.0000
  C   C44       1.0  0.19307  0.11753  0.35304  1.0000
  H   H17       1.0  0.20129  0.05482  0.24075  1.0000
  N   N18       1.0  0.17965  0.12387  0.28988  1.0000
  C   C45       1.0  0.17248  0.14321  0.28574  1.0000
  H   H18       1.0  0.16266  0.14687  0.23539  1.0000
  C   C46       1.0  0.78280  0.94359  0.35586  1.0000
  C   C47       1.0  0.79777  0.93824  0.29230  1.0000
  N   N19       1.0  0.80634  0.91942  0.29348  1.0000
  C   C48       1.0  0.80160  0.90502  0.35531  1.0000
  C   C49       1.0  0.80951  0.88508  0.35300  1.0000
  H   H19       1.0  0.80127  0.94780  0.24075  1.0000
  N   N20       1.0  0.82293  0.87874  0.28987  1.0000
  C   C50       1.0  0.83013  0.85941  0.28578  1.0000
  H   H20       1.0  0.83993  0.85574  0.23537  1.0000
  C   C51       1.0  0.94360  0.21974  0.35594  1.0000
  C   C52       1.0  0.93825  0.20477  0.29238  1.0000
  N   N21       1.0  0.91942  0.19623  0.29350  1.0000
  C   C53       1.0  0.90502  0.20096  0.35536  1.0000
  C   C54       1.0  0.88507  0.19306  0.35302  1.0000
  H   H21       1.0  0.94778  0.20131  0.24068  1.0000
  N   N22       1.0  0.87873  0.17965  0.28987  1.0000
  C   C55       1.0  0.85940  0.17247  0.28576  1.0000
  H   H22       1.0  0.85573  0.16267  0.23535  1.0000
  C   C56       1.0  0.05901  0.78282  0.35591  1.0000
  C   C57       1.0  0.06437  0.79779  0.29233  1.0000
  N   N23       1.0  0.08318  0.80636  0.29356  1.0000
  C   C58       1.0  0.09758  0.80163  0.35540  1.0000
  C   C59       1.0  0.11752  0.80953  0.35309  1.0000
  H   H23       1.0  0.05480  0.80130  0.24080  1.0000
  N   N24       1.0  0.12386  0.82295  0.28997  1.0000
  C   C60       1.0  0.14319  0.83013  0.28586  1.0000
  H   H24       1.0  0.14686  0.83995  0.23548  1.0000
  C   C61       1.0  0.28718  0.59313  0.24917  1.0000
  C   C62       1.0  0.27809  0.57384  0.24837  1.0000
  H   H25       1.0  0.26698  0.57091  0.20226  1.0000
  C   C63       1.0  0.32353  0.65836  0.32531  1.0000
  C   C64       1.0  0.30950  0.65229  0.25893  1.0000
  C   C65       1.0  0.30253  0.63213  0.25510  1.0000
  N   N25       1.0  0.28876  0.62617  0.19293  1.0000
  N   N26       1.0  0.28149  0.60772  0.19016  1.0000
  H   H26       1.0  0.30426  0.66255  0.21296  1.0000
  C   C66       1.0  0.71536  0.40946  0.24921  1.0000
  C   C67       1.0  0.72444  0.42875  0.24838  1.0000
  H   H27       1.0  0.73553  0.43169  0.20220  1.0000
  C   C68       1.0  0.67904  0.34421  0.32538  1.0000
  C   C69       1.0  0.69306  0.35029  0.25896  1.0000
  C   C70       1.0  0.70002  0.37046  0.25514  1.0000
  N   N27       1.0  0.71378  0.37642  0.19293  1.0000
  N   N28       1.0  0.72105  0.39488  0.19016  1.0000
  H   H28       1.0  0.69829  0.34004  0.21297  1.0000
  C   C71       1.0  0.59313  0.71535  0.24920  1.0000
  C   C72       1.0  0.57383  0.72443  0.24840  1.0000
  H   H29       1.0  0.57089  0.73551  0.20215  1.0000
  C   C73       1.0  0.65838  0.67905  0.32537  1.0000
  C   C74       1.0  0.65230  0.69306  0.25894  1.0000
  C   C75       1.0  0.63213  0.70002  0.25513  1.0000
  N   N29       1.0  0.62616  0.71377  0.19290  1.0000
  N   N30       1.0  0.60770  0.72104  0.19014  1.0000
  H   H30       1.0  0.66255  0.69829  0.21294  1.0000
  C   C76       1.0  0.40946  0.28718  0.24922  1.0000
  C   C77       1.0  0.42875  0.27810  0.24839  1.0000
  H   H31       1.0  0.43167  0.26696  0.20235  1.0000
  C   C78       1.0  0.34423  0.32354  0.32531  1.0000
  C   C79       1.0  0.35030  0.30950  0.25895  1.0000
  C   C80       1.0  0.37047  0.30254  0.25513  1.0000
  N   N31       1.0  0.37642  0.28876  0.19299  1.0000
  N   N32       1.0  0.39487  0.28148  0.19023  1.0000
  H   H32       1.0  0.34005  0.30427  0.21300  1.0000
  C   C81       1.0  0.23412  0.94967  0.26059  1.0000
  C   C82       1.0  0.23924  0.97039  0.25885  1.0000
  H   H33       1.0  0.24968  0.97526  0.21296  1.0000
  C   C83       1.0  0.20790  0.87936  0.33131  1.0000
  C   C84       1.0  0.22176  0.88755  0.26867  1.0000
  C   C85       1.0  0.22562  0.90856  0.26599  1.0000
  N   N33       1.0  0.23887  0.91672  0.20646  1.0000
  N   N34       1.0  0.24289  0.93616  0.20393  1.0000
  H   H34       1.0  0.22891  0.87827  0.22370  1.0000
  C   C86       1.0  0.76844  0.05292  0.26071  1.0000
  C   C87       1.0  0.76331  0.03221  0.25903  1.0000
  H   H35       1.0  0.75286  0.02733  0.21317  1.0000
  C   C88       1.0  0.79470  0.12323  0.33127  1.0000
  C   C89       1.0  0.78082  0.11504  0.26867  1.0000
  C   C90       1.0  0.77696  0.09402  0.26602  1.0000
  N   N35       1.0  0.76370  0.08587  0.20656  1.0000
  N   N36       1.0  0.75966  0.06643  0.20408  1.0000
  H   H36       1.0  0.77366  0.12432  0.22373  1.0000
  C   C91       1.0  0.05292  0.23415  0.26070  1.0000
  C   C92       1.0  0.03221  0.23928  0.25901  1.0000
  H   H37       1.0  0.02733  0.24973  0.21315  1.0000
  C   C93       1.0  0.12323  0.20791  0.33128  1.0000
  C   C94       1.0  0.11504  0.22179  0.26869  1.0000
  C   C95       1.0  0.09403  0.22564  0.26603  1.0000
  N   N37       1.0  0.08587  0.23890  0.20655  1.0000
  N   N38       1.0  0.06643  0.24293  0.20407  1.0000
  H   H38       1.0  0.12432  0.22894  0.22372  1.0000
  C   C96       1.0  0.94968  0.76846  0.26063  1.0000
  C   C97       1.0  0.97039  0.76334  0.25890  1.0000
  H   H39       1.0  0.97526  0.75289  0.21305  1.0000
  C   C98       1.0  0.87937  0.79471  0.33125  1.0000
  C   C99       1.0  0.88755  0.78083  0.26864  1.0000
  C   C100      1.0  0.90857  0.77697  0.26597  1.0000
  N   N39       1.0  0.91672  0.76371  0.20649  1.0000
  N   N40       1.0  0.93617  0.75969  0.20399  1.0000
  H   H40       1.0  0.87828  0.77368  0.22366  1.0000
  C   C101      1.0  0.27202  0.48443  0.34913  1.0000
  C   C102      1.0  0.28629  0.47647  0.28762  1.0000
  N   N41       1.0  0.29089  0.45632  0.28730  1.0000
  C   C103      1.0  0.28264  0.44279  0.34562  1.0000
  C   C104      1.0  0.28692  0.42178  0.34319  1.0000
  H   H41       1.0  0.29252  0.48546  0.23920  1.0000
  N   N42       1.0  0.29989  0.41343  0.28294  1.0000
  C   C105      1.0  0.30395  0.39321  0.27968  1.0000
  H   H42       1.0  0.31376  0.38812  0.23174  1.0000
  C   C106      1.0  0.73055  0.51816  0.34903  1.0000
  C   C107      1.0  0.71630  0.52614  0.28749  1.0000
  N   N43       1.0  0.71169  0.54628  0.28725  1.0000
  C   C108      1.0  0.71995  0.55980  0.34557  1.0000
  C   C109      1.0  0.71568  0.58082  0.34315  1.0000
  H   H43       1.0  0.71003  0.51714  0.23919  1.0000
  N   N44       1.0  0.70271  0.58918  0.28292  1.0000
  C   C110      1.0  0.69865  0.60939  0.27970  1.0000
  H   H44       1.0  0.68885  0.61449  0.23174  1.0000
  C   C111      1.0  0.48442  0.73053  0.34905  1.0000
  C   C112      1.0  0.47645  0.71627  0.28753  1.0000
  N   N45       1.0  0.45631  0.71167  0.28725  1.0000
  C   C113      1.0  0.44278  0.71993  0.34557  1.0000
  C   C114      1.0  0.42177  0.71566  0.34314  1.0000
  H   H45       1.0  0.48545  0.71001  0.23920  1.0000
  N   N46       1.0  0.41341  0.70269  0.28291  1.0000
  C   C115      1.0  0.39320  0.69863  0.27967  1.0000
  H   H46       1.0  0.38810  0.68883  0.23172  1.0000
  C   C116      1.0  0.51816  0.27199  0.34903  1.0000
  C   C117      1.0  0.52613  0.28625  0.28752  1.0000
  N   N47       1.0  0.54627  0.29087  0.28729  1.0000
  C   C118      1.0  0.55980  0.28263  0.34562  1.0000
  C   C119      1.0  0.58081  0.28691  0.34320  1.0000
  H   H47       1.0  0.51712  0.29252  0.23924  1.0000
  N   N48       1.0  0.58916  0.29988  0.28297  1.0000
  C   C120      1.0  0.60938  0.30394  0.27973  1.0000
  H   H48       1.0  0.61447  0.31375  0.23179  1.0000
  C   C121      1.0  0.27089  0.30782  0.34081  1.0000
  C   C122      1.0  0.25344  0.30944  0.28583  1.0000
  N   N49       1.0  0.23878  0.29489  0.28700  1.0000
  C   C123      1.0  0.23958  0.27826  0.34072  1.0000
  C   C124      1.0  0.22442  0.26305  0.34101  1.0000
  H   H49       1.0  0.25185  0.32125  0.24212  1.0000
  N   N50       1.0  0.20781  0.26366  0.28713  1.0000
  C   C125      1.0  0.19334  0.24892  0.28638  1.0000
  H   H50       1.0  0.18158  0.25039  0.24233  1.0000
  C   C126      1.0  0.73172  0.69478  0.34078  1.0000
  C   C127      1.0  0.74917  0.69317  0.28580  1.0000
  N   N51       1.0  0.76383  0.70771  0.28699  1.0000
  C   C128      1.0  0.76303  0.72435  0.34071  1.0000
  C   C129      1.0  0.77819  0.73955  0.34100  1.0000
  H   H51       1.0  0.75076  0.68135  0.24210  1.0000
  N   N52       1.0  0.79480  0.73895  0.28713  1.0000
  C   C130      1.0  0.80927  0.75368  0.28641  1.0000
  H   H52       1.0  0.82102  0.75223  0.24228  1.0000
  C   C131      1.0  0.69477  0.27087  0.34080  1.0000
  C   C132      1.0  0.69316  0.25343  0.28579  1.0000
  N   N53       1.0  0.70771  0.23877  0.28701  1.0000
  C   C133      1.0  0.72434  0.23957  0.34075  1.0000
  C   C134      1.0  0.73955  0.22441  0.34104  1.0000
  H   H53       1.0  0.68134  0.25183  0.24216  1.0000
  N   N54       1.0  0.73894  0.20780  0.28717  1.0000
  C   C135      1.0  0.75367  0.19332  0.28644  1.0000
  H   H54       1.0  0.75221  0.18157  0.24234  1.0000
  C   C136      1.0  0.30781  0.73171  0.34075  1.0000
  C   C137      1.0  0.30942  0.74915  0.28574  1.0000
  N   N55       1.0  0.29487  0.76382  0.28697  1.0000
  C   C138      1.0  0.27825  0.76301  0.34072  1.0000
  C   C139      1.0  0.26304  0.77818  0.34103  1.0000
  H   H55       1.0  0.32124  0.75074  0.24210  1.0000
  N   N56       1.0  0.26365  0.79479  0.28716  1.0000
  C   C140      1.0  0.24891  0.80927  0.28643  1.0000
  H   H56       1.0  0.25037  0.82102  0.24233  1.0000
  C   C141      1.0  0.53872  0.96366  0.33634  1.0000
  C   C142      1.0  0.52985  0.97027  0.25557  1.0000
  N   N57       1.0  0.51534  0.98486  0.25685  1.0000
  C   C143      1.0  0.50868  0.99360  0.33371  1.0000
  C   C144      1.0  0.49361  0.00871  0.33367  1.0000
  H   H57       1.0  0.53423  0.96431  0.19548  1.0000
  N   N58       1.0  0.48488  0.01536  0.25679  1.0000
  C   C145      1.0  0.47033  0.02990  0.25545  1.0000
  H   H58       1.0  0.46436  0.03427  0.19536  1.0000
  C   C146      1.0  0.03885  0.53880  0.33626  1.0000
  C   C147      1.0  0.03049  0.53166  0.25529  1.0000
  N   N59       1.0  0.01594  0.51712  0.25660  1.0000
  C   C148      1.0  0.00878  0.50889  0.33367  1.0000
  C   C149      1.0  0.99367  0.49382  0.33366  1.0000
  H   H59       1.0  0.03525  0.53725  0.19504  1.0000
  N   N60       1.0  0.98544  0.48666  0.25658  1.0000
  C   C150      1.0  0.97087  0.47214  0.25526  1.0000
  H   H60       1.0  0.96529  0.46737  0.19502  1.0000
  C   C151      1.0  0.26713  0.02819  0.32855  1.0000
  C   C152      1.0  0.25354  0.04456  0.33824  1.0000
  C   C153      1.0  0.23234  0.04158  0.34445  1.0000
  C   C154      1.0  0.22471  0.02153  0.33736  1.0000
  C   C155      1.0  0.23793  0.00466  0.32700  1.0000
  C   C156      1.0  0.25912  0.00837  0.32454  1.0000
  H   H61       1.0  0.20936  0.01922  0.34019  1.0000
  H   H62       1.0  0.26901  0.99644  0.31892  1.0000
  H   H63       1.0  0.25929  0.05900  0.34186  1.0000
  C   C157      1.0  0.73542  0.97442  0.32892  1.0000
  C   C158      1.0  0.74900  0.95805  0.33843  1.0000
  C   C159      1.0  0.77020  0.96101  0.34450  1.0000
  C   C160      1.0  0.77784  0.98106  0.33739  1.0000
  C   C161      1.0  0.76462  0.99794  0.32718  1.0000
  C   C162      1.0  0.74343  0.99424  0.32490  1.0000
  H   H64       1.0  0.79319  0.98337  0.34013  1.0000
  H   H65       1.0  0.73354  0.00617  0.31940  1.0000
  H   H66       1.0  0.74324  0.94362  0.34202  1.0000
  C   C163      1.0  0.97440  0.26715  0.32882  1.0000
  C   C164      1.0  0.95804  0.25355  0.33838  1.0000
  C   C165      1.0  0.96102  0.23235  0.34454  1.0000
  C   C166      1.0  0.98107  0.22473  0.33741  1.0000
  C   C167      1.0  0.99794  0.23796  0.32716  1.0000
  C   C168      1.0  0.99423  0.25915  0.32480  1.0000
  H   H67       1.0  0.98338  0.20938  0.34019  1.0000
  H   H68       1.0  0.00615  0.26904  0.31927  1.0000
  H   H69       1.0  0.94360  0.25930  0.34203  1.0000
  C   C169      1.0  0.02818  0.73544  0.32869  1.0000
  C   C170      1.0  0.04455  0.74903  0.33827  1.0000
  C   C171      1.0  0.04158  0.77023  0.34446  1.0000
  C   C172      1.0  0.02153  0.77786  0.33737  1.0000
  C   C173      1.0  0.00466  0.76464  0.32710  1.0000
  C   C174      1.0  0.00836  0.74345  0.32469  1.0000
  H   H70       1.0  0.01923  0.79321  0.34018  1.0000
  H   H71       1.0  0.99643  0.73356  0.31914  1.0000
  H   H72       1.0  0.05899  0.74327  0.34189  1.0000
  C   C175      1.0  0.23556  0.52835  0.34218  1.0000
  C   C176      1.0  0.24911  0.54474  0.33258  1.0000
  C   C177      1.0  0.27032  0.54182  0.32605  1.0000
  C   C178      1.0  0.27798  0.52178  0.33287  1.0000
  C   C179      1.0  0.26480  0.50488  0.34326  1.0000
  C   C180      1.0  0.24360  0.50855  0.34595  1.0000
  H   H73       1.0  0.29334  0.51948  0.32985  1.0000
  H   H74       1.0  0.23374  0.49659  0.35163  1.0000
  H   H75       1.0  0.24333  0.55917  0.32923  1.0000
  C   C181      1.0  0.76700  0.47423  0.34200  1.0000
  C   C182      1.0  0.75343  0.45784  0.33248  1.0000
  C   C183      1.0  0.73223  0.46078  0.32600  1.0000
  C   C184      1.0  0.72457  0.48082  0.33283  1.0000
  C   C185      1.0  0.73777  0.49771  0.34317  1.0000
  C   C186      1.0  0.75896  0.49404  0.34579  1.0000
  H   H76       1.0  0.70922  0.48312  0.32986  1.0000
  H   H77       1.0  0.76882  0.50599  0.35141  1.0000
  H   H78       1.0  0.75921  0.44341  0.32914  1.0000
  C   C187      1.0  0.52835  0.76698  0.34198  1.0000
  C   C188      1.0  0.54474  0.75342  0.33245  1.0000
  C   C189      1.0  0.54181  0.73221  0.32602  1.0000
  C   C190      1.0  0.52176  0.72455  0.33285  1.0000
  C   C191      1.0  0.50487  0.73775  0.34320  1.0000
  C   C192      1.0  0.50854  0.75894  0.34579  1.0000
  H   H79       1.0  0.51946  0.70920  0.32988  1.0000
  H   H80       1.0  0.49659  0.76881  0.35141  1.0000
  H   H81       1.0  0.55917  0.75920  0.32908  1.0000
  C   C193      1.0  0.47424  0.23554  0.34218  1.0000
  C   C194      1.0  0.45784  0.24910  0.33266  1.0000
  C   C195      1.0  0.46077  0.27030  0.32613  1.0000
  C   C196      1.0  0.48082  0.27797  0.33286  1.0000
  C   C197      1.0  0.49771  0.26477  0.34322  1.0000
  C   C198      1.0  0.49404  0.24358  0.34592  1.0000
  H   H82       1.0  0.48311  0.29332  0.32983  1.0000
  H   H83       1.0  0.50599  0.23372  0.35153  1.0000
  H   H84       1.0  0.44341  0.24331  0.32936  1.0000
  C   C199      1.0  0.18022  0.21549  0.34009  1.0000
  C   C200      1.0  0.18644  0.19492  0.34387  1.0000
  C   C201      1.0  0.17239  0.17868  0.34241  1.0000
  C   C202      1.0  0.15150  0.18335  0.33748  1.0000
  C   C203      1.0  0.14450  0.20365  0.33418  1.0000
  C   C204      1.0  0.15910  0.21946  0.33460  1.0000
  H   H85       1.0  0.14117  0.17173  0.33686  1.0000
  H   H86       1.0  0.15419  0.23420  0.33482  1.0000
  H   H87       1.0  0.20162  0.19160  0.34506  1.0000
  C   C205      1.0  0.82238  0.78712  0.34006  1.0000
  C   C206      1.0  0.81616  0.80769  0.34385  1.0000
  C   C207      1.0  0.83021  0.82393  0.34239  1.0000
  C   C208      1.0  0.85110  0.81926  0.33744  1.0000
  C   C209      1.0  0.85810  0.79896  0.33415  1.0000
  C   C210      1.0  0.84350  0.78315  0.33456  1.0000
  H   H88       1.0  0.86143  0.83088  0.33685  1.0000
  H   H89       1.0  0.84842  0.76841  0.33479  1.0000
  H   H90       1.0  0.80098  0.81101  0.34504  1.0000
  C   C211      1.0  0.78711  0.18021  0.34012  1.0000
  C   C212      1.0  0.80768  0.18643  0.34395  1.0000
  C   C213      1.0  0.82393  0.17239  0.34242  1.0000
  C   C214      1.0  0.81925  0.15149  0.33746  1.0000
  C   C215      1.0  0.79896  0.14450  0.33419  1.0000
  C   C216      1.0  0.78314  0.15910  0.33461  1.0000
  H   H91       1.0  0.83087  0.14116  0.33684  1.0000
  H   H92       1.0  0.76840  0.15418  0.33482  1.0000
  H   H93       1.0  0.81100  0.20162  0.34508  1.0000
  C   C217      1.0  0.21548  0.82238  0.34015  1.0000
  C   C218      1.0  0.19491  0.81616  0.34399  1.0000
  C   C219      1.0  0.17867  0.83021  0.34247  1.0000
  C   C220      1.0  0.18335  0.85110  0.33753  1.0000
  C   C221      1.0  0.20364  0.85809  0.33424  1.0000
  C   C222      1.0  0.21945  0.84349  0.33468  1.0000
  H   H94       1.0  0.17172  0.86143  0.33690  1.0000
  H   H95       1.0  0.23419  0.84841  0.33482  1.0000
  H   H96       1.0  0.19159  0.80097  0.34509  1.0000
  C   C223      1.0  0.32248  0.71565  0.33774  1.0000
  C   C224      1.0  0.31619  0.69512  0.33280  1.0000
  C   C225      1.0  0.33027  0.67891  0.33089  1.0000
  C   C226      1.0  0.35120  0.68358  0.33357  1.0000
  C   C227      1.0  0.35821  0.70387  0.33734  1.0000
  C   C228      1.0  0.34360  0.71967  0.33957  1.0000
  H   H97       1.0  0.36152  0.67196  0.33238  1.0000
  H   H98       1.0  0.34846  0.73442  0.34281  1.0000
  H   H99       1.0  0.30100  0.69187  0.33057  1.0000
  C   C229      1.0  0.68009  0.28693  0.33779  1.0000
  C   C230      1.0  0.68638  0.30746  0.33286  1.0000
  C   C231      1.0  0.67230  0.32367  0.33095  1.0000
  C   C232      1.0  0.65138  0.31899  0.33363  1.0000
  C   C233      1.0  0.64437  0.29871  0.33740  1.0000
  C   C234      1.0  0.65897  0.28291  0.33963  1.0000
  H   H100      1.0  0.64105  0.33062  0.33246  1.0000
  H   H101      1.0  0.65412  0.26816  0.34286  1.0000
  H   H102      1.0  0.70158  0.31071  0.33063  1.0000
  C   C235      1.0  0.71567  0.68010  0.33776  1.0000
  C   C236      1.0  0.69514  0.68639  0.33283  1.0000
  C   C237      1.0  0.67893  0.67231  0.33094  1.0000
  C   C238      1.0  0.68360  0.65139  0.33362  1.0000
  C   C239      1.0  0.70389  0.64438  0.33738  1.0000
  C   C240      1.0  0.71969  0.65898  0.33961  1.0000
  H   H103      1.0  0.67198  0.64106  0.33245  1.0000
  H   H104      1.0  0.73444  0.65413  0.34284  1.0000
  H   H105      1.0  0.69189  0.70159  0.33060  1.0000
  C   C241      1.0  0.28695  0.32250  0.33777  1.0000
  C   C242      1.0  0.30747  0.31621  0.33283  1.0000
  C   C243      1.0  0.32369  0.33029  0.33089  1.0000
  C   C244      1.0  0.31901  0.35121  0.33358  1.0000
  C   C245      1.0  0.29873  0.35822  0.33738  1.0000
  C   C246      1.0  0.28292  0.34362  0.33962  1.0000
  H   H106      1.0  0.33064  0.36153  0.33238  1.0000
  H   H107      1.0  0.26818  0.34847  0.34287  1.0000
  H   H108      1.0  0.31072  0.30101  0.33059  1.0000
  C   C247      1.0  0.43921  0.08993  0.33807  1.0000
  C   C248      1.0  0.41855  0.08410  0.33592  1.0000
  C   C249      1.0  0.41269  0.06345  0.33373  1.0000
  C   C250      1.0  0.42802  0.04845  0.33365  1.0000
  C   C251      1.0  0.44868  0.05393  0.33577  1.0000
  C   C252      1.0  0.45419  0.07458  0.33801  1.0000
  H   H109      1.0  0.42414  0.03340  0.33095  1.0000
  H   H110      1.0  0.46925  0.07844  0.34089  1.0000
  H   H111      1.0  0.40756  0.09511  0.33597  1.0000
  C   C253      1.0  0.56336  0.91260  0.33683  1.0000
  C   C254      1.0  0.58401  0.91848  0.33585  1.0000
  C   C255      1.0  0.58984  0.93916  0.33498  1.0000
  C   C256      1.0  0.57449  0.95412  0.33572  1.0000
  C   C257      1.0  0.55383  0.94859  0.33596  1.0000
  C   C258      1.0  0.54835  0.92792  0.33625  1.0000
  H   H112      1.0  0.57833  0.96919  0.33380  1.0000
  H   H113      1.0  0.53329  0.92404  0.33835  1.0000
  H   H114      1.0  0.59502  0.90750  0.33580  1.0000
  C   C259      1.0  0.91262  0.43923  0.33715  1.0000
  C   C260      1.0  0.91848  0.41857  0.33589  1.0000
  C   C261      1.0  0.93915  0.41273  0.33466  1.0000
  C   C262      1.0  0.95412  0.42807  0.33516  1.0000
  C   C263      1.0  0.94861  0.44873  0.33587  1.0000
  C   C264      1.0  0.92795  0.45422  0.33667  1.0000
  H   H115      1.0  0.96919  0.42422  0.33302  1.0000
  H   H116      1.0  0.92408  0.46929  0.33895  1.0000
  H   H117      1.0  0.90749  0.40757  0.33590  1.0000
  C   C265      1.0  0.08993  0.56337  0.33776  1.0000
  C   C266      1.0  0.08409  0.58403  0.33583  1.0000
  C   C267      1.0  0.06342  0.58988  0.33400  1.0000
  C   C268      1.0  0.04844  0.57454  0.33418  1.0000
  C   C269      1.0  0.05394  0.55388  0.33588  1.0000
  C   C270      1.0  0.07460  0.54838  0.33768  1.0000
  H   H118      1.0  0.03338  0.57840  0.33166  1.0000
  H   H119      1.0  0.07846  0.53333  0.34036  1.0000
  H   H120      1.0  0.09508  0.59503  0.33579  1.0000
  C   C271      1.0  0.28836  0.03186  0.32418  1.0000
  C   C272      1.0  0.30203  0.02196  0.38261  1.0000
  N   N61       1.0  0.32204  0.02690  0.38241  1.0000
  C   C273      1.0  0.33003  0.04103  0.32642  1.0000
  C   C274      1.0  0.35073  0.04634  0.32815  1.0000
  H   H121      1.0  0.29701  0.01158  0.42832  1.0000
  N   N62       1.0  0.36403  0.03765  0.38595  1.0000
  C   C275      1.0  0.38397  0.04276  0.38889  1.0000
  H   H122      1.0  0.39300  0.03574  0.43502  1.0000
  C   C276      1.0  0.71418  0.97077  0.32471  1.0000
  C   C277      1.0  0.70054  0.98063  0.38342  1.0000
  N   N63       1.0  0.68053  0.97571  0.38332  1.0000
  C   C278      1.0  0.67250  0.96162  0.32722  1.0000
  C   C279      1.0  0.65180  0.95632  0.32910  1.0000
  H   H123      1.0  0.70559  0.99100  0.42913  1.0000
  N   N64       1.0  0.63852  0.96496  0.38716  1.0000
  C   C280      1.0  0.61859  0.95984  0.39023  1.0000
  H   H124      1.0  0.60958  0.96681  0.43662  1.0000
  C   C281      1.0  0.97074  0.28838  0.32460  1.0000
  C   C282      1.0  0.98062  0.30204  0.38316  1.0000
  N   N65       1.0  0.97571  0.32205  0.38301  1.0000
  C   C283      1.0  0.96158  0.33006  0.32704  1.0000
  C   C284      1.0  0.95628  0.35076  0.32888  1.0000
  H   H125      1.0  0.99103  0.29700  0.42874  1.0000
  N   N66       1.0  0.96496  0.36405  0.38676  1.0000
  C   C285      1.0  0.95984  0.38398  0.38980  1.0000
  H   H126      1.0  0.96685  0.39300  0.43605  1.0000
  C   C286      1.0  0.03184  0.71421  0.32437  1.0000
  C   C287      1.0  0.02199  0.70055  0.38301  1.0000
  N   N67       1.0  0.02690  0.68054  0.38275  1.0000
  C   C288      1.0  0.04099  0.67253  0.32660  1.0000
  C   C289      1.0  0.04629  0.65183  0.32835  1.0000
  H   H127      1.0  0.01161  0.70558  0.42873  1.0000
  N   N68       1.0  0.03764  0.63854  0.38631  1.0000
  C   C290      1.0  0.04276  0.61861  0.38926  1.0000
  H   H128      1.0  0.03577  0.60959  0.43556  1.0000
  C   C291      1.0  0.18551  0.55112  0.40625  1.0000
  C   C292      1.0  0.20632  0.54651  0.40677  1.0000
  H   H129      1.0  0.21566  0.55397  0.45053  1.0000
  C   C293      1.0  0.11077  0.55774  0.34050  1.0000
  C   C294      1.0  0.12431  0.56700  0.40154  1.0000
  C   C295      1.0  0.14487  0.56137  0.40329  1.0000
  N   N69       1.0  0.15824  0.57014  0.46055  1.0000
  N   N70       1.0  0.17750  0.56530  0.46187  1.0000
  H   H130      1.0  0.11924  0.57775  0.44562  1.0000
  C   C296      1.0  0.81706  0.45149  0.40595  1.0000
  C   C297      1.0  0.79624  0.45610  0.40655  1.0000
  H   H131      1.0  0.78692  0.44866  0.45043  1.0000
  C   C298      1.0  0.89178  0.44485  0.33982  1.0000
  C   C299      1.0  0.87826  0.43563  0.40106  1.0000
  C   C300      1.0  0.85769  0.44125  0.40288  1.0000
  N   N71       1.0  0.84434  0.43250  0.46030  1.0000
  N   N72       1.0  0.82508  0.43734  0.46167  1.0000
  H   H132      1.0  0.88334  0.42490  0.44525  1.0000
  C   C301      1.0  0.55112  0.81704  0.40572  1.0000
  C   C302      1.0  0.54650  0.79623  0.40638  1.0000
  H   H133      1.0  0.55396  0.78691  0.45026  1.0000
  C   C303      1.0  0.55775  0.89176  0.33944  1.0000
  C   C304      1.0  0.56699  0.87824  0.40064  1.0000
  C   C305      1.0  0.56136  0.85767  0.40252  1.0000
  N   N73       1.0  0.57012  0.84433  0.45991  1.0000
  N   N74       1.0  0.56529  0.82507  0.46135  1.0000
  H   H134      1.0  0.57771  0.88332  0.44482  1.0000
  C   C306      1.0  0.45153  0.18549  0.40658  1.0000
  C   C307      1.0  0.45613  0.20631  0.40704  1.0000
  H   H135      1.0  0.44870  0.21564  0.45092  1.0000
  C   C308      1.0  0.44486  0.11075  0.34087  1.0000
  C   C309      1.0  0.43565  0.12429  0.40206  1.0000
  C   C310      1.0  0.44128  0.14485  0.40377  1.0000
  N   N75       1.0  0.43256  0.15822  0.46118  1.0000
  N   N76       1.0  0.43739  0.17748  0.46243  1.0000
  H   H136      1.0  0.42492  0.11922  0.44627  1.0000
  C   C311      1.0  0.21528  0.09271  0.42274  1.0000
  C   C312      1.0  0.22437  0.07343  0.42315  1.0000
  H   H137      1.0  0.23538  0.07039  0.46961  1.0000
  C   C313      1.0  0.17913  0.15811  0.34740  1.0000
  C   C314      1.0  0.19296  0.15188  0.41433  1.0000
  C   C315      1.0  0.19992  0.13171  0.41768  1.0000
  N   N77       1.0  0.21353  0.12562  0.48031  1.0000
  N   N78       1.0  0.22081  0.10717  0.48265  1.0000
  H   H138      1.0  0.19806  0.16203  0.46106  1.0000
  C   C316      1.0  0.78727  0.90988  0.42264  1.0000
  C   C317      1.0  0.77817  0.92916  0.42305  1.0000
  H   H139      1.0  0.76717  0.93219  0.46954  1.0000
  C   C318      1.0  0.82347  0.84450  0.34738  1.0000
  C   C319      1.0  0.80963  0.85072  0.41431  1.0000
  C   C320      1.0  0.80266  0.87089  0.41764  1.0000
  N   N79       1.0  0.78904  0.87697  0.48024  1.0000
  N   N80       1.0  0.78175  0.89542  0.48256  1.0000
  H   H140      1.0  0.80453  0.84058  0.46102  1.0000
  C   C321      1.0  0.90989  0.21528  0.42271  1.0000
  C   C322      1.0  0.92917  0.22438  0.42309  1.0000
  H   H141      1.0  0.93221  0.23537  0.46963  1.0000
  C   C323      1.0  0.84449  0.17913  0.34740  1.0000
  C   C324      1.0  0.85072  0.19295  0.41435  1.0000
  C   C325      1.0  0.87089  0.19992  0.41768  1.0000
  N   N81       1.0  0.87698  0.21352  0.48031  1.0000
  N   N82       1.0  0.89544  0.22080  0.48265  1.0000
  H   H142      1.0  0.84058  0.19805  0.46108  1.0000
  C   C326      1.0  0.09271  0.78730  0.42273  1.0000
  C   C327      1.0  0.07342  0.77820  0.42316  1.0000
  H   H143      1.0  0.07041  0.76717  0.46955  1.0000
  C   C328      1.0  0.15810  0.82347  0.34746  1.0000
  C   C329      1.0  0.15187  0.80963  0.41437  1.0000
  C   C330      1.0  0.13170  0.80266  0.41770  1.0000
  N   N83       1.0  0.12562  0.78904  0.48029  1.0000
  N   N84       1.0  0.10717  0.78176  0.48261  1.0000
  H   H144      1.0  0.16202  0.80452  0.46107  1.0000
  C   C331      1.0  0.28288  0.55928  0.31478  1.0000
  C   C332      1.0  0.29803  0.56449  0.37775  1.0000
  N   N85       1.0  0.30657  0.58332  0.37699  1.0000
  C   C333      1.0  0.30167  0.59786  0.31602  1.0000
  C   C334      1.0  0.30957  0.61780  0.31876  1.0000
  H   H145      1.0  0.30163  0.55485  0.42887  1.0000
  N   N86       1.0  0.32317  0.62401  0.38143  1.0000
  C   C335      1.0  0.33036  0.64333  0.38597  1.0000
  H   H146      1.0  0.34033  0.64689  0.43589  1.0000
  C   C336      1.0  0.71965  0.44332  0.31476  1.0000
  C   C337      1.0  0.70456  0.43807  0.37793  1.0000
  N   N87       1.0  0.69601  0.41925  0.37715  1.0000
  C   C338      1.0  0.70089  0.40472  0.31611  1.0000
  C   C339      1.0  0.69300  0.38478  0.31886  1.0000
  H   H147      1.0  0.70095  0.44773  0.42897  1.0000
  N   N88       1.0  0.67941  0.37856  0.38156  1.0000
  C   C340      1.0  0.67221  0.35924  0.38606  1.0000
  H   H148      1.0  0.66227  0.35567  0.43607  1.0000
  C   C341      1.0  0.55926  0.71964  0.31477  1.0000
  C   C342      1.0  0.56453  0.70456  0.37798  1.0000
  N   N89       1.0  0.58335  0.69601  0.37717  1.0000
  C   C343      1.0  0.59787  0.70088  0.31610  1.0000
  C   C344      1.0  0.61781  0.69299  0.31885  1.0000
  H   H149      1.0  0.55487  0.70092  0.42898  1.0000
  N   N90       1.0  0.62403  0.67941  0.38157  1.0000
  C   C345      1.0  0.64336  0.67223  0.38608  1.0000
  H   H150      1.0  0.64693  0.66228  0.43609  1.0000
  C   C346      1.0  0.44331  0.28286  0.31483  1.0000
  C   C347      1.0  0.43808  0.29799  0.37792  1.0000
  N   N91       1.0  0.41926  0.30655  0.37706  1.0000
  C   C348      1.0  0.40473  0.30167  0.31604  1.0000
  C   C349      1.0  0.38479  0.30958  0.31878  1.0000
  H   H151      1.0  0.44774  0.30162  0.42889  1.0000
  N   N92       1.0  0.37859  0.32318  0.38144  1.0000
  C   C350      1.0  0.35927  0.33037  0.38594  1.0000
  H   H152      1.0  0.35571  0.34034  0.43591  1.0000
  C   C351      1.0  0.23073  0.98419  0.32116  1.0000
  C   C352      1.0  0.21626  0.97631  0.38195  1.0000
  N   N93       1.0  0.21159  0.95619  0.38229  1.0000
  C   C353      1.0  0.21998  0.94259  0.32469  1.0000
  C   C354      1.0  0.21561  0.92160  0.32724  1.0000
  H   H153      1.0  0.20989  0.98536  0.42983  1.0000
  N   N94       1.0  0.20242  0.91337  0.38684  1.0000
  C   C355      1.0  0.19828  0.89318  0.39031  1.0000
  H   H154      1.0  0.18830  0.88818  0.43778  1.0000
  C   C356      1.0  0.77183  0.01840  0.32134  1.0000
  C   C357      1.0  0.78631  0.02628  0.38209  1.0000
  N   N95       1.0  0.79099  0.04640  0.38234  1.0000
  C   C358      1.0  0.78260  0.06000  0.32475  1.0000
  C   C359      1.0  0.78697  0.08099  0.32725  1.0000
  H   H155      1.0  0.79270  0.01723  0.42986  1.0000
  N   N96       1.0  0.80018  0.08922  0.38680  1.0000
  C   C360      1.0  0.80433  0.10941  0.39022  1.0000
  H   H156      1.0  0.81430  0.11441  0.43771  1.0000
  C   C361      1.0  0.01841  0.23076  0.32132  1.0000
  C   C362      1.0  0.02628  0.21627  0.38203  1.0000
  N   N97       1.0  0.04641  0.21160  0.38233  1.0000
  C   C363      1.0  0.06001  0.21999  0.32474  1.0000
  C   C364      1.0  0.08100  0.21563  0.32726  1.0000
  H   H157      1.0  0.01724  0.20989  0.42990  1.0000
  N   N98       1.0  0.08923  0.20242  0.38681  1.0000
  C   C365      1.0  0.10942  0.19828  0.39025  1.0000
  H   H158      1.0  0.11442  0.18830  0.43772  1.0000
  C   C366      1.0  0.98420  0.77185  0.32122  1.0000
  C   C367      1.0  0.97631  0.78631  0.38207  1.0000
  N   N99       1.0  0.95619  0.79099  0.38233  1.0000
  C   C368      1.0  0.94259  0.78262  0.32470  1.0000
  C   C369      1.0  0.92161  0.78698  0.32722  1.0000
  H   H159      1.0  0.98537  0.79270  0.42984  1.0000
  N   N100      1.0  0.91337  0.80019  0.38679  1.0000
  C   C370      1.0  0.89318  0.80434  0.39023  1.0000
  H   H160      1.0  0.88818  0.81430  0.43771  1.0000
  C   C371      1.0  0.26873  0.44998  0.41049  1.0000
  C   C372      1.0  0.26367  0.47071  0.41217  1.0000
  H   H161      1.0  0.25336  0.47565  0.45854  1.0000
  C   C373      1.0  0.29449  0.37950  0.33965  1.0000
  C   C374      1.0  0.28087  0.38783  0.40302  1.0000
  C   C375      1.0  0.27708  0.40885  0.40538  1.0000
  N   N101      1.0  0.26405  0.41711  0.46558  1.0000
  N   N102      1.0  0.26010  0.43656  0.46795  1.0000
  H   H162      1.0  0.27387  0.37865  0.44882  1.0000
  C   C376      1.0  0.73387  0.55261  0.41039  1.0000
  C   C377      1.0  0.73892  0.53188  0.41206  1.0000
  H   H163      1.0  0.74922  0.52693  0.45842  1.0000
  C   C378      1.0  0.70813  0.62309  0.33964  1.0000
  C   C379      1.0  0.72175  0.61477  0.40298  1.0000
  C   C380      1.0  0.72553  0.59374  0.40533  1.0000
  N   N103      1.0  0.73856  0.58548  0.46550  1.0000
  N   N104      1.0  0.74251  0.56603  0.46785  1.0000
  H   H164      1.0  0.72876  0.62394  0.44877  1.0000
  C   C381      1.0  0.44997  0.73385  0.41039  1.0000
  C   C382      1.0  0.47070  0.73891  0.41206  1.0000
  H   H165      1.0  0.47565  0.74921  0.45844  1.0000
  C   C383      1.0  0.37949  0.70811  0.33960  1.0000
  C   C384      1.0  0.38782  0.72173  0.40293  1.0000
  C   C385      1.0  0.40884  0.72551  0.40530  1.0000
  N   N105      1.0  0.41710  0.73854  0.46548  1.0000
  N   N106      1.0  0.43656  0.74250  0.46784  1.0000
  H   H166      1.0  0.37864  0.72873  0.44874  1.0000
  C   C386      1.0  0.55261  0.26870  0.41045  1.0000
  C   C387      1.0  0.53188  0.26364  0.41212  1.0000
  H   H167      1.0  0.52694  0.25333  0.45845  1.0000
  C   C388      1.0  0.62308  0.29446  0.33967  1.0000
  C   C389      1.0  0.61476  0.28084  0.40299  1.0000
  C   C390      1.0  0.59374  0.27706  0.40536  1.0000
  N   N107      1.0  0.58548  0.26402  0.46553  1.0000
  N   N108      1.0  0.56603  0.26006  0.46789  1.0000
  H   H168      1.0  0.62394  0.27384  0.44879  1.0000
  C   C391      1.0  0.25650  0.27597  0.39839  1.0000
  C   C392      1.0  0.27199  0.29069  0.39789  1.0000
  H   H169      1.0  0.28411  0.28888  0.44000  1.0000
  C   C393      1.0  0.19491  0.23162  0.34238  1.0000
  C   C394      1.0  0.21202  0.23078  0.39976  1.0000
  C   C395      1.0  0.22677  0.24625  0.39930  1.0000
  N   N109      1.0  0.24340  0.24537  0.45278  1.0000
  N   N110      1.0  0.25746  0.25941  0.45231  1.0000
  H   H170      1.0  0.21385  0.21885  0.44284  1.0000
  C   C396      1.0  0.74611  0.72663  0.39839  1.0000
  C   C397      1.0  0.73062  0.71191  0.39789  1.0000
  H   H171      1.0  0.71850  0.71372  0.44000  1.0000
  C   C398      1.0  0.80770  0.77099  0.34236  1.0000
  C   C399      1.0  0.79058  0.77182  0.39976  1.0000
  C   C400      1.0  0.77585  0.75635  0.39931  1.0000
  N   N111      1.0  0.75921  0.75722  0.45280  1.0000
  N   N112      1.0  0.74515  0.74319  0.45231  1.0000
  H   H172      1.0  0.78875  0.78375  0.44283  1.0000
  C   C401      1.0  0.72663  0.25649  0.39842  1.0000
  C   C402      1.0  0.71190  0.27198  0.39791  1.0000
  H   H173      1.0  0.71371  0.28409  0.44002  1.0000
  C   C403      1.0  0.77098  0.19490  0.34240  1.0000
  C   C404      1.0  0.77182  0.21201  0.39979  1.0000
  C   C405      1.0  0.75634  0.22675  0.39934  1.0000
  N   N113      1.0  0.75722  0.24339  0.45282  1.0000
  N   N114      1.0  0.74318  0.25745  0.45233  1.0000
  H   H174      1.0  0.78374  0.21385  0.44287  1.0000
  C   C406      1.0  0.27596  0.74609  0.39840  1.0000
  C   C407      1.0  0.29068  0.73060  0.39787  1.0000
  H   H175      1.0  0.28888  0.71849  0.44000  1.0000
  C   C408      1.0  0.23161  0.80769  0.34241  1.0000
  C   C409      1.0  0.23078  0.79058  0.39981  1.0000
  C   C410      1.0  0.24625  0.77584  0.39934  1.0000
  N   N115      1.0  0.24537  0.75920  0.45282  1.0000
  N   N116      1.0  0.25940  0.74514  0.45233  1.0000
  H   H176      1.0  0.21885  0.78875  0.44290  1.0000
  C   C411      1.0  0.51707  0.98742  0.41666  1.0000
  C   C412      1.0  0.53219  0.97239  0.41753  1.0000
  H   H177      1.0  0.53835  0.96783  0.47710  1.0000
  C   C413      1.0  0.46375  0.03882  0.33618  1.0000
  C   C414      1.0  0.47248  0.03230  0.41738  1.0000
  C   C415      1.0  0.48747  0.01713  0.41658  1.0000
  N   N117      1.0  0.49625  0.01032  0.49303  1.0000
  N   N118      1.0  0.51027  0.99624  0.49307  1.0000
  H   H178      1.0  0.46793  0.03847  0.47694  1.0000
  C   C416      1.0  0.01665  0.51558  0.41681  1.0000
  C   C417      1.0  0.03179  0.53060  0.41767  1.0000
  H   H179      1.0  0.03757  0.53554  0.47739  1.0000
  C   C418      1.0  0.96369  0.46382  0.33625  1.0000
  C   C419      1.0  0.97187  0.47089  0.41767  1.0000
  C   C420      1.0  0.98694  0.48598  0.41681  1.0000
  N   N119      1.0  0.99527  0.49326  0.49343  1.0000
  N   N120      1.0  0.00934  0.50728  0.49343  1.0000
  H   H180      1.0  0.96692  0.46513  0.47739  1.0000
