data_image0
_chemical_formula_structural       NC3H3NC3H3NC3H3NC3H3NC3H3NC3H3CNCHCNCHCNCHCNCHCNCHCNCHCNCHCNCHCNCHCNCHCNCHCNCHNC3H3NC3H3NC3H3NC3H3NC3H3NC3H3CNCHCNCHCNCHCNCHCNCHCNCHCNCHCNCHCNCHCNCHCNCHCNCHCNCNCNCNCNCNCNCNCNCNCNCNCNCNCNCNCNCNCNCNCNCNCNCNCNCNCNCNCNCNCNCNCNCNCNCNCNCNCNCNCNCNCNCNCNCNCNCNCNCNCNCNCNCNCNCNCNCNCNCNCNCNCNCNCNCNCNCNCNCNCNCNCNCHCNCHCNCHCNCHCNCHCNCHNC3H3NC3H3NC3H3NC3H3NC3H3NC3H3NC3H3NC3H3NC3H3NC3H3NC3H3NC3H3CNCHCNCHCNCHCNCHCNCHCNCHNC3H3NC3H3NC3H3NC3H3NC3H3NC3H3NC3H3NC3H3NC3H3NC3H3NC3H3NC3H3
_chemical_formula_sum              "N144 C252 H144"
_cell_length_a       53.3504
_cell_length_b       53.3504
_cell_length_c       14.848
_cell_angle_alpha    90
_cell_angle_beta     90
_cell_angle_gamma    120

_space_group_name_H-M_alt    "P 1"
_space_group_IT_number       1

loop_
  _space_group_symop_operation_xyz
  'x, y, z'

loop_
  _atom_site_type_symbol
  _atom_site_label
  _atom_site_symmetry_multiplicity
  _atom_site_fract_x
  _atom_site_fract_y
  _atom_site_fract_z
  _atom_site_occupancy
  N   N1        1.0  0.15576  0.44606  0.24244  1.0000
  C   C1        1.0  0.14448  0.41698  0.23712  1.0000
  C   C2        1.0  0.11972  0.39930  0.29040  1.0000
  C   C3        1.0  0.15971  0.40627  0.17926  1.0000
  H   H1        1.0  0.17638  0.42370  0.13856  1.0000
  H   H2        1.0  0.14435  0.38962  0.13371  1.0000
  H   H3        1.0  0.17022  0.39728  0.22053  1.0000
  N   N2        1.0  0.56665  0.71242  0.24291  1.0000
  C   C4        1.0  0.59573  0.73020  0.23761  1.0000
  C   C5        1.0  0.61341  0.72301  0.29050  1.0000
  C   C6        1.0  0.60643  0.75626  0.18026  1.0000
  H   H4        1.0  0.58900  0.75556  0.13971  1.0000
  H   H5        1.0  0.62310  0.75765  0.13456  1.0000
  H   H6        1.0  0.61540  0.77568  0.22189  1.0000
  N   N3        1.0  0.30024  0.85672  0.24280  1.0000
  C   C7        1.0  0.28249  0.86806  0.23759  1.0000
  C   C8        1.0  0.28974  0.89296  0.29041  1.0000
  C   C9        1.0  0.25641  0.85273  0.18029  1.0000
  H   H7        1.0  0.25708  0.83599  0.13972  1.0000
  H   H8        1.0  0.25503  0.86802  0.13462  1.0000
  H   H9        1.0  0.23700  0.84230  0.22197  1.0000
  N   N4        1.0  0.85975  0.56421  0.24177  1.0000
  C   C10       1.0  0.87105  0.59330  0.23668  1.0000
  C   C11       1.0  0.89571  0.61090  0.29043  1.0000
  C   C12       1.0  0.85591  0.60408  0.17870  1.0000
  H   H10       1.0  0.83930  0.58670  0.13769  1.0000
  H   H11       1.0  0.87134  0.62079  0.13344  1.0000
  H   H12       1.0  0.84533  0.61302  0.21989  1.0000
  N   N5        1.0  0.44867  0.29790  0.24266  1.0000
  C   C13       1.0  0.41959  0.28009  0.23736  1.0000
  C   C14       1.0  0.40190  0.28723  0.29038  1.0000
  C   C15       1.0  0.40891  0.25403  0.18000  1.0000
  H   H13       1.0  0.42636  0.25476  0.13944  1.0000
  H   H14       1.0  0.39224  0.25262  0.13433  1.0000
  H   H15       1.0  0.39997  0.23461  0.22164  1.0000
  N   N6        1.0  0.71486  0.15325  0.24251  1.0000
  C   C16       1.0  0.73262  0.14192  0.23719  1.0000
  C   C17       1.0  0.72551  0.11715  0.29045  1.0000
  C   C18       1.0  0.75857  0.15713  0.17930  1.0000
  H   H16       1.0  0.75782  0.17380  0.13857  1.0000
  H   H17       1.0  0.75983  0.14175  0.13376  1.0000
  H   H18       1.0  0.77807  0.16763  0.22053  1.0000
  C   C19       1.0  0.46209  0.14266  0.39708  1.0000
  N   N7        1.0  0.41552  0.10718  0.34289  1.0000
  C   C20       1.0  0.44476  0.11804  0.34396  1.0000
  H   H19       1.0  0.45383  0.11035  0.29914  1.0000
  C   C21       1.0  0.69073  0.55071  0.39681  1.0000
  N   N8        1.0  0.70195  0.59733  0.34235  1.0000
  C   C22       1.0  0.68359  0.56809  0.34334  1.0000
  H   H20       1.0  0.66679  0.55901  0.29866  1.0000
  C   C23       1.0  0.87008  0.32190  0.39710  1.0000
  N   N9        1.0  0.90557  0.31082  0.34268  1.0000
  C   C24       1.0  0.89463  0.32913  0.34373  1.0000
  H   H21       1.0  0.90245  0.34603  0.29943  1.0000
  C   C25       1.0  0.55330  0.86757  0.39715  1.0000
  N   N10       1.0  0.59987  0.90308  0.34289  1.0000
  C   C26       1.0  0.57063  0.89218  0.34398  1.0000
  H   H22       1.0  0.56153  0.89996  0.29961  1.0000
  C   C27       1.0  0.32440  0.45954  0.39672  1.0000
  N   N11       1.0  0.31343  0.41296  0.34281  1.0000
  C   C28       1.0  0.33174  0.44221  0.34374  1.0000
  H   H23       1.0  0.34860  0.45132  0.29931  1.0000
  C   C29       1.0  0.14536  0.68844  0.39645  1.0000
  N   N12       1.0  0.10975  0.69941  0.34266  1.0000
  C   C30       1.0  0.12064  0.68106  0.34371  1.0000
  H   H24       1.0  0.11290  0.66425  0.29906  1.0000
  C   C31       1.0  0.29406  0.52714  0.37955  1.0000
  N   N13       1.0  0.26424  0.54638  0.33383  1.0000
  C   C32       1.0  0.29098  0.54907  0.33703  1.0000
  H   H25       1.0  0.30773  0.56547  0.30258  1.0000
  C   C33       1.0  0.48572  0.76963  0.37944  1.0000
  N   N14       1.0  0.46641  0.72055  0.33382  1.0000
  C   C34       1.0  0.46378  0.74464  0.33686  1.0000
  H   H26       1.0  0.44737  0.74498  0.30245  1.0000
  C   C35       1.0  0.24329  0.71866  0.37923  1.0000
  N   N15       1.0  0.29233  0.74844  0.33342  1.0000
  C   C36       1.0  0.26827  0.72170  0.33660  1.0000
  H   H27       1.0  0.26785  0.70502  0.30154  1.0000
  C   C37       1.0  0.72133  0.48329  0.37846  1.0000
  N   N16       1.0  0.75109  0.46395  0.33306  1.0000
  C   C38       1.0  0.72436  0.46128  0.33624  1.0000
  H   H28       1.0  0.70759  0.44485  0.30196  1.0000
  C   C39       1.0  0.52960  0.24065  0.37940  1.0000
  N   N17       1.0  0.54891  0.28974  0.33387  1.0000
  C   C40       1.0  0.55156  0.26566  0.33693  1.0000
  H   H29       1.0  0.56800  0.26535  0.30263  1.0000
  C   C41       1.0  0.77212  0.29152  0.37972  1.0000
  N   N18       1.0  0.72307  0.26173  0.33388  1.0000
  C   C42       1.0  0.74713  0.28847  0.33713  1.0000
  H   H30       1.0  0.74749  0.30522  0.30268  1.0000
  N   N19       1.0  0.19988  0.61600  0.28730  1.0000
  C   C43       1.0  0.20220  0.59200  0.27678  1.0000
  C   C44       1.0  0.17963  0.56547  0.31227  1.0000
  C   C45       1.0  0.22852  0.59597  0.23024  1.0000
  H   H31       1.0  0.24024  0.61718  0.19792  1.0000
  H   H32       1.0  0.22257  0.57951  0.17819  1.0000
  H   H33       1.0  0.24316  0.59444  0.27821  1.0000
  N   N20       1.0  0.39673  0.58647  0.28740  1.0000
  C   C46       1.0  0.42073  0.61280  0.27678  1.0000
  C   C47       1.0  0.44728  0.61678  0.31221  1.0000
  C   C48       1.0  0.41674  0.63513  0.23022  1.0000
  H   H34       1.0  0.39553  0.62563  0.19794  1.0000
  H   H35       1.0  0.43319  0.64564  0.17814  1.0000
  H   H36       1.0  0.41827  0.65131  0.27817  1.0000
  N   N21       1.0  0.42645  0.81303  0.28701  1.0000
  C   C49       1.0  0.40012  0.81068  0.27642  1.0000
  C   C50       1.0  0.39610  0.83319  0.31219  1.0000
  C   C51       1.0  0.37782  0.78440  0.22963  1.0000
  H   H37       1.0  0.38735  0.77273  0.19720  1.0000
  H   H38       1.0  0.36731  0.79038  0.17765  1.0000
  H   H39       1.0  0.36163  0.76969  0.27746  1.0000
  N   N22       1.0  0.81538  0.39416  0.28775  1.0000
  C   C52       1.0  0.81304  0.41814  0.27711  1.0000
  C   C53       1.0  0.83564  0.44471  0.31229  1.0000
  C   C54       1.0  0.78668  0.41412  0.23069  1.0000
  H   H40       1.0  0.77494  0.39287  0.19860  1.0000
  H   H41       1.0  0.79258  0.43052  0.17847  1.0000
  H   H42       1.0  0.77207  0.41569  0.27870  1.0000
  N   N23       1.0  0.61860  0.42377  0.28732  1.0000
  C   C55       1.0  0.59462  0.39744  0.27680  1.0000
  C   C56       1.0  0.56806  0.39347  0.31211  1.0000
  C   C57       1.0  0.59861  0.37509  0.23039  1.0000
  H   H43       1.0  0.61984  0.38457  0.19818  1.0000
  H   H44       1.0  0.58218  0.36457  0.17828  1.0000
  H   H45       1.0  0.59707  0.35893  0.27844  1.0000
  N   N24       1.0  0.58904  0.19737  0.28773  1.0000
  C   C58       1.0  0.61535  0.19969  0.27707  1.0000
  C   C59       1.0  0.61933  0.17711  0.31244  1.0000
  C   C60       1.0  0.63768  0.22601  0.23053  1.0000
  H   H46       1.0  0.62819  0.23774  0.19829  1.0000
  H   H47       1.0  0.64819  0.22007  0.17842  1.0000
  H   H48       1.0  0.65387  0.24065  0.27849  1.0000
  C   C61       1.0  0.97623  0.27201  0.35301  1.0000
  N   N25       1.0  0.02276  0.27705  0.32219  1.0000
  C   C62       1.0  0.99323  0.26003  0.32399  1.0000
  H   H49       1.0  0.98375  0.23924  0.30089  1.0000
  C   C63       1.0  0.74073  0.70674  0.35285  1.0000
  N   N26       1.0  0.73570  0.74825  0.32228  1.0000
  C   C64       1.0  0.75274  0.73575  0.32419  1.0000
  H   H50       1.0  0.77355  0.74710  0.30132  1.0000
  C   C65       1.0  0.30609  0.03658  0.35287  1.0000
  N   N27       1.0  0.26458  0.99005  0.32219  1.0000
  C   C66       1.0  0.27708  0.01958  0.32412  1.0000
  H   H51       1.0  0.26575  0.02906  0.30123  1.0000
  C   C67       1.0  0.03912  0.73823  0.35306  1.0000
  N   N28       1.0  0.99258  0.73316  0.32229  1.0000
  C   C68       1.0  0.02211  0.75020  0.32414  1.0000
  H   H52       1.0  0.03158  0.77097  0.30081  1.0000
  C   C69       1.0  0.27463  0.30352  0.35297  1.0000
  N   N29       1.0  0.27964  0.26200  0.32233  1.0000
  C   C70       1.0  0.26261  0.27451  0.32426  1.0000
  H   H53       1.0  0.24180  0.26317  0.30141  1.0000
  C   C71       1.0  0.70932  0.97366  0.35301  1.0000
  N   N30       1.0  0.75080  0.02019  0.32209  1.0000
  C   C72       1.0  0.73829  0.99065  0.32389  1.0000
  H   H54       1.0  0.74959  0.98118  0.30071  1.0000
  C   C73       1.0  0.19153  0.32240  0.36308  1.0000
  N   N31       1.0  0.14639  0.30946  0.29120  1.0000
  C   C74       1.0  0.17103  0.30756  0.29444  1.0000
  H   H55       1.0  0.17590  0.29850  0.24158  1.0000
  C   C75       1.0  0.69035  0.87164  0.36294  1.0000
  N   N32       1.0  0.70336  0.83947  0.29112  1.0000
  C   C76       1.0  0.70521  0.86599  0.29433  1.0000
  H   H56       1.0  0.71439  0.88000  0.24171  1.0000
  C   C77       1.0  0.14111  0.82131  0.36304  1.0000
  N   N33       1.0  0.17341  0.86645  0.29109  1.0000
  C   C78       1.0  0.14690  0.84175  0.29408  1.0000
  H   H57       1.0  0.13295  0.83692  0.24127  1.0000
  C   C79       1.0  0.82384  0.68786  0.36330  1.0000
  N   N34       1.0  0.86903  0.70079  0.29157  1.0000
  C   C80       1.0  0.84437  0.70267  0.29472  1.0000
  H   H58       1.0  0.83958  0.71190  0.24212  1.0000
  C   C81       1.0  0.32505  0.13860  0.36296  1.0000
  N   N35       1.0  0.31199  0.17072  0.29113  1.0000
  C   C82       1.0  0.31017  0.14422  0.29435  1.0000
  H   H59       1.0  0.30101  0.13019  0.24174  1.0000
  C   C83       1.0  0.87425  0.18893  0.36303  1.0000
  N   N36       1.0  0.84199  0.14378  0.29109  1.0000
  C   C84       1.0  0.86854  0.16843  0.29434  1.0000
  H   H60       1.0  0.88245  0.17328  0.24144  1.0000
  C   C85       1.0  0.16408  0.48945  0.31093  1.0000
  N   N37       1.0  0.15960  0.51253  0.30516  1.0000
  C   C86       1.0  0.18194  0.54013  0.32046  1.0000
  N   N38       1.0  0.20824  0.54379  0.34448  1.0000
  C   C87       1.0  0.21299  0.52130  0.35413  1.0000
  N   N39       1.0  0.19077  0.49479  0.33462  1.0000
  C   C88       1.0  0.52328  0.67728  0.31099  1.0000
  N   N40       1.0  0.50021  0.64972  0.30518  1.0000
  C   C89       1.0  0.47260  0.64444  0.32047  1.0000
  N   N41       1.0  0.46892  0.66708  0.34454  1.0000
  C   C90       1.0  0.49141  0.69432  0.35425  1.0000
  N   N42       1.0  0.51793  0.69862  0.33476  1.0000
  C   C91       1.0  0.33549  0.84854  0.31057  1.0000
  N   N43       1.0  0.36307  0.85309  0.30498  1.0000
  C   C92       1.0  0.36841  0.83080  0.32031  1.0000
  N   N44       1.0  0.34581  0.80447  0.34436  1.0000
  C   C93       1.0  0.31855  0.79966  0.35390  1.0000
  N   N45       1.0  0.31418  0.82182  0.33436  1.0000
  C   C94       1.0  0.85128  0.52077  0.31013  1.0000
  N   N46       1.0  0.85573  0.49766  0.30481  1.0000
  C   C95       1.0  0.83336  0.47008  0.32014  1.0000
  N   N47       1.0  0.80705  0.46647  0.34390  1.0000
  C   C96       1.0  0.80234  0.48900  0.35311  1.0000
  N   N48       1.0  0.82459  0.51549  0.33363  1.0000
  C   C97       1.0  0.49205  0.33302  0.31081  1.0000
  N   N49       1.0  0.51514  0.36056  0.30500  1.0000
  C   C98       1.0  0.54273  0.36582  0.32036  1.0000
  N   N50       1.0  0.54638  0.34317  0.34446  1.0000
  C   C99       1.0  0.52387  0.31594  0.35414  1.0000
  N   N51       1.0  0.49737  0.31166  0.33461  1.0000
  C   C100      1.0  0.67980  0.16156  0.31106  1.0000
  N   N52       1.0  0.65224  0.15708  0.30532  1.0000
  C   C101      1.0  0.64698  0.17943  0.32059  1.0000
  N   N53       1.0  0.66963  0.20574  0.34456  1.0000
  C   C102      1.0  0.69688  0.21048  0.35411  1.0000
  N   N54       1.0  0.70116  0.18826  0.33468  1.0000
  C   C103      1.0  0.49220  0.16201  0.38457  1.0000
  N   N55       1.0  0.51364  0.15625  0.36108  1.0000
  C   C104      1.0  0.54132  0.17838  0.34480  1.0000
  N   N56       1.0  0.54685  0.20627  0.35092  1.0000
  C   C105      1.0  0.52623  0.21270  0.37474  1.0000
  N   N57       1.0  0.49956  0.19016  0.39031  1.0000
  C   C106      1.0  0.68003  0.52063  0.38411  1.0000
  N   N58       1.0  0.65284  0.49918  0.36061  1.0000
  C   C107      1.0  0.64732  0.47152  0.34412  1.0000
  N   N59       1.0  0.66970  0.46602  0.35010  1.0000
  C   C108      1.0  0.69676  0.48666  0.37381  1.0000
  N   N60       1.0  0.70086  0.51331  0.38963  1.0000
  C   C109      1.0  0.85078  0.33273  0.38494  1.0000
  N   N61       1.0  0.85654  0.35990  0.36106  1.0000
  C   C110      1.0  0.83442  0.36545  0.34471  1.0000
  N   N62       1.0  0.80653  0.34311  0.35103  1.0000
  C   C111      1.0  0.80008  0.31608  0.37503  1.0000
  N   N63       1.0  0.82262  0.31194  0.39069  1.0000
  C   C112      1.0  0.52316  0.84827  0.38502  1.0000
  N   N64       1.0  0.50178  0.85405  0.36100  1.0000
  C   C113      1.0  0.47411  0.83195  0.34452  1.0000
  N   N65       1.0  0.46853  0.80405  0.35075  1.0000
  C   C114      1.0  0.48911  0.79758  0.37488  1.0000
  N   N66       1.0  0.51577  0.82011  0.39068  1.0000
  C   C115      1.0  0.33524  0.48966  0.38438  1.0000
  N   N67       1.0  0.36243  0.51108  0.36075  1.0000
  C   C116      1.0  0.36800  0.53878  0.34458  1.0000
  N   N68       1.0  0.34567  0.54434  0.35084  1.0000
  C   C117      1.0  0.31862  0.52373  0.37473  1.0000
  N   N69       1.0  0.31447  0.49705  0.39026  1.0000
  C   C118      1.0  0.16463  0.67759  0.38398  1.0000
  N   N70       1.0  0.15883  0.65037  0.36046  1.0000
  C   C119      1.0  0.18093  0.64477  0.34423  1.0000
  N   N71       1.0  0.20883  0.66709  0.35048  1.0000
  C   C120      1.0  0.21531  0.69415  0.37428  1.0000
  N   N72       1.0  0.19280  0.69834  0.38984  1.0000
  C   C121      1.0  0.11669  0.32993  0.33474  1.0000
  N   N73       1.0  0.08746  0.31206  0.34612  1.0000
  C   C122      1.0  0.06847  0.32225  0.33719  1.0000
  N   N74       1.0  0.07988  0.35081  0.31681  1.0000
  C   C123      1.0  0.10847  0.36919  0.30376  1.0000
  N   N75       1.0  0.12631  0.35817  0.31487  1.0000
  C   C124      1.0  0.68284  0.78931  0.33471  1.0000
  N   N76       1.0  0.70069  0.77791  0.34596  1.0000
  C   C125      1.0  0.69048  0.74874  0.33701  1.0000
  N   N77       1.0  0.66190  0.73160  0.31671  1.0000
  C   C126      1.0  0.64354  0.74185  0.30382  1.0000
  N   N78       1.0  0.65459  0.77070  0.31493  1.0000
  C   C127      1.0  0.22350  0.89612  0.33524  1.0000
  N   N79       1.0  0.23489  0.92538  0.34618  1.0000
  C   C128      1.0  0.26406  0.94432  0.33706  1.0000
  N   N80       1.0  0.28118  0.93287  0.31670  1.0000
  C   C129      1.0  0.27091  0.90425  0.30394  1.0000
  N   N81       1.0  0.24207  0.88645  0.31527  1.0000
  C   C130      1.0  0.89863  0.68018  0.33544  1.0000
  N   N82       1.0  0.92787  0.69811  0.34649  1.0000
  C   C131      1.0  0.94688  0.68795  0.33744  1.0000
  N   N83       1.0  0.93550  0.65939  0.31703  1.0000
  C   C132      1.0  0.90690  0.64100  0.30410  1.0000
  N   N84       1.0  0.88903  0.65197  0.31534  1.0000
  C   C133      1.0  0.33249  0.22092  0.33468  1.0000
  N   N85       1.0  0.31464  0.23231  0.34598  1.0000
  C   C134      1.0  0.32485  0.26149  0.33702  1.0000
  N   N86       1.0  0.35342  0.27862  0.31665  1.0000
  C   C135      1.0  0.37178  0.26837  0.30366  1.0000
  N   N87       1.0  0.36073  0.23952  0.31481  1.0000
  C   C136      1.0  0.79185  0.11413  0.33489  1.0000
  N   N88       1.0  0.78050  0.08489  0.34615  1.0000
  C   C137      1.0  0.75133  0.06590  0.33722  1.0000
  N   N89       1.0  0.73417  0.07730  0.31685  1.0000
  C   C138      1.0  0.74438  0.10590  0.30386  1.0000
  N   N90       1.0  0.77323  0.12375  0.31499  1.0000
  C   C139      1.0  0.33209  0.11605  0.36171  1.0000
  N   N91       1.0  0.31358  0.08685  0.35121  1.0000
  C   C140      1.0  0.32346  0.06749  0.35545  1.0000
  N   N92       1.0  0.35243  0.07840  0.36853  1.0000
  C   C141      1.0  0.37143  0.10695  0.37914  1.0000
  N   N93       1.0  0.36051  0.12501  0.37581  1.0000
  C   C142      1.0  0.79423  0.68077  0.36181  1.0000
  N   N94       1.0  0.78353  0.69927  0.35133  1.0000
  C   C143      1.0  0.75429  0.68938  0.35531  1.0000
  N   N95       1.0  0.73623  0.66039  0.36826  1.0000
  C   C144      1.0  0.74578  0.64140  0.37886  1.0000
  N   N96       1.0  0.77477  0.65234  0.37570  1.0000
  C   C145      1.0  0.89676  0.21853  0.36145  1.0000
  N   N97       1.0  0.92596  0.22923  0.35118  1.0000
  C   C146      1.0  0.94532  0.25848  0.35534  1.0000
  N   N98       1.0  0.93439  0.27653  0.36835  1.0000
  C   C147      1.0  0.90583  0.26696  0.37884  1.0000
  N   N99       1.0  0.88778  0.23798  0.37549  1.0000
  C   C148      1.0  0.68332  0.89419  0.36157  1.0000
  N   N100      1.0  0.70183  0.92339  0.35118  1.0000
  C   C149      1.0  0.69194  0.94275  0.35537  1.0000
  N   N101      1.0  0.66297  0.93184  0.36845  1.0000
  C   C150      1.0  0.64397  0.90329  0.37900  1.0000
  N   N102      1.0  0.65490  0.88523  0.37562  1.0000
  C   C151      1.0  0.22113  0.32949  0.36176  1.0000
  N   N103      1.0  0.23184  0.31099  0.35132  1.0000
  C   C152      1.0  0.26108  0.32088  0.35554  1.0000
  N   N104      1.0  0.27914  0.34987  0.36852  1.0000
  C   C153      1.0  0.26957  0.36885  0.37907  1.0000
  N   N105      1.0  0.24058  0.35791  0.37574  1.0000
  C   C154      1.0  0.11858  0.79173  0.36158  1.0000
  N   N106      1.0  0.08938  0.78102  0.35122  1.0000
  C   C155      1.0  0.07004  0.75177  0.35535  1.0000
  N   N107      1.0  0.08097  0.73372  0.36832  1.0000
  C   C156      1.0  0.10952  0.74329  0.37882  1.0000
  N   N108      1.0  0.12757  0.77228  0.37551  1.0000
  C   C157      1.0  0.14473  0.45999  0.29085  1.0000
  N   N109      1.0  0.10830  0.41301  0.33882  1.0000
  C   C158      1.0  0.11929  0.44223  0.33998  1.0000
  H   H61       1.0  0.11082  0.45092  0.38338  1.0000
  C   C159      1.0  0.55276  0.68739  0.29095  1.0000
  N   N110      1.0  0.59971  0.69778  0.33840  1.0000
  C   C160      1.0  0.57048  0.67953  0.33946  1.0000
  H   H62       1.0  0.56176  0.66232  0.38268  1.0000
  C   C161      1.0  0.32527  0.86784  0.29076  1.0000
  N   N111      1.0  0.31500  0.90447  0.33816  1.0000
  C   C162      1.0  0.33323  0.89347  0.33912  1.0000
  H   H63       1.0  0.35048  0.90197  0.38218  1.0000
  C   C163      1.0  0.87070  0.55023  0.29029  1.0000
  N   N112      1.0  0.90706  0.59715  0.33891  1.0000
  C   C164      1.0  0.89612  0.56793  0.33959  1.0000
  H   H64       1.0  0.90440  0.55919  0.38352  1.0000
  C   C165      1.0  0.46259  0.32295  0.29066  1.0000
  N   N113      1.0  0.41560  0.31243  0.33840  1.0000
  C   C166      1.0  0.44482  0.33069  0.33942  1.0000
  H   H65       1.0  0.45352  0.34787  0.38274  1.0000
  C   C167      1.0  0.68993  0.14221  0.29103  1.0000
  N   N114      1.0  0.70038  0.10573  0.33884  1.0000
  C   C168      1.0  0.68216  0.11674  0.34003  1.0000
  H   H66       1.0  0.66499  0.10827  0.38339  1.0000
  N   N115      1.0  0.44762  0.15244  0.44844  1.0000
  C   C169      1.0  0.41858  0.14127  0.45168  1.0000
  C   C170      1.0  0.40143  0.11779  0.39318  1.0000
  C   C171      1.0  0.40762  0.15553  0.51292  1.0000
  H   H67       1.0  0.42469  0.17095  0.55743  1.0000
  H   H68       1.0  0.39023  0.13937  0.55477  1.0000
  H   H69       1.0  0.39956  0.16739  0.47414  1.0000
  N   N116      1.0  0.71499  0.56520  0.44816  1.0000
  C   C172      1.0  0.73290  0.59424  0.45140  1.0000
  C   C173      1.0  0.72662  0.61139  0.39275  1.0000
  C   C174      1.0  0.75811  0.60517  0.51267  1.0000
  H   H70       1.0  0.75642  0.58809  0.55720  1.0000
  H   H71       1.0  0.75935  0.62257  0.55449  1.0000
  H   H72       1.0  0.77803  0.61321  0.47391  1.0000
  N   N117      1.0  0.86033  0.29762  0.44834  1.0000
  C   C175      1.0  0.87148  0.27974  0.45141  1.0000
  C   C176      1.0  0.89496  0.28610  0.39288  1.0000
  C   C177      1.0  0.85723  0.25450  0.51261  1.0000
  H   H73       1.0  0.84181  0.25614  0.55716  1.0000
  H   H74       1.0  0.87341  0.25328  0.55442  1.0000
  H   H75       1.0  0.84538  0.23459  0.47380  1.0000
  N   N118      1.0  0.56779  0.85777  0.44836  1.0000
  C   C178      1.0  0.59683  0.86892  0.45145  1.0000
  C   C179      1.0  0.61396  0.89242  0.39299  1.0000
  C   C180      1.0  0.60779  0.85464  0.51258  1.0000
  H   H76       1.0  0.59073  0.83921  0.55710  1.0000
  H   H77       1.0  0.62519  0.87079  0.55442  1.0000
  H   H78       1.0  0.61584  0.84279  0.47371  1.0000
  N   N119      1.0  0.30016  0.44505  0.44809  1.0000
  C   C181      1.0  0.28232  0.41601  0.45137  1.0000
  C   C182      1.0  0.28870  0.39887  0.39299  1.0000
  C   C183      1.0  0.25710  0.40504  0.51263  1.0000
  H   H79       1.0  0.25873  0.42211  0.55710  1.0000
  H   H80       1.0  0.25591  0.38767  0.55453  1.0000
  H   H81       1.0  0.23718  0.39694  0.47387  1.0000
  N   N120      1.0  0.15514  0.71270  0.44773  1.0000
  C   C184      1.0  0.14394  0.73055  0.45108  1.0000
  C   C185      1.0  0.12042  0.72416  0.39274  1.0000
  C   C186      1.0  0.15824  0.75579  0.51221  1.0000
  H   H82       1.0  0.17369  0.75416  0.55664  1.0000
  H   H83       1.0  0.14209  0.75702  0.55417  1.0000
  H   H84       1.0  0.17006  0.77570  0.47336  1.0000
  N   N121      1.0  0.27016  0.50569  0.42034  1.0000
  C   C187      1.0  0.24364  0.50315  0.42139  1.0000
  C   C188      1.0  0.24026  0.52428  0.37317  1.0000
  C   C189      1.0  0.22061  0.47811  0.47100  1.0000
  H   H85       1.0  0.22960  0.46745  0.51189  1.0000
  H   H86       1.0  0.20521  0.46212  0.42401  1.0000
  H   H87       1.0  0.20929  0.48533  0.51588  1.0000
  N   N122      1.0  0.50710  0.76712  0.42052  1.0000
  C   C190      1.0  0.50958  0.74311  0.42164  1.0000
  C   C191      1.0  0.48845  0.71861  0.37340  1.0000
  C   C192      1.0  0.53455  0.74505  0.47156  1.0000
  H   H88       1.0  0.54520  0.76468  0.51248  1.0000
  H   H89       1.0  0.55056  0.74559  0.42476  1.0000
  H   H90       1.0  0.52723  0.72648  0.51643  1.0000
  N   N123      1.0  0.24581  0.74252  0.42051  1.0000
  C   C193      1.0  0.26983  0.76901  0.42174  1.0000
  C   C194      1.0  0.29431  0.77240  0.37325  1.0000
  C   C195      1.0  0.26793  0.79202  0.47182  1.0000
  H   H91       1.0  0.24833  0.78303  0.51290  1.0000
  H   H92       1.0  0.26735  0.80750  0.42514  1.0000
  H   H93       1.0  0.28653  0.80327  0.51657  1.0000
  N   N124      1.0  0.74525  0.50476  0.41914  1.0000
  C   C196      1.0  0.77175  0.50727  0.42021  1.0000
  C   C197      1.0  0.77510  0.48607  0.37224  1.0000
  C   C198      1.0  0.79481  0.53234  0.46964  1.0000
  H   H94       1.0  0.78586  0.54305  0.51041  1.0000
  H   H95       1.0  0.81022  0.54827  0.42253  1.0000
  H   H96       1.0  0.80613  0.52513  0.51461  1.0000
  N   N125      1.0  0.50817  0.24312  0.42025  1.0000
  C   C199      1.0  0.50566  0.26711  0.42135  1.0000
  C   C200      1.0  0.52682  0.29164  0.37329  1.0000
  C   C201      1.0  0.48064  0.26513  0.47102  1.0000
  H   H97       1.0  0.46996  0.24547  0.51185  1.0000
  H   H98       1.0  0.46467  0.26459  0.42408  1.0000
  H   H99       1.0  0.48790  0.28367  0.51597  1.0000
  N   N126      1.0  0.76965  0.26762  0.42053  1.0000
  C   C202      1.0  0.74566  0.24111  0.42151  1.0000
  C   C203      1.0  0.72116  0.23774  0.37325  1.0000
  C   C204      1.0  0.74764  0.21806  0.47120  1.0000
  H   H100      1.0  0.76726  0.22704  0.51215  1.0000
  H   H101      1.0  0.74821  0.20265  0.42426  1.0000
  H   H102      1.0  0.72907  0.20675  0.51603  1.0000
  C   C205      1.0  0.17734  0.61701  0.32600  1.0000
  N   N127      1.0  0.15645  0.56601  0.34909  1.0000
  C   C206      1.0  0.15405  0.59026  0.35510  1.0000
  H   H103      1.0  0.13669  0.58922  0.38764  1.0000
  C   C207      1.0  0.39576  0.56294  0.32610  1.0000
  N   N128      1.0  0.44675  0.59309  0.34920  1.0000
  C   C208      1.0  0.42251  0.56642  0.35518  1.0000
  H   H104      1.0  0.42358  0.55016  0.38810  1.0000
  C   C209      1.0  0.44997  0.83556  0.32589  1.0000
  N   N129      1.0  0.41975  0.85632  0.34936  1.0000
  C   C210      1.0  0.44642  0.85876  0.35543  1.0000
  H   H105      1.0  0.46269  0.87608  0.38830  1.0000
  C   C211      1.0  0.83796  0.39320  0.32632  1.0000
  N   N130      1.0  0.85886  0.44422  0.34899  1.0000
  C   C212      1.0  0.86125  0.41997  0.35523  1.0000
  H   H106      1.0  0.87869  0.42108  0.38750  1.0000
  C   C213      1.0  0.61957  0.44732  0.32587  1.0000
  N   N131      1.0  0.56858  0.41718  0.34893  1.0000
  C   C214      1.0  0.59281  0.44385  0.35487  1.0000
  H   H107      1.0  0.59174  0.46013  0.38762  1.0000
  C   C215      1.0  0.56551  0.17482  0.32648  1.0000
  N   N132      1.0  0.59564  0.15394  0.34936  1.0000
  C   C216      1.0  0.56898  0.15153  0.35550  1.0000
  H   H108      1.0  0.55267  0.13417  0.38809  1.0000
  N   N133      1.0  0.99150  0.29981  0.38245  1.0000
  C   C217      1.0  0.02070  0.31699  0.38356  1.0000
  C   C218      1.0  0.03773  0.30533  0.34949  1.0000
  C   C219      1.0  0.03182  0.34620  0.42292  1.0000
  H   H109      1.0  0.01462  0.34820  0.45613  1.0000
  H   H110      1.0  0.04090  0.36263  0.37032  1.0000
  H   H111      1.0  0.04840  0.35040  0.47313  1.0000
  N   N134      1.0  0.71290  0.69417  0.38194  1.0000
  C   C220      1.0  0.69570  0.70617  0.38296  1.0000
  C   C221      1.0  0.70739  0.73489  0.34917  1.0000
  C   C222      1.0  0.66645  0.68800  0.42195  1.0000
  H   H112      1.0  0.66441  0.66876  0.45494  1.0000
  H   H113      1.0  0.65008  0.68072  0.36917  1.0000
  H   H114      1.0  0.66217  0.70031  0.47225  1.0000
  N   N135      1.0  0.31864  0.02130  0.38202  1.0000
  C   C223      1.0  0.30663  0.99210  0.38301  1.0000
  C   C224      1.0  0.27792  0.97508  0.34913  1.0000
  C   C225      1.0  0.32477  0.98099  0.42207  1.0000
  H   H115      1.0  0.34402  0.99820  0.45510  1.0000
  H   H116      1.0  0.33206  0.97190  0.36932  1.0000
  H   H117      1.0  0.31245  0.96442  0.47236  1.0000
  N   N136      1.0  0.02387  0.71044  0.38256  1.0000
  C   C226      1.0  0.99467  0.69325  0.38374  1.0000
  C   C227      1.0  0.97763  0.70489  0.34963  1.0000
  C   C228      1.0  0.98357  0.66405  0.42317  1.0000
  H   H118      1.0  0.00078  0.66207  0.45638  1.0000
  H   H119      1.0  0.97449  0.64761  0.37061  1.0000
  H   H120      1.0  0.96699  0.65985  0.47338  1.0000
  N   N137      1.0  0.30247  0.31608  0.38206  1.0000
  C   C229      1.0  0.31965  0.30406  0.38303  1.0000
  C   C230      1.0  0.30795  0.27534  0.34924  1.0000
  C   C231      1.0  0.34890  0.32221  0.42208  1.0000
  H   H121      1.0  0.35095  0.34145  0.45511  1.0000
  H   H122      1.0  0.36528  0.32949  0.36932  1.0000
  H   H123      1.0  0.35316  0.30988  0.47236  1.0000
  N   N138      1.0  0.69681  0.98894  0.38256  1.0000
  C   C232      1.0  0.70885  0.01814  0.38368  1.0000
  C   C233      1.0  0.73751  0.03516  0.34949  1.0000
  C   C234      1.0  0.69078  0.02926  0.42317  1.0000
  H   H124      1.0  0.67158  0.01207  0.45645  1.0000
  H   H125      1.0  0.68340  0.03834  0.37063  1.0000
  H   H126      1.0  0.70318  0.04585  0.47333  1.0000
  N   N139      1.0  0.18387  0.33620  0.42491  1.0000
  C   C235      1.0  0.15867  0.33678  0.42605  1.0000
  C   C236      1.0  0.13866  0.32294  0.35454  1.0000
  C   C237      1.0  0.15467  0.35334  0.49917  1.0000
  H   H127      1.0  0.17191  0.36058  0.54928  1.0000
  H   H128      1.0  0.13406  0.33971  0.53301  1.0000
  H   H129      1.0  0.15487  0.37243  0.47208  1.0000
  N   N140      1.0  0.67659  0.85021  0.42487  1.0000
  C   C238      1.0  0.67603  0.82443  0.42608  1.0000
  C   C239      1.0  0.68983  0.81827  0.35446  1.0000
  C   C240      1.0  0.65946  0.80387  0.49920  1.0000
  H   H130      1.0  0.65225  0.81389  0.54935  1.0000
  H   H131      1.0  0.67308  0.79687  0.53297  1.0000
  H   H132      1.0  0.64035  0.78500  0.47212  1.0000
  N   N141      1.0  0.16247  0.82902  0.42524  1.0000
  C   C241      1.0  0.18825  0.85424  0.42653  1.0000
  C   C242      1.0  0.19450  0.87418  0.35481  1.0000
  C   C243      1.0  0.20873  0.85829  0.49998  1.0000
  H   H133      1.0  0.19869  0.84105  0.55010  1.0000
  H   H134      1.0  0.21562  0.87889  0.53372  1.0000
  H   H135      1.0  0.22768  0.85813  0.47323  1.0000
  N   N142      1.0  0.83142  0.67396  0.42496  1.0000
  C   C244      1.0  0.85659  0.67331  0.42618  1.0000
  C   C245      1.0  0.87665  0.68720  0.35481  1.0000
  C   C246      1.0  0.86048  0.65665  0.49923  1.0000
  H   H136      1.0  0.84321  0.64942  0.54923  1.0000
  H   H137      1.0  0.88108  0.67022  0.53322  1.0000
  H   H138      1.0  0.86025  0.63755  0.47204  1.0000
  N   N143      1.0  0.33881  0.16005  0.42481  1.0000
  C   C247      1.0  0.33934  0.18582  0.42593  1.0000
  C   C248      1.0  0.32548  0.19195  0.35441  1.0000
  C   C249      1.0  0.35587  0.20637  0.49910  1.0000
  H   H139      1.0  0.36312  0.19638  0.54923  1.0000
  H   H140      1.0  0.34220  0.21332  0.53291  1.0000
  H   H141      1.0  0.37495  0.22529  0.47208  1.0000
  N   N144      1.0  0.85281  0.18127  0.42491  1.0000
  C   C250      1.0  0.82701  0.15608  0.42614  1.0000
  C   C251      1.0  0.82083  0.13612  0.35452  1.0000
  C   C252      1.0  0.80647  0.15209  0.49932  1.0000
  H   H142      1.0  0.81650  0.16932  0.54944  1.0000
  H   H143      1.0  0.79948  0.13147  0.53313  1.0000
  H   H144      1.0  0.78758  0.15231  0.47230  1.0000
