data_image0
_chemical_formula_structural       C2H3NC4H3NC3H3NC3H3NC2H3NC3H3NC3H3NC3H3NC4H3NC3H3NC2H3NC4H3NC3H3NC3H3NC2H3NC3H3NC3H3NC3H3NC4H3NC3H3NC2H3NC3H3NC4H3NC3H3NC2H3NC3H3NC4H3NC3H3NC2H3NC3H3NC4H3NC3H3NC2H3NC3H3NC4H3NC3H3NC6H3C6H3C6H3C6H3C6H3C6H3C6H3C6H3C6H3C6H3C6H3C6H3C6H3C6H3C6H3C6H3C6H3C6H3C6H3C6H3C6H3C6H3C6H3C6H3C3H3NC2H3NC3H3NC3H3NC4H3NC3H3NC3H3NC3H3NC2H3NC3H3NC4H3NC2H3NC3H3NC3H3NC4H3NC3H3NC3H3NC3H3NC2H3NC3H3NC4H3NC3H3NC2H3NC3H3NC4H3NC3H3NC2H3NC3H3NC4H3NC3H3NC2H3NC3H3NC4H3NC3H3NC2H3NC3H3NC
_chemical_formula_sum              "C360 H288 N72"
_cell_length_a       42.3267
_cell_length_b       53.8183
_cell_length_c       14.7848
_cell_angle_alpha    90
_cell_angle_beta     90
_cell_angle_gamma    90

_space_group_name_H-M_alt    "P 1"
_space_group_IT_number       1

loop_
  _space_group_symop_operation_xyz
  'x, y, z'

loop_
  _atom_site_type_symbol
  _atom_site_label
  _atom_site_symmetry_multiplicity
  _atom_site_fract_x
  _atom_site_fract_y
  _atom_site_fract_z
  _atom_site_occupancy
  C   C1        1.0  0.52311  0.98895  0.17107  1.0000
  C   C2        1.0  0.51577  0.99753  0.26376  1.0000
  H   H1        1.0  0.50116  0.98485  0.13535  1.0000
  H   H2        1.0  0.53776  0.97229  0.17016  1.0000
  H   H3        1.0  0.53565  0.00360  0.13477  1.0000
  N   N1        1.0  0.49757  0.01836  0.27149  1.0000
  C   C3        1.0  0.52621  0.98577  0.34442  1.0000
  C   C4        1.0  0.02619  0.52880  0.34472  1.0000
  C   C5        1.0  0.01576  0.51705  0.26419  1.0000
  C   C6        1.0  0.02371  0.52633  0.17289  1.0000
  H   H4        1.0  0.01461  0.54515  0.16426  1.0000
  H   H5        1.0  0.01344  0.51457  0.12035  1.0000
  H   H6        1.0  0.04930  0.52652  0.16394  1.0000
  N   N2        1.0  0.99756  0.49621  0.27179  1.0000
  C   C7        1.0  0.38426  0.07138  0.34548  1.0000
  C   C8        1.0  0.36615  0.07302  0.26496  1.0000
  C   C9        1.0  0.38038  0.07309  0.17362  1.0000
  H   H7        1.0  0.39634  0.08889  0.16654  1.0000
  H   H8        1.0  0.36229  0.07445  0.12119  1.0000
  H   H9        1.0  0.39362  0.05594  0.16298  1.0000
  N   N3        1.0  0.33421  0.07553  0.27274  1.0000
  C   C10       1.0  0.63025  0.94318  0.34652  1.0000
  C   C11       1.0  0.64829  0.94168  0.26584  1.0000
  C   C12       1.0  0.63398  0.94166  0.17461  1.0000
  H   H10       1.0  0.61802  0.92586  0.16750  1.0000
  H   H11       1.0  0.65202  0.94035  0.12202  1.0000
  H   H12       1.0  0.62071  0.95882  0.16424  1.0000
  N   N4        1.0  0.68025  0.93916  0.27339  1.0000
  C   C13       1.0  0.19115  0.57698  0.17005  1.0000
  C   C14       1.0  0.17826  0.57496  0.26276  1.0000
  H   H13       1.0  0.18452  0.56053  0.13128  1.0000
  H   H14       1.0  0.21683  0.57852  0.16896  1.0000
  H   H15       1.0  0.18129  0.59337  0.13701  1.0000
  N   N5        1.0  0.14627  0.57283  0.27069  1.0000
  C   C15       1.0  0.19647  0.57609  0.34334  1.0000
  C   C16       1.0  0.82324  0.43743  0.16957  1.0000
  C   C17       1.0  0.83623  0.43950  0.26215  1.0000
  H   H16       1.0  0.82984  0.45385  0.13063  1.0000
  H   H17       1.0  0.79756  0.43589  0.16872  1.0000
  H   H18       1.0  0.83307  0.42101  0.13657  1.0000
  N   N6        1.0  0.86823  0.44162  0.26976  1.0000
  C   C18       1.0  0.81812  0.43843  0.34293  1.0000
  C   C19       1.0  0.48220  0.12452  0.17011  1.0000
  C   C20       1.0  0.48789  0.13385  0.26280  1.0000
  H   H19       1.0  0.46498  0.13644  0.13636  1.0000
  H   H20       1.0  0.47325  0.10553  0.16913  1.0000
  H   H21       1.0  0.50426  0.12497  0.13194  1.0000
  N   N7        1.0  0.49929  0.15743  0.27059  1.0000
  C   C21       1.0  0.48170  0.12043  0.34354  1.0000
  C   C22       1.0  0.53213  0.89029  0.17118  1.0000
  C   C23       1.0  0.52653  0.88084  0.26376  1.0000
  H   H22       1.0  0.54931  0.87841  0.13708  1.0000
  H   H23       1.0  0.54110  0.90928  0.17046  1.0000
  H   H24       1.0  0.51003  0.88991  0.13319  1.0000
  N   N8        1.0  0.51516  0.85724  0.27124  1.0000
  C   C24       1.0  0.53283  0.89415  0.34470  1.0000
  C   C25       1.0  0.00909  0.66904  0.34546  1.0000
  C   C26       1.0  0.01568  0.65577  0.26480  1.0000
  C   C27       1.0  0.01127  0.66644  0.17352  1.0000
  H   H25       1.0  0.98657  0.67163  0.16391  1.0000
  H   H26       1.0  0.01773  0.65313  0.12095  1.0000
  H   H27       1.0  0.02604  0.68292  0.16564  1.0000
  N   N9        1.0  0.02738  0.63226  0.27248  1.0000
  C   C28       1.0  0.00544  0.34553  0.34494  1.0000
  C   C29       1.0  0.99880  0.35870  0.26409  1.0000
  C   C30       1.0  0.00317  0.34792  0.17296  1.0000
  H   H28       1.0  0.02787  0.34273  0.16334  1.0000
  H   H29       1.0  0.99669  0.36118  0.12022  1.0000
  H   H30       1.0  0.98840  0.33143  0.16535  1.0000
  N   N10       1.0  0.98711  0.38221  0.27146  1.0000
  C   C31       1.0  0.48034  0.50092  0.17021  1.0000
  C   C32       1.0  0.49289  0.50396  0.26294  1.0000
  H   H31       1.0  0.48235  0.51850  0.13388  1.0000
  H   H32       1.0  0.45562  0.49524  0.16927  1.0000
  H   H33       1.0  0.49412  0.48686  0.13456  1.0000
  N   N11       1.0  0.52368  0.51114  0.27070  1.0000
  C   C33       1.0  0.47539  0.49998  0.34362  1.0000
  C   C34       1.0  0.97537  0.01459  0.34545  1.0000
  C   C35       1.0  0.99285  0.01059  0.26489  1.0000
  C   C36       1.0  0.97921  0.01381  0.17359  1.0000
  H   H34       1.0  0.95917  0.00129  0.16479  1.0000
  H   H35       1.0  0.99659  0.00973  0.12104  1.0000
  H   H36       1.0  0.97121  0.03294  0.16484  1.0000
  N   N12       1.0  0.02366  0.00343  0.27252  1.0000
  C   C37       1.0  0.39871  0.43127  0.34523  1.0000
  C   C38       1.0  0.39590  0.41710  0.26475  1.0000
  C   C39       1.0  0.39858  0.42803  0.17333  1.0000
  H   H37       1.0  0.38038  0.44215  0.16390  1.0000
  H   H38       1.0  0.39566  0.41390  0.12095  1.0000
  H   H39       1.0  0.42178  0.43657  0.16494  1.0000
  N   N13       1.0  0.39072  0.39220  0.27267  1.0000
  C   C40       1.0  0.61587  0.58331  0.34408  1.0000
  C   C41       1.0  0.61886  0.59751  0.26376  1.0000
  C   C42       1.0  0.61634  0.58665  0.17222  1.0000
  H   H40       1.0  0.63457  0.57254  0.16293  1.0000
  H   H41       1.0  0.61933  0.60080  0.11999  1.0000
  H   H42       1.0  0.59317  0.57810  0.16347  1.0000
  N   N14       1.0  0.62401  0.62242  0.27196  1.0000
  C   C43       1.0  0.12549  0.88381  0.16986  1.0000
  C   C44       1.0  0.12364  0.89398  0.26265  1.0000
  H   H43       1.0  0.10333  0.88744  0.13451  1.0000
  H   H44       1.0  0.12976  0.86383  0.16879  1.0000
  H   H45       1.0  0.14467  0.89290  0.13331  1.0000
  N   N15       1.0  0.11839  0.91888  0.27070  1.0000
  C   C45       1.0  0.12660  0.87984  0.34325  1.0000
  C   C46       1.0  0.88935  0.13065  0.17046  1.0000
  C   C47       1.0  0.89104  0.12053  0.26336  1.0000
  H   H46       1.0  0.91158  0.12703  0.13548  1.0000
  H   H47       1.0  0.88504  0.15062  0.16918  1.0000
  H   H48       1.0  0.87026  0.12151  0.13370  1.0000
  N   N16       1.0  0.89631  0.09564  0.27169  1.0000
  C   C48       1.0  0.88789  0.13472  0.34380  1.0000
  C   C49       1.0  0.31402  0.54919  0.17042  1.0000
  C   C50       1.0  0.32375  0.54232  0.26320  1.0000
  H   H49       1.0  0.33393  0.55771  0.13521  1.0000
  H   H50       1.0  0.29434  0.56226  0.16937  1.0000
  H   H51       1.0  0.30688  0.53252  0.13373  1.0000
  N   N17       1.0  0.34823  0.52597  0.27114  1.0000
  C   C51       1.0  0.30982  0.55164  0.34376  1.0000
  C   C52       1.0  0.70090  0.46550  0.17006  1.0000
  C   C53       1.0  0.69103  0.47234  0.26275  1.0000
  H   H52       1.0  0.68104  0.45702  0.13452  1.0000
  H   H53       1.0  0.72057  0.45243  0.16917  1.0000
  H   H54       1.0  0.70812  0.48219  0.13358  1.0000
  N   N18       1.0  0.66653  0.48869  0.27045  1.0000
  C   C54       1.0  0.70479  0.46295  0.34345  1.0000
  C   C55       1.0  0.15397  0.01788  0.34494  1.0000
  C   C56       1.0  0.16781  0.02726  0.26449  1.0000
  C   C57       1.0  0.15684  0.02021  0.17311  1.0000
  H   H55       1.0  0.15931  0.00019  0.16371  1.0000
  H   H56       1.0  0.17058  0.02957  0.12069  1.0000
  H   H57       1.0  0.13207  0.02534  0.16476  1.0000
  N   N19       1.0  0.19220  0.04370  0.27231  1.0000
  C   C58       1.0  0.86056  0.99669  0.34576  1.0000
  C   C59       1.0  0.84692  0.98722  0.26518  1.0000
  C   C60       1.0  0.85806  0.99421  0.17390  1.0000
  H   H58       1.0  0.85563  0.01423  0.16432  1.0000
  H   H59       1.0  0.84442  0.98482  0.12135  1.0000
  H   H60       1.0  0.88285  0.98907  0.16596  1.0000
  N   N20       1.0  0.82250  0.97080  0.27276  1.0000
  C   C61       1.0  0.23514  0.14377  0.16843  1.0000
  C   C62       1.0  0.23208  0.15376  0.26121  1.0000
  H   H61       1.0  0.21324  0.14705  0.13136  1.0000
  H   H62       1.0  0.23998  0.12387  0.16737  1.0000
  H   H63       1.0  0.25441  0.15326  0.13360  1.0000
  N   N21       1.0  0.22590  0.17850  0.26925  1.0000
  C   C63       1.0  0.23554  0.13975  0.34190  1.0000
  C   C64       1.0  0.77938  0.87082  0.16833  1.0000
  C   C65       1.0  0.78244  0.86083  0.26111  1.0000
  H   H64       1.0  0.80130  0.86756  0.13130  1.0000
  H   H65       1.0  0.77452  0.89071  0.16727  1.0000
  H   H66       1.0  0.76014  0.86131  0.13347  1.0000
  N   N22       1.0  0.78864  0.83609  0.26917  1.0000
  C   C66       1.0  0.77895  0.87484  0.34180  1.0000
  C   C67       1.0  0.29184  0.69070  0.34660  1.0000
  C   C68       1.0  0.28815  0.67674  0.26599  1.0000
  C   C69       1.0  0.29042  0.68776  0.17462  1.0000
  H   H67       1.0  0.27246  0.70213  0.16641  1.0000
  H   H68       1.0  0.28685  0.67375  0.12217  1.0000
  H   H69       1.0  0.31373  0.69602  0.16513  1.0000
  N   N23       1.0  0.28178  0.65203  0.27392  1.0000
  C   C70       1.0  0.72271  0.32388  0.34667  1.0000
  C   C71       1.0  0.72639  0.33784  0.26607  1.0000
  C   C72       1.0  0.72414  0.32682  0.17469  1.0000
  H   H70       1.0  0.74211  0.31246  0.16649  1.0000
  H   H71       1.0  0.72770  0.34084  0.12225  1.0000
  H   H72       1.0  0.70083  0.31856  0.16518  1.0000
  N   N24       1.0  0.73276  0.36255  0.27402  1.0000
  C   C73       1.0  0.31591  0.30194  0.16959  1.0000
  C   C74       1.0  0.30422  0.29710  0.26222  1.0000
  H   H73       1.0  0.32219  0.28438  0.13734  1.0000
  H   H74       1.0  0.33661  0.31400  0.16858  1.0000
  H   H75       1.0  0.29733  0.31086  0.13004  1.0000
  N   N25       1.0  0.27813  0.28247  0.27010  1.0000
  C   C75       1.0  0.31861  0.30575  0.34301  1.0000
  C   C76       1.0  0.69867  0.71264  0.16954  1.0000
  C   C77       1.0  0.71036  0.71748  0.26217  1.0000
  H   H76       1.0  0.69237  0.73020  0.13734  1.0000
  H   H77       1.0  0.67799  0.70056  0.16850  1.0000
  H   H78       1.0  0.71726  0.70375  0.12995  1.0000
  N   N26       1.0  0.73644  0.73212  0.27005  1.0000
  C   C78       1.0  0.69598  0.70878  0.34292  1.0000
  C   C79       1.0  0.24965  0.77559  0.34582  1.0000
  C   C80       1.0  0.23507  0.78394  0.26510  1.0000
  C   C81       1.0  0.24628  0.77703  0.17379  1.0000
  H   H79       1.0  0.27049  0.78349  0.16424  1.0000
  H   H80       1.0  0.23152  0.78532  0.12127  1.0000
  H   H81       1.0  0.24561  0.75687  0.16578  1.0000
  N   N27       1.0  0.20874  0.79830  0.27297  1.0000
  C   C82       1.0  0.76491  0.23900  0.34583  1.0000
  C   C83       1.0  0.77950  0.23065  0.26512  1.0000
  C   C84       1.0  0.76830  0.23757  0.17381  1.0000
  H   H82       1.0  0.74409  0.23110  0.16424  1.0000
  H   H83       1.0  0.78306  0.22927  0.12129  1.0000
  H   H84       1.0  0.76896  0.25772  0.16580  1.0000
  N   N28       1.0  0.80584  0.21629  0.27300  1.0000
  C   C85       1.0  0.43455  0.29133  0.16970  1.0000
  C   C86       1.0  0.44450  0.28459  0.26242  1.0000
  H   H85       1.0  0.45509  0.29747  0.13107  1.0000
  H   H86       1.0  0.41709  0.30622  0.16863  1.0000
  H   H87       1.0  0.42435  0.27509  0.13651  1.0000
  N   N29       1.0  0.46663  0.26638  0.27047  1.0000
  C   C87       1.0  0.43248  0.29524  0.34317  1.0000
  C   C88       1.0  0.58000  0.72322  0.16973  1.0000
  C   C89       1.0  0.57006  0.72997  0.26246  1.0000
  H   H88       1.0  0.55946  0.71705  0.13117  1.0000
  H   H89       1.0  0.59749  0.70835  0.16867  1.0000
  H   H90       1.0  0.59016  0.73946  0.13646  1.0000
  N   N30       1.0  0.54792  0.74817  0.27050  1.0000
  C   C90       1.0  0.58213  0.71936  0.34322  1.0000
  C   C91       1.0  0.03682  0.75760  0.34521  1.0000
  C   C92       1.0  0.04901  0.76807  0.26451  1.0000
  C   C93       1.0  0.03925  0.75996  0.17316  1.0000
  H   H91       1.0  0.04441  0.74024  0.16434  1.0000
  H   H92       1.0  0.05175  0.77031  0.12068  1.0000
  H   H93       1.0  0.01394  0.76298  0.16432  1.0000
  N   N31       1.0  0.07136  0.78611  0.27247  1.0000
  C   C94       1.0  0.97774  0.25697  0.34522  1.0000
  C   C95       1.0  0.96555  0.24649  0.26454  1.0000
  C   C96       1.0  0.97527  0.25462  0.17316  1.0000
  H   H94       1.0  0.97008  0.27434  0.16439  1.0000
  H   H95       1.0  0.96277  0.24426  0.12071  1.0000
  H   H96       1.0  0.00058  0.25162  0.16426  1.0000
  N   N32       1.0  0.94322  0.22843  0.27254  1.0000
  C   C97       1.0  0.14511  0.26346  0.16922  1.0000
  C   C98       1.0  0.13323  0.26741  0.26221  1.0000
  H   H97       1.0  0.12982  0.25027  0.13420  1.0000
  H   H98       1.0  0.16917  0.25623  0.16777  1.0000
  H   H99       1.0  0.14479  0.28107  0.13260  1.0000
  N   N33       1.0  0.10331  0.27639  0.27082  1.0000
  C   C99       1.0  0.15027  0.26222  0.34265  1.0000
  C   C100      1.0  0.86943  0.75113  0.16921  1.0000
  C   C101      1.0  0.88132  0.74719  0.26219  1.0000
  H   H100      1.0  0.88472  0.76432  0.13416  1.0000
  H   H101      1.0  0.84538  0.75836  0.16776  1.0000
  H   H102      1.0  0.86974  0.73352  0.13259  1.0000
  N   N34       1.0  0.91124  0.73821  0.27079  1.0000
  C   C102      1.0  0.86429  0.75238  0.34263  1.0000
  C   C103      1.0  0.42572  0.78110  0.34478  1.0000
  C   C104      1.0  0.40878  0.77572  0.26444  1.0000
  C   C105      1.0  0.42209  0.77912  0.17283  1.0000
  H   H103      1.0  0.42864  0.79854  0.16286  1.0000
  H   H104      1.0  0.40502  0.77399  0.12070  1.0000
  H   H105      1.0  0.44303  0.76750  0.16461  1.0000
  N   N35       1.0  0.37891  0.76661  0.27287  1.0000
  C   C106      1.0  0.58884  0.23347  0.34479  1.0000
  C   C107      1.0  0.60579  0.23883  0.26445  1.0000
  C   C108      1.0  0.59247  0.23544  0.17284  1.0000
  H   H106      1.0  0.58592  0.21602  0.16288  1.0000
  H   H107      1.0  0.60955  0.24056  0.12070  1.0000
  H   H108      1.0  0.57154  0.24706  0.16461  1.0000
  N   N36       1.0  0.63566  0.24795  0.27288  1.0000
  C   C109      1.0  0.46690  0.09675  0.34651  1.0000
  C   C110      1.0  0.43356  0.09519  0.34665  1.0000
  C   C111      1.0  0.41791  0.07197  0.34742  1.0000
  C   C112      1.0  0.43633  0.04998  0.34871  1.0000
  C   C113      1.0  0.46983  0.05096  0.34907  1.0000
  C   C114      1.0  0.48476  0.07452  0.34775  1.0000
  H   H109      1.0  0.42522  0.03307  0.34924  1.0000
  H   H110      1.0  0.50894  0.07552  0.34757  1.0000
  H   H111      1.0  0.42047  0.11122  0.34518  1.0000
  C   C115      1.0  0.54762  0.91782  0.34794  1.0000
  C   C116      1.0  0.58095  0.91938  0.34894  1.0000
  C   C117      1.0  0.59661  0.94260  0.34870  1.0000
  C   C118      1.0  0.57819  0.96459  0.34801  1.0000
  C   C119      1.0  0.54470  0.96361  0.34742  1.0000
  C   C120      1.0  0.52975  0.94005  0.34730  1.0000
  H   H112      1.0  0.58930  0.98150  0.34688  1.0000
  H   H113      1.0  0.50558  0.93905  0.34560  1.0000
  H   H114      1.0  0.59404  0.90335  0.34838  1.0000
  C   C121      1.0  0.04768  0.59674  0.34925  1.0000
  C   C122      1.0  0.08102  0.59517  0.34911  1.0000
  C   C123      1.0  0.09665  0.57195  0.34837  1.0000
  C   C124      1.0  0.07821  0.54997  0.34708  1.0000
  C   C125      1.0  0.04472  0.55096  0.34671  1.0000
  C   C126      1.0  0.02980  0.57453  0.34801  1.0000
  H   H115      1.0  0.08931  0.53305  0.34658  1.0000
  H   H116      1.0  0.00562  0.57554  0.34819  1.0000
  H   H117      1.0  0.09412  0.61120  0.35062  1.0000
  C   C127      1.0  0.96691  0.41783  0.34782  1.0000
  C   C128      1.0  0.93357  0.41939  0.34677  1.0000
  C   C129      1.0  0.91792  0.44261  0.34707  1.0000
  C   C130      1.0  0.93635  0.46460  0.34778  1.0000
  C   C131      1.0  0.96984  0.46362  0.34836  1.0000
  C   C132      1.0  0.98478  0.44005  0.34849  1.0000
  H   H118      1.0  0.92524  0.48151  0.34891  1.0000
  H   H119      1.0  0.00895  0.43905  0.35018  1.0000
  H   H120      1.0  0.92048  0.40336  0.34738  1.0000
  C   C133      1.0  0.44341  0.49172  0.34649  1.0000
  C   C134      1.0  0.43656  0.46598  0.34626  1.0000
  C   C135      1.0  0.40504  0.45722  0.34704  1.0000
  C   C136      1.0  0.38007  0.47471  0.34850  1.0000
  C   C137      1.0  0.38613  0.50059  0.34901  1.0000
  C   C138      1.0  0.41795  0.50882  0.34784  1.0000
  H   H121      1.0  0.35717  0.46852  0.34899  1.0000
  H   H122      1.0  0.42264  0.52749  0.34779  1.0000
  H   H123      1.0  0.45477  0.45343  0.34466  1.0000
  C   C139      1.0  0.57117  0.52286  0.34822  1.0000
  C   C140      1.0  0.57803  0.54859  0.34667  1.0000
  C   C141      1.0  0.60955  0.55735  0.34564  1.0000
  C   C142      1.0  0.63452  0.53986  0.34631  1.0000
  C   C143      1.0  0.62846  0.51398  0.34794  1.0000
  C   C144      1.0  0.59664  0.50576  0.34875  1.0000
  H   H124      1.0  0.65742  0.54605  0.34594  1.0000
  H   H125      1.0  0.59196  0.48709  0.35037  1.0000
  H   H126      1.0  0.55981  0.56114  0.34647  1.0000
  C   C145      1.0  0.07115  0.99172  0.34930  1.0000
  C   C146      1.0  0.07800  0.96598  0.34953  1.0000
  C   C147      1.0  0.10952  0.95722  0.34874  1.0000
  C   C148      1.0  0.13449  0.97471  0.34728  1.0000
  C   C149      1.0  0.12843  0.00059  0.34677  1.0000
  C   C150      1.0  0.09662  0.00882  0.34794  1.0000
  H   H127      1.0  0.15738  0.96851  0.34677  1.0000
  H   H128      1.0  0.09193  0.02750  0.34799  1.0000
  H   H129      1.0  0.05978  0.95344  0.35112  1.0000
  C   C151      1.0  0.94338  0.02285  0.34754  1.0000
  C   C152      1.0  0.93653  0.04858  0.34909  1.0000
  C   C153      1.0  0.90501  0.05734  0.35013  1.0000
  C   C154      1.0  0.88003  0.03985  0.34946  1.0000
  C   C155      1.0  0.88609  0.01398  0.34784  1.0000
  C   C156      1.0  0.91791  0.00575  0.34701  1.0000
  H   H130      1.0  0.85714  0.04605  0.34984  1.0000
  H   H131      1.0  0.92260  0.98708  0.34541  1.0000
  H   H132      1.0  0.95475  0.06113  0.34929  1.0000
  C   C157      1.0  0.24396  0.11426  0.34472  1.0000
  C   C158      1.0  0.27614  0.10734  0.34640  1.0000
  C   C159      1.0  0.28531  0.08208  0.34948  1.0000
  C   C160      1.0  0.26146  0.06357  0.35090  1.0000
  C   C161      1.0  0.22896  0.07003  0.34920  1.0000
  C   C162      1.0  0.22060  0.09549  0.34612  1.0000
  H   H133      1.0  0.26783  0.04523  0.35370  1.0000
  H   H134      1.0  0.19721  0.10044  0.34523  1.0000
  H   H135      1.0  0.29316  0.12091  0.34566  1.0000
  C   C163      1.0  0.77054  0.90033  0.34462  1.0000
  C   C164      1.0  0.73835  0.90726  0.34643  1.0000
  C   C165      1.0  0.72920  0.93252  0.34964  1.0000
  C   C166      1.0  0.75305  0.95101  0.35114  1.0000
  C   C167      1.0  0.78555  0.94455  0.34930  1.0000
  C   C168      1.0  0.79391  0.91910  0.34603  1.0000
  H   H136      1.0  0.74669  0.96936  0.35417  1.0000
  H   H137      1.0  0.81729  0.91414  0.34512  1.0000
  H   H138      1.0  0.72133  0.89369  0.34574  1.0000
  C   C169      1.0  0.27057  0.61425  0.35106  1.0000
  C   C170      1.0  0.23838  0.60731  0.34937  1.0000
  C   C171      1.0  0.22924  0.58205  0.34629  1.0000
  C   C172      1.0  0.25310  0.56355  0.34487  1.0000
  C   C173      1.0  0.28560  0.57003  0.34656  1.0000
  C   C174      1.0  0.29395  0.59549  0.34967  1.0000
  H   H139      1.0  0.24675  0.54521  0.34203  1.0000
  H   H140      1.0  0.31732  0.60045  0.35056  1.0000
  H   H141      1.0  0.22136  0.62086  0.35007  1.0000
  C   C175      1.0  0.74399  0.40033  0.35115  1.0000
  C   C176      1.0  0.77618  0.40725  0.34938  1.0000
  C   C177      1.0  0.78534  0.43250  0.34615  1.0000
  C   C178      1.0  0.76150  0.45101  0.34461  1.0000
  C   C179      1.0  0.72900  0.44455  0.34644  1.0000
  C   C180      1.0  0.72063  0.41910  0.34972  1.0000
  H   H142      1.0  0.76787  0.46935  0.34160  1.0000
  H   H143      1.0  0.69724  0.41415  0.35062  1.0000
  H   H144      1.0  0.79319  0.39368  0.35007  1.0000
  C   C181      1.0  0.40640  0.31161  0.34607  1.0000
  C   C182      1.0  0.37567  0.30150  0.34506  1.0000
  C   C183      1.0  0.34880  0.31702  0.34604  1.0000
  C   C184      1.0  0.35296  0.34310  0.34850  1.0000
  C   C185      1.0  0.38362  0.35367  0.34982  1.0000
  C   C186      1.0  0.41021  0.33770  0.34855  1.0000
  H   H145      1.0  0.33353  0.35445  0.34901  1.0000
  H   H146      1.0  0.43252  0.34509  0.34910  1.0000
  H   H147      1.0  0.37282  0.28257  0.34275  1.0000
  C   C187      1.0  0.60819  0.70297  0.34608  1.0000
  C   C188      1.0  0.63893  0.71307  0.34511  1.0000
  C   C189      1.0  0.66578  0.69754  0.34596  1.0000
  C   C190      1.0  0.66161  0.67145  0.34819  1.0000
  C   C191      1.0  0.63094  0.66090  0.34949  1.0000
  C   C192      1.0  0.60436  0.67688  0.34838  1.0000
  H   H148      1.0  0.68103  0.66009  0.34859  1.0000
  H   H149      1.0  0.58204  0.66950  0.34887  1.0000
  H   H150      1.0  0.64179  0.73199  0.34293  1.0000
  C   C193      1.0  0.10819  0.81159  0.34971  1.0000
  C   C194      1.0  0.13894  0.80151  0.35076  1.0000
  C   C195      1.0  0.16578  0.81705  0.34980  1.0000
  C   C196      1.0  0.16159  0.84313  0.34732  1.0000
  C   C197      1.0  0.13090  0.85366  0.34596  1.0000
  C   C198      1.0  0.10433  0.83767  0.34721  1.0000
  H   H151      1.0  0.18100  0.85450  0.34681  1.0000
  H   H152      1.0  0.08201  0.84504  0.34661  1.0000
  H   H153      1.0  0.14182  0.78258  0.35304  1.0000
  C   C199      1.0  0.90639  0.20295  0.34972  1.0000
  C   C200      1.0  0.87565  0.21306  0.35069  1.0000
  C   C201      1.0  0.84879  0.19754  0.34984  1.0000
  C   C202      1.0  0.85295  0.17145  0.34758  1.0000
  C   C203      1.0  0.88362  0.16090  0.34627  1.0000
  C   C204      1.0  0.91021  0.17687  0.34740  1.0000
  H   H154      1.0  0.83353  0.16010  0.34718  1.0000
  H   H155      1.0  0.93252  0.16948  0.34689  1.0000
  H   H156      1.0  0.87280  0.23199  0.35288  1.0000
  C   C205      1.0  0.21749  0.21672  0.34730  1.0000
  C   C206      1.0  0.24343  0.23327  0.34807  1.0000
  C   C207      1.0  0.23870  0.25927  0.34788  1.0000
  C   C208      1.0  0.20757  0.26872  0.34621  1.0000
  C   C209      1.0  0.18132  0.25249  0.34489  1.0000
  C   C210      1.0  0.18650  0.22652  0.34558  1.0000
  H   H157      1.0  0.20399  0.28756  0.34596  1.0000
  H   H158      1.0  0.16756  0.21465  0.34497  1.0000
  H   H159      1.0  0.26598  0.22632  0.34961  1.0000
  C   C211      1.0  0.79706  0.79787  0.34725  1.0000
  C   C212      1.0  0.77113  0.78133  0.34802  1.0000
  C   C213      1.0  0.77586  0.75532  0.34786  1.0000
  C   C214      1.0  0.80699  0.74588  0.34621  1.0000
  C   C215      1.0  0.83323  0.76211  0.34489  1.0000
  C   C216      1.0  0.82805  0.78808  0.34556  1.0000
  H   H160      1.0  0.81057  0.72704  0.34596  1.0000
  H   H161      1.0  0.84699  0.79995  0.34494  1.0000
  H   H162      1.0  0.74858  0.78827  0.34954  1.0000
  C   C217      1.0  0.29705  0.71671  0.34849  1.0000
  C   C218      1.0  0.27112  0.73326  0.34775  1.0000
  C   C219      1.0  0.27585  0.75926  0.34791  1.0000
  C   C220      1.0  0.30698  0.76870  0.34956  1.0000
  C   C221      1.0  0.33322  0.75247  0.35086  1.0000
  C   C222      1.0  0.32804  0.72650  0.35018  1.0000
  H   H163      1.0  0.31056  0.78754  0.34981  1.0000
  H   H164      1.0  0.34698  0.71464  0.35078  1.0000
  H   H165      1.0  0.24857  0.72631  0.34620  1.0000
  C   C223      1.0  0.71750  0.29787  0.34853  1.0000
  C   C224      1.0  0.74344  0.28132  0.34780  1.0000
  C   C225      1.0  0.73871  0.25532  0.34792  1.0000
  C   C226      1.0  0.70758  0.24587  0.34955  1.0000
  C   C227      1.0  0.68133  0.26210  0.35087  1.0000
  C   C228      1.0  0.68651  0.28807  0.35022  1.0000
  H   H166      1.0  0.70400  0.22703  0.34979  1.0000
  H   H167      1.0  0.66757  0.29994  0.35083  1.0000
  H   H168      1.0  0.76599  0.28827  0.34625  1.0000
  C   C229      1.0  0.00081  0.27594  0.34719  1.0000
  C   C230      1.0  0.99196  0.30125  0.34698  1.0000
  C   C231      1.0  0.01504  0.32025  0.34734  1.0000
  C   C232      1.0  0.04739  0.31356  0.34874  1.0000
  C   C233      1.0  0.05664  0.28829  0.34958  1.0000
  C   C234      1.0  0.03316  0.26964  0.34853  1.0000
  H   H169      1.0  0.06432  0.32717  0.34890  1.0000
  H   H170      1.0  0.03968  0.25128  0.34867  1.0000
  H   H171      1.0  0.96846  0.30587  0.34551  1.0000
  C   C235      1.0  0.01375  0.73863  0.34720  1.0000
  C   C236      1.0  0.02260  0.71331  0.34715  1.0000
  C   C237      1.0  0.99950  0.69432  0.34757  1.0000
  C   C238      1.0  0.96715  0.70102  0.34887  1.0000
  C   C239      1.0  0.95791  0.72630  0.34957  1.0000
  C   C240      1.0  0.98140  0.74493  0.34844  1.0000
  H   H172      1.0  0.95022  0.68741  0.34913  1.0000
  H   H173      1.0  0.97489  0.76329  0.34849  1.0000
  H   H174      1.0  0.04609  0.70869  0.34580  1.0000
  C   C241      1.0  0.51375  0.77593  0.34858  1.0000
  C   C242      1.0  0.52260  0.80124  0.34880  1.0000
  C   C243      1.0  0.49950  0.82024  0.34844  1.0000
  C   C244      1.0  0.46715  0.81354  0.34704  1.0000
  C   C245      1.0  0.45791  0.78826  0.34619  1.0000
  C   C246      1.0  0.48140  0.76962  0.34724  1.0000
  H   H175      1.0  0.45022  0.82714  0.34688  1.0000
  H   H176      1.0  0.47490  0.75126  0.34711  1.0000
  H   H177      1.0  0.54609  0.80587  0.35024  1.0000
  C   C247      1.0  0.50081  0.23863  0.34857  1.0000
  C   C248      1.0  0.49197  0.21332  0.34861  1.0000
  C   C249      1.0  0.51506  0.19432  0.34821  1.0000
  C   C250      1.0  0.54741  0.20103  0.34692  1.0000
  C   C251      1.0  0.55665  0.22631  0.34622  1.0000
  C   C252      1.0  0.53316  0.24494  0.34734  1.0000
  H   H178      1.0  0.56435  0.18743  0.34666  1.0000
  H   H179      1.0  0.53965  0.26330  0.34727  1.0000
  H   H180      1.0  0.46847  0.20869  0.34996  1.0000
  C   C253      1.0  0.48834  0.02880  0.35106  1.0000
  C   C254      1.0  0.49878  0.01704  0.43159  1.0000
  C   C255      1.0  0.49084  0.02633  0.52289  1.0000
  H   H181      1.0  0.49994  0.04515  0.53150  1.0000
  H   H182      1.0  0.50111  0.01457  0.57543  1.0000
  H   H183      1.0  0.46525  0.02652  0.53185  1.0000
  N   N37       1.0  0.51698  0.99621  0.42399  1.0000
  C   C256      1.0  0.99145  0.48895  0.52471  1.0000
  C   C257      1.0  0.99878  0.49753  0.43202  1.0000
  H   H184      1.0  0.01341  0.48484  0.56041  1.0000
  H   H185      1.0  0.97680  0.47228  0.52563  1.0000
  H   H186      1.0  0.97892  0.50359  0.56104  1.0000
  N   N38       1.0  0.01698  0.51836  0.42429  1.0000
  C   C258      1.0  0.98833  0.48577  0.35137  1.0000
  C   C259      1.0  0.32336  0.07696  0.52568  1.0000
  C   C260      1.0  0.33627  0.07498  0.43298  1.0000
  H   H187      1.0  0.32998  0.06049  0.56435  1.0000
  H   H188      1.0  0.29768  0.07851  0.52674  1.0000
  H   H189      1.0  0.33323  0.09333  0.55886  1.0000
  N   N39       1.0  0.36827  0.07285  0.42512  1.0000
  C   C261      1.0  0.31809  0.07616  0.35235  1.0000
  C   C262      1.0  0.69129  0.93740  0.52622  1.0000
  C   C263      1.0  0.67830  0.93948  0.43365  1.0000
  H   H190      1.0  0.68466  0.95381  0.56521  1.0000
  H   H191      1.0  0.71697  0.93589  0.52708  1.0000
  H   H192      1.0  0.68149  0.92097  0.55918  1.0000
  N   N40       1.0  0.64630  0.94159  0.42602  1.0000
  C   C264      1.0  0.69643  0.93846  0.35290  1.0000
  C   C265      1.0  0.13030  0.57133  0.35036  1.0000
  C   C266      1.0  0.14842  0.57300  0.43083  1.0000
  C   C267      1.0  0.13421  0.57311  0.52218  1.0000
  H   H193      1.0  0.11825  0.58892  0.52920  1.0000
  H   H194      1.0  0.15231  0.57450  0.57458  1.0000
  H   H195      1.0  0.12097  0.55597  0.53292  1.0000
  N   N41       1.0  0.18037  0.57550  0.42298  1.0000
  C   C268      1.0  0.88428  0.44319  0.34927  1.0000
  C   C269      1.0  0.86625  0.44167  0.42995  1.0000
  C   C270      1.0  0.88057  0.44168  0.52118  1.0000
  H   H196      1.0  0.89655  0.42589  0.52828  1.0000
  H   H197      1.0  0.86253  0.44035  0.57377  1.0000
  H   H198      1.0  0.89382  0.45884  0.53152  1.0000
  N   N42       1.0  0.83429  0.43915  0.42243  1.0000
  C   C271      1.0  0.50549  0.16904  0.35031  1.0000
  C   C272      1.0  0.49890  0.15577  0.43098  1.0000
  C   C273      1.0  0.50331  0.16645  0.52225  1.0000
  H   H199      1.0  0.52801  0.17163  0.53186  1.0000
  H   H200      1.0  0.49686  0.15312  0.57482  1.0000
  H   H201      1.0  0.48854  0.18292  0.53015  1.0000
  N   N43       1.0  0.48722  0.13226  0.42329  1.0000
  C   C274      1.0  0.50909  0.84552  0.35082  1.0000
  C   C275      1.0  0.51572  0.85869  0.43167  1.0000
  C   C276      1.0  0.51137  0.84791  0.52280  1.0000
  H   H202      1.0  0.48668  0.84271  0.53244  1.0000
  H   H203      1.0  0.51784  0.86118  0.57553  1.0000
  H   H204      1.0  0.52615  0.83143  0.53039  1.0000
  N   N44       1.0  0.52740  0.88220  0.42429  1.0000
  C   C277      1.0  0.03237  0.62452  0.52567  1.0000
  C   C278      1.0  0.02668  0.63384  0.43298  1.0000
  H   H205      1.0  0.04958  0.63643  0.55943  1.0000
  H   H206      1.0  0.04133  0.60552  0.52664  1.0000
  H   H207      1.0  0.01031  0.62495  0.56383  1.0000
  N   N45       1.0  0.01528  0.65743  0.42519  1.0000
  C   C279      1.0  0.03289  0.62043  0.35223  1.0000
  C   C280      1.0  0.98244  0.39031  0.52458  1.0000
  C   C281      1.0  0.98802  0.38086  0.43200  1.0000
  H   H208      1.0  0.96529  0.37843  0.55873  1.0000
  H   H209      1.0  0.97346  0.40930  0.52530  1.0000
  H   H210      1.0  0.00455  0.38995  0.56252  1.0000
  N   N46       1.0  0.99939  0.35725  0.42453  1.0000
  C   C282      1.0  0.98168  0.39414  0.35105  1.0000
  C   C283      1.0  0.53918  0.51460  0.35032  1.0000
  C   C284      1.0  0.52171  0.51058  0.43089  1.0000
  C   C285      1.0  0.53535  0.51381  0.52218  1.0000
  H   H211      1.0  0.55540  0.50129  0.53095  1.0000
  H   H212      1.0  0.51798  0.50972  0.57472  1.0000
  H   H213      1.0  0.54335  0.53293  0.53094  1.0000
  N   N47       1.0  0.49090  0.50342  0.42326  1.0000
  C   C286      1.0  0.03421  0.00093  0.52557  1.0000
  C   C287      1.0  0.02167  0.00396  0.43284  1.0000
  H   H214      1.0  0.03220  0.01851  0.56189  1.0000
  H   H215      1.0  0.05894  0.99525  0.52652  1.0000
  H   H216      1.0  0.02044  0.98686  0.56122  1.0000
  N   N48       1.0  0.99087  0.01114  0.42506  1.0000
  C   C288      1.0  0.03917  0.99998  0.35216  1.0000
  C   C289      1.0  0.38905  0.38381  0.52592  1.0000
  C   C290      1.0  0.39087  0.39399  0.43313  1.0000
  H   H217      1.0  0.41122  0.38742  0.56122  1.0000
  H   H218      1.0  0.38474  0.36384  0.52699  1.0000
  H   H219      1.0  0.36989  0.39292  0.56252  1.0000
  N   N49       1.0  0.39615  0.41888  0.42508  1.0000
  C   C291      1.0  0.38788  0.37985  0.35254  1.0000
  C   C292      1.0  0.62520  0.63066  0.52530  1.0000
  C   C293      1.0  0.62351  0.62054  0.43240  1.0000
  H   H220      1.0  0.60297  0.62703  0.56029  1.0000
  H   H221      1.0  0.62951  0.65063  0.52659  1.0000
  H   H222      1.0  0.64430  0.62152  0.56206  1.0000
  N   N50       1.0  0.61825  0.59565  0.42407  1.0000
  C   C294      1.0  0.62666  0.63472  0.35196  1.0000
  C   C295      1.0  0.11583  0.93127  0.35054  1.0000
  C   C296      1.0  0.11863  0.91710  0.43103  1.0000
  C   C297      1.0  0.11596  0.92803  0.52245  1.0000
  H   H223      1.0  0.13418  0.94214  0.53186  1.0000
  H   H224      1.0  0.11887  0.91390  0.57483  1.0000
  H   H225      1.0  0.09277  0.93658  0.53084  1.0000
  N   N51       1.0  0.12379  0.89219  0.42311  1.0000
  C   C298      1.0  0.89870  0.08330  0.35168  1.0000
  C   C299      1.0  0.89568  0.09750  0.43200  1.0000
  C   C300      1.0  0.89820  0.08664  0.52354  1.0000
  H   H226      1.0  0.87997  0.07253  0.53282  1.0000
  H   H227      1.0  0.89521  0.10079  0.57577  1.0000
  H   H228      1.0  0.92138  0.07809  0.53230  1.0000
  N   N52       1.0  0.89054  0.12241  0.42380  1.0000
  C   C301      1.0  0.36060  0.51789  0.35083  1.0000
  C   C302      1.0  0.34676  0.52726  0.43127  1.0000
  C   C303      1.0  0.35772  0.52022  0.52266  1.0000
  H   H229      1.0  0.35525  0.50020  0.53207  1.0000
  H   H230      1.0  0.34398  0.52958  0.57508  1.0000
  H   H231      1.0  0.38249  0.52535  0.53101  1.0000
  N   N53       1.0  0.32237  0.54370  0.42345  1.0000
  C   C304      1.0  0.65399  0.49670  0.35001  1.0000
  C   C305      1.0  0.66763  0.48722  0.43059  1.0000
  C   C306      1.0  0.65649  0.49421  0.52187  1.0000
  H   H232      1.0  0.65892  0.51422  0.53146  1.0000
  H   H233      1.0  0.67014  0.48482  0.57441  1.0000
  H   H234      1.0  0.63171  0.48907  0.52981  1.0000
  N   N54       1.0  0.69205  0.47080  0.42299  1.0000
  C   C307      1.0  0.20055  0.04919  0.52533  1.0000
  C   C308      1.0  0.19082  0.04232  0.43256  1.0000
  H   H235      1.0  0.18064  0.05771  0.56054  1.0000
  H   H236      1.0  0.22023  0.06226  0.52639  1.0000
  H   H237      1.0  0.20769  0.03252  0.56204  1.0000
  N   N55       1.0  0.16634  0.02596  0.42463  1.0000
  C   C309      1.0  0.20474  0.05164  0.35199  1.0000
  C   C310      1.0  0.81364  0.96550  0.52569  1.0000
  C   C311      1.0  0.82352  0.97233  0.43301  1.0000
  H   H238      1.0  0.83350  0.95702  0.56126  1.0000
  H   H239      1.0  0.79398  0.95242  0.52657  1.0000
  H   H240      1.0  0.80641  0.98218  0.56216  1.0000
  N   N56       1.0  0.84802  0.98868  0.42532  1.0000
  C   C312      1.0  0.80977  0.96295  0.35231  1.0000
  C   C313      1.0  0.22269  0.19071  0.34919  1.0000
  C   C314      1.0  0.22639  0.17675  0.42979  1.0000
  C   C315      1.0  0.22415  0.18778  0.52117  1.0000
  H   H241      1.0  0.24211  0.20214  0.52935  1.0000
  H   H242      1.0  0.22771  0.17376  0.57362  1.0000
  H   H243      1.0  0.20084  0.19604  0.53069  1.0000
  N   N57       1.0  0.23274  0.15204  0.42185  1.0000
  C   C316      1.0  0.79185  0.82389  0.34912  1.0000
  C   C317      1.0  0.78813  0.83784  0.42971  1.0000
  C   C318      1.0  0.79038  0.82682  0.52109  1.0000
  H   H244      1.0  0.77242  0.81245  0.52927  1.0000
  H   H245      1.0  0.78679  0.84084  0.57353  1.0000
  H   H246      1.0  0.81369  0.81858  0.53063  1.0000
  N   N58       1.0  0.78176  0.86255  0.42176  1.0000
  C   C319      1.0  0.27941  0.64375  0.52735  1.0000
  C   C320      1.0  0.28245  0.65375  0.43457  1.0000
  H   H247      1.0  0.30133  0.64701  0.56436  1.0000
  H   H248      1.0  0.27455  0.62386  0.52840  1.0000
  H   H249      1.0  0.26017  0.65325  0.56225  1.0000
  N   N59       1.0  0.28864  0.67849  0.42655  1.0000
  C   C321      1.0  0.27895  0.63974  0.35388  1.0000
  C   C322      1.0  0.73516  0.37082  0.52745  1.0000
  C   C323      1.0  0.73210  0.36082  0.43467  1.0000
  H   H250      1.0  0.71325  0.36754  0.56450  1.0000
  H   H251      1.0  0.74000  0.39071  0.52850  1.0000
  H   H252      1.0  0.75442  0.36132  0.56229  1.0000
  N   N60       1.0  0.72592  0.33608  0.42662  1.0000
  C   C324      1.0  0.73557  0.37484  0.35398  1.0000
  C   C325      1.0  0.26489  0.27560  0.35000  1.0000
  C   C326      1.0  0.27950  0.28393  0.43074  1.0000
  C   C327      1.0  0.26828  0.27701  0.52203  1.0000
  H   H253      1.0  0.24409  0.28349  0.53159  1.0000
  H   H254      1.0  0.28306  0.28528  0.57457  1.0000
  H   H255      1.0  0.26892  0.25685  0.53000  1.0000
  N   N61       1.0  0.30585  0.29827  0.42290  1.0000
  C   C328      1.0  0.74966  0.73900  0.34995  1.0000
  C   C329      1.0  0.73507  0.73066  0.43067  1.0000
  C   C330      1.0  0.74627  0.73758  0.52197  1.0000
  H   H256      1.0  0.77047  0.73111  0.53155  1.0000
  H   H257      1.0  0.73150  0.72929  0.57450  1.0000
  H   H258      1.0  0.74561  0.75773  0.52997  1.0000
  N   N62       1.0  0.70874  0.71630  0.42280  1.0000
  C   C331      1.0  0.19866  0.80194  0.52623  1.0000
  C   C332      1.0  0.21035  0.79710  0.43359  1.0000
  H   H259      1.0  0.19234  0.78438  0.55842  1.0000
  H   H260      1.0  0.17799  0.81403  0.52726  1.0000
  H   H261      1.0  0.21726  0.81083  0.56582  1.0000
  N   N63       1.0  0.23643  0.78246  0.42571  1.0000
  C   C333      1.0  0.19599  0.80581  0.35284  1.0000
  C   C334      1.0  0.81591  0.21265  0.52626  1.0000
  C   C335      1.0  0.80422  0.21750  0.43362  1.0000
  H   H262      1.0  0.82221  0.23021  0.55846  1.0000
  H   H263      1.0  0.83659  0.20057  0.52730  1.0000
  H   H264      1.0  0.79732  0.20376  0.56583  1.0000
  N   N64       1.0  0.77814  0.23213  0.42573  1.0000
  C   C336      1.0  0.81860  0.20879  0.35287  1.0000
  C   C337      1.0  0.47773  0.25760  0.35053  1.0000
  C   C338      1.0  0.46555  0.26808  0.43121  1.0000
  C   C339      1.0  0.47528  0.25995  0.52259  1.0000
  H   H265      1.0  0.47009  0.24024  0.53138  1.0000
  H   H266      1.0  0.46278  0.27032  0.57504  1.0000
  H   H267      1.0  0.50059  0.26295  0.53147  1.0000
  N   N65       1.0  0.44323  0.28614  0.42322  1.0000
  C   C340      1.0  0.53683  0.75696  0.35056  1.0000
  C   C341      1.0  0.54903  0.74650  0.43125  1.0000
  C   C342      1.0  0.53929  0.75462  0.52261  1.0000
  H   H268      1.0  0.54446  0.77434  0.53139  1.0000
  H   H269      1.0  0.55180  0.74427  0.57508  1.0000
  H   H270      1.0  0.51398  0.75160  0.53149  1.0000
  N   N66       1.0  0.57137  0.72845  0.42328  1.0000
  C   C343      1.0  0.08000  0.79134  0.52603  1.0000
  C   C344      1.0  0.07008  0.78457  0.43330  1.0000
  H   H271      1.0  0.05946  0.79751  0.56457  1.0000
  H   H272      1.0  0.09750  0.80620  0.52709  1.0000
  H   H273      1.0  0.09016  0.77510  0.55933  1.0000
  N   N67       1.0  0.04793  0.76638  0.42526  1.0000
  C   C345      1.0  0.08215  0.79518  0.35252  1.0000
  C   C346      1.0  0.93456  0.22324  0.52605  1.0000
  C   C347      1.0  0.94450  0.22998  0.43332  1.0000
  H   H274      1.0  0.95510  0.21710  0.56466  1.0000
  H   H275      1.0  0.91708  0.20836  0.52713  1.0000
  H   H276      1.0  0.92437  0.23948  0.55926  1.0000
  N   N68       1.0  0.96664  0.24818  0.42527  1.0000
  C   C348      1.0  0.93246  0.21933  0.35258  1.0000
  C   C349      1.0  0.08884  0.28115  0.35105  1.0000
  C   C350      1.0  0.10578  0.27574  0.43136  1.0000
  C   C351      1.0  0.09246  0.27912  0.52298  1.0000
  H   H277      1.0  0.08592  0.29854  0.53299  1.0000
  H   H278      1.0  0.10953  0.27398  0.57510  1.0000
  H   H279      1.0  0.07152  0.26751  0.53116  1.0000
  N   N69       1.0  0.13564  0.26663  0.42292  1.0000
  C   C352      1.0  0.92572  0.73344  0.35099  1.0000
  C   C353      1.0  0.90878  0.73885  0.43132  1.0000
  C   C354      1.0  0.92210  0.73545  0.52293  1.0000
  H   H280      1.0  0.92863  0.71603  0.53294  1.0000
  H   H281      1.0  0.90503  0.74060  0.57507  1.0000
  H   H282      1.0  0.94304  0.74706  0.53113  1.0000
  N   N70       1.0  0.87892  0.74796  0.42289  1.0000
  C   C355      1.0  0.36941  0.76346  0.52656  1.0000
  C   C356      1.0  0.38131  0.76739  0.43358  1.0000
  H   H283      1.0  0.38469  0.75027  0.56162  1.0000
  H   H284      1.0  0.34536  0.75624  0.52799  1.0000
  H   H285      1.0  0.36973  0.78107  0.56315  1.0000
  N   N71       1.0  0.41124  0.77636  0.42499  1.0000
  C   C357      1.0  0.36428  0.76219  0.35313  1.0000
  C   C358      1.0  0.64513  0.25113  0.52657  1.0000
  C   C359      1.0  0.63324  0.24719  0.43359  1.0000
  H   H286      1.0  0.62986  0.26432  0.56162  1.0000
  H   H287      1.0  0.66920  0.25834  0.52801  1.0000
  H   H288      1.0  0.64481  0.23352  0.56319  1.0000
  N   N72       1.0  0.60331  0.23822  0.42500  1.0000
  C   C360      1.0  0.65028  0.25237  0.35314  1.0000
