data_image0
_chemical_formula_structural       NC2N2C2N2C2N2C2NC2NC2NC2NC2N2C2N2C2NC2NC2NC2NC2N2C2N2C2N2C2N2C2NC2NC2NC2NC2NC2NC2NC2NC2NC6H3C6H3C6H3C6H3C6H3C6H3C6H3C6H3C6H3C6H3C6H3C6H3C2NC2NC2NC2NC2NC2NC2NC2N2C2N2C2NC2NC2NC2NC2N2C2N2C2NC2NC2NC2NC2NC2NC2NC2NC2N2C2N2C2N2C2N2C2N2C2N2C2N2C2N2C2NC2NC2NC2NC2N2C2N2C2NC2NC2NC2NC2N2C2N2C2N2C2N2C2NC2NC2NC2NC2NC2NC2NC2NC2NC6H3C6H3C6H3C6H3C6H3C6H3C6H3C6H3C6H3C6H3C6H3C6H3C2NC2NC2NC2NC2NC2NC2NC2N2C2N2C2NC2NC2NC2NC2N2C2N2C2NC2NC2NC2NC2NC2NC2NC2NC2N2C2N2C2N2C2N2C2N
_chemical_formula_sum              "N144 C360 H72"
_cell_length_a       42.776
_cell_length_b       55.4574
_cell_length_c       14.913
_cell_angle_alpha    90
_cell_angle_beta     90
_cell_angle_gamma    90

_space_group_name_H-M_alt    "P 1"
_space_group_IT_number       1

loop_
  _space_group_symop_operation_xyz
  'x, y, z'

loop_
  _atom_site_type_symbol
  _atom_site_label
  _atom_site_symmetry_multiplicity
  _atom_site_fract_x
  _atom_site_fract_y
  _atom_site_fract_z
  _atom_site_occupancy
  N   N1        1.0  0.23429  0.15275  0.34056  1.0000
  C   C1        1.0  0.26572  0.14960  0.32950  1.0000
  C   C2        1.0  0.27381  0.13159  0.27895  1.0000
  N   N2        1.0  0.28068  0.11563  0.23405  1.0000
  N   N3        1.0  0.27363  0.82026  0.26977  1.0000
  C   C3        1.0  0.24297  0.81712  0.25414  1.0000
  C   C4        1.0  0.23656  0.79977  0.19833  1.0000
  N   N4        1.0  0.23145  0.78442  0.14876  1.0000
  N   N5        1.0  0.48451  0.68825  0.29465  1.0000
  C   C5        1.0  0.01556  0.68978  0.28345  1.0000
  C   C6        1.0  0.02446  0.70652  0.22765  1.0000
  N   N6        1.0  0.03218  0.72127  0.17832  1.0000
  N   N7        1.0  0.01950  0.31973  0.27020  1.0000
  C   C7        1.0  0.48848  0.31789  0.25867  1.0000
  C   C8        1.0  0.47982  0.30167  0.20052  1.0000
  N   N8        1.0  0.47232  0.28735  0.14924  1.0000
  C   C9        1.0  0.11119  0.13917  0.36977  1.0000
  C   C10       1.0  0.05897  0.10720  0.36954  1.0000
  N   N9        1.0  0.08769  0.10064  0.33796  1.0000
  C   C11       1.0  0.11380  0.11489  0.33918  1.0000
  C   C12       1.0  0.13803  0.10611  0.29819  1.0000
  N   N10       1.0  0.15924  0.09814  0.26140  1.0000
  C   C13       1.0  0.39593  0.86962  0.37353  1.0000
  C   C14       1.0  0.44890  0.90061  0.38535  1.0000
  N   N11       1.0  0.42189  0.90725  0.34360  1.0000
  C   C15       1.0  0.39536  0.89361  0.33881  1.0000
  C   C16       1.0  0.37357  0.90247  0.28793  1.0000
  N   N12       1.0  0.35456  0.91054  0.24257  1.0000
  N   N13       1.0  0.42242  0.14392  0.26319  1.0000
  C   C17       1.0  0.44788  0.12982  0.25251  1.0000
  C   C18       1.0  0.46924  0.13862  0.19960  1.0000
  N   N14       1.0  0.48798  0.14646  0.15281  1.0000
  N   N15       1.0  0.08340  0.85899  0.27988  1.0000
  C   C19       1.0  0.05803  0.87337  0.27596  1.0000
  C   C20       1.0  0.03485  0.86451  0.22986  1.0000
  N   N16       1.0  0.01451  0.85663  0.18900  1.0000
  C   C21       1.0  0.35630  0.64537  0.34720  1.0000
  C   C22       1.0  0.30970  0.60811  0.35455  1.0000
  N   N17       1.0  0.30521  0.63053  0.32007  1.0000
  C   C23       1.0  0.32556  0.64890  0.31363  1.0000
  C   C24       1.0  0.31455  0.66704  0.26832  1.0000
  N   N18       1.0  0.30389  0.68263  0.22796  1.0000
  C   C25       1.0  0.14696  0.36148  0.34889  1.0000
  C   C26       1.0  0.19419  0.39817  0.35623  1.0000
  N   N19       1.0  0.19867  0.37535  0.32542  1.0000
  C   C27       1.0  0.17804  0.35717  0.31946  1.0000
  C   C28       1.0  0.18876  0.33849  0.27639  1.0000
  N   N20       1.0  0.19845  0.32220  0.23782  1.0000
  N   N21       1.0  0.17147  0.64475  0.29102  1.0000
  C   C29       1.0  0.19683  0.63046  0.28371  1.0000
  C   C30       1.0  0.21852  0.63897  0.23112  1.0000
  N   N22       1.0  0.23749  0.64654  0.18446  1.0000
  N   N23       1.0  0.33158  0.35964  0.29635  1.0000
  C   C31       1.0  0.30622  0.37397  0.29084  1.0000
  C   C32       1.0  0.28408  0.36528  0.24024  1.0000
  N   N24       1.0  0.26475  0.35754  0.19518  1.0000
  N   N25       1.0  0.11813  0.23495  0.29830  1.0000
  C   C33       1.0  0.10978  0.25826  0.28402  1.0000
  C   C34       1.0  0.09815  0.26352  0.20580  1.0000
  N   N26       1.0  0.08796  0.26825  0.13676  1.0000
  N   N27       1.0  0.36232  0.76696  0.29159  1.0000
  C   C35       1.0  0.36749  0.74290  0.28569  1.0000
  C   C36       1.0  0.35641  0.73192  0.21550  1.0000
  N   N28       1.0  0.34702  0.72255  0.15235  1.0000
  C   C37       1.0  0.37136  0.22633  0.32296  1.0000
  C   C38       1.0  0.38270  0.27678  0.32595  1.0000
  N   N29       1.0  0.39709  0.26152  0.26723  1.0000
  C   C39       1.0  0.39259  0.23728  0.26226  1.0000
  C   C40       1.0  0.40711  0.22605  0.19812  1.0000
  N   N30       1.0  0.41999  0.21619  0.14135  1.0000
  C   C41       1.0  0.13483  0.77672  0.31096  1.0000
  C   C42       1.0  0.12270  0.72746  0.33843  1.0000
  N   N31       1.0  0.13468  0.73582  0.25993  1.0000
  C   C43       1.0  0.14156  0.75934  0.24375  1.0000
  C   C44       1.0  0.15226  0.76470  0.16456  1.0000
  N   N32       1.0  0.16135  0.76948  0.09432  1.0000
  C   C45       1.0  0.50662  0.97728  0.33442  1.0000
  C   C46       1.0  0.50464  0.02820  0.33741  1.0000
  N   N33       1.0  0.99899  0.01531  0.26133  1.0000
  C   C47       1.0  0.99956  0.99077  0.25619  1.0000
  C   C48       1.0  0.99411  0.98095  0.17857  1.0000
  N   N34       1.0  0.98952  0.97221  0.11001  1.0000
  C   C49       1.0  0.25194  0.47721  0.35192  1.0000
  C   C50       1.0  0.25320  0.52841  0.36229  1.0000
  N   N35       1.0  0.23507  0.51626  0.30228  1.0000
  C   C51       1.0  0.23336  0.49184  0.29455  1.0000
  C   C52       1.0  0.21579  0.48348  0.23054  1.0000
  N   N36       1.0  0.20033  0.47607  0.17394  1.0000
  C   C53       1.0  0.14247  0.20266  0.37661  1.0000
  C   C54       1.0  0.17475  0.19834  0.37807  1.0000
  C   C55       1.0  0.18754  0.17481  0.37854  1.0000
  C   C56       1.0  0.16636  0.15521  0.36922  1.0000
  C   C57       1.0  0.13334  0.15847  0.37002  1.0000
  C   C58       1.0  0.12223  0.18272  0.37339  1.0000
  H   H1        1.0  0.17528  0.13818  0.37212  1.0000
  H   H2        1.0  0.09877  0.18629  0.37072  1.0000
  H   H3        1.0  0.18910  0.21299  0.37258  1.0000
  C   C59       1.0  0.36369  0.80640  0.35548  1.0000
  C   C60       1.0  0.33225  0.81157  0.33562  1.0000
  C   C61       1.0  0.31990  0.83532  0.33338  1.0000
  C   C62       1.0  0.34124  0.85445  0.34856  1.0000
  C   C63       1.0  0.37358  0.85060  0.36504  1.0000
  C   C64       1.0  0.38377  0.82615  0.37071  1.0000
  H   H4        1.0  0.33300  0.87160  0.34658  1.0000
  H   H5        1.0  0.40700  0.82241  0.37896  1.0000
  H   H6        1.0  0.31746  0.79717  0.32870  1.0000
  C   C65       1.0  0.36216  0.20133  0.32444  1.0000
  C   C66       1.0  0.33065  0.19564  0.34166  1.0000
  C   C67       1.0  0.31880  0.17174  0.34309  1.0000
  C   C68       1.0  0.34060  0.15289  0.32877  1.0000
  C   C69       1.0  0.37303  0.15707  0.31514  1.0000
  C   C70       1.0  0.38277  0.18169  0.31119  1.0000
  H   H7        1.0  0.33256  0.13569  0.32947  1.0000
  H   H8        1.0  0.40601  0.18560  0.30499  1.0000
  H   H9        1.0  0.31535  0.20977  0.34710  1.0000
  C   C71       1.0  0.14463  0.80126  0.30728  1.0000
  C   C72       1.0  0.17675  0.80618  0.30276  1.0000
  C   C73       1.0  0.18884  0.82992  0.30043  1.0000
  C   C74       1.0  0.16722  0.84916  0.31044  1.0000
  C   C75       1.0  0.13431  0.84542  0.31272  1.0000
  C   C76       1.0  0.12384  0.82095  0.31132  1.0000
  H   H10       1.0  0.17572  0.86627  0.30551  1.0000
  H   H11       1.0  0.10050  0.81707  0.31580  1.0000
  H   H12       1.0  0.19164  0.79184  0.30789  1.0000
  C   C77       1.0  0.39437  0.70695  0.35347  1.0000
  C   C78       1.0  0.42592  0.70024  0.34953  1.0000
  C   C79       1.0  0.43589  0.67577  0.34938  1.0000
  C   C80       1.0  0.41229  0.65779  0.35523  1.0000
  C   C81       1.0  0.37985  0.66359  0.35229  1.0000
  C   C82       1.0  0.37186  0.68848  0.35487  1.0000
  H   H13       1.0  0.41873  0.64012  0.35009  1.0000
  H   H14       1.0  0.34921  0.69368  0.36371  1.0000
  H   H15       1.0  0.44206  0.71389  0.34876  1.0000
  C   C83       1.0  0.10826  0.30039  0.34720  1.0000
  C   C84       1.0  0.07720  0.30727  0.33183  1.0000
  C   C85       1.0  0.06734  0.33174  0.33250  1.0000
  C   C86       1.0  0.09071  0.34962  0.34553  1.0000
  C   C87       1.0  0.12299  0.34359  0.35159  1.0000
  C   C88       1.0  0.13054  0.31871  0.35943  1.0000
  H   H16       1.0  0.08458  0.36734  0.33930  1.0000
  H   H17       1.0  0.15273  0.31348  0.37529  1.0000
  H   H18       1.0  0.06101  0.29370  0.32754  1.0000
  C   C89       1.0  0.11250  0.70300  0.34084  1.0000
  C   C90       1.0  0.08031  0.69843  0.34349  1.0000
  C   C91       1.0  0.06762  0.67495  0.33635  1.0000
  C   C92       1.0  0.08885  0.65529  0.34091  1.0000
  C   C93       1.0  0.12184  0.65872  0.33600  1.0000
  C   C94       1.0  0.13273  0.68309  0.33216  1.0000
  H   H19       1.0  0.07993  0.63830  0.33533  1.0000
  H   H20       1.0  0.15618  0.68672  0.32984  1.0000
  H   H21       1.0  0.06573  0.71291  0.35126  1.0000
  C   C95       1.0  0.39225  0.30158  0.32633  1.0000
  C   C96       1.0  0.42431  0.30681  0.32130  1.0000
  C   C97       1.0  0.43630  0.33059  0.31850  1.0000
  C   C98       1.0  0.41483  0.34977  0.33134  1.0000
  C   C99       1.0  0.38195  0.34590  0.33326  1.0000
  C   C100      1.0  0.37155  0.32140  0.32959  1.0000
  H   H22       1.0  0.42325  0.36694  0.32711  1.0000
  H   H23       1.0  0.34815  0.31763  0.33140  1.0000
  H   H24       1.0  0.43950  0.29260  0.32498  1.0000
  C   C101      1.0  0.03222  0.09279  0.35009  1.0000
  C   C102      1.0  0.50392  0.10436  0.32676  1.0000
  C   C103      1.0  0.47555  0.09232  0.30783  1.0000
  C   C104      1.0  0.47603  0.06682  0.31636  1.0000
  C   C105      1.0  0.00427  0.05400  0.33289  1.0000
  C   C106      1.0  0.03229  0.06728  0.34661  1.0000
  H   H25       1.0  0.45578  0.05736  0.30644  1.0000
  H   H26       1.0  0.05257  0.05823  0.36077  1.0000
  H   H27       1.0  0.50393  0.12267  0.32486  1.0000
  C   C107      1.0  0.47670  0.91401  0.36820  1.0000
  C   C108      1.0  0.00491  0.90137  0.35328  1.0000
  C   C109      1.0  0.03362  0.91225  0.32938  1.0000
  C   C110      1.0  0.03425  0.93785  0.33014  1.0000
  C   C111      1.0  0.50632  0.95155  0.33983  1.0000
  C   C112      1.0  0.47763  0.93929  0.35461  1.0000
  H   H28       1.0  0.05474  0.94658  0.31600  1.0000
  H   H29       1.0  0.45753  0.94909  0.36251  1.0000
  H   H30       1.0  0.00443  0.88313  0.35880  1.0000
  C   C113      1.0  0.28232  0.59319  0.35629  1.0000
  C   C114      1.0  0.25278  0.60465  0.35021  1.0000
  C   C115      1.0  0.22376  0.59288  0.33954  1.0000
  C   C116      1.0  0.22438  0.56743  0.34914  1.0000
  C   C117      1.0  0.25289  0.55440  0.35999  1.0000
  C   C118      1.0  0.28140  0.56769  0.36172  1.0000
  H   H31       1.0  0.20376  0.55816  0.34459  1.0000
  H   H32       1.0  0.30197  0.55841  0.36127  1.0000
  H   H33       1.0  0.25209  0.62284  0.36060  1.0000
  C   C119      1.0  0.22179  0.41286  0.35746  1.0000
  C   C120      1.0  0.25116  0.40106  0.35504  1.0000
  C   C121      1.0  0.28043  0.41236  0.34327  1.0000
  C   C122      1.0  0.28032  0.43791  0.34894  1.0000
  C   C123      1.0  0.25190  0.45128  0.35379  1.0000
  C   C124      1.0  0.22315  0.43838  0.35831  1.0000
  H   H34       1.0  0.30104  0.44696  0.34222  1.0000
  H   H35       1.0  0.20281  0.44793  0.35996  1.0000
  H   H36       1.0  0.25150  0.38302  0.36876  1.0000
  C   C125      1.0  0.22052  0.17178  0.38319  1.0000
  C   C126      1.0  0.28618  0.16835  0.35791  1.0000
  N   N37       1.0  0.27216  0.18599  0.40653  1.0000
  C   C127      1.0  0.24146  0.18856  0.42289  1.0000
  C   C128      1.0  0.23482  0.20567  0.47950  1.0000
  N   N38       1.0  0.22958  0.22083  0.52973  1.0000
  C   C129      1.0  0.28725  0.83823  0.31774  1.0000
  C   C130      1.0  0.22168  0.83357  0.29411  1.0000
  N   N39       1.0  0.23498  0.85293  0.33588  1.0000
  C   C131      1.0  0.26632  0.85665  0.34623  1.0000
  C   C132      1.0  0.27403  0.87497  0.39573  1.0000
  N   N40       1.0  0.28053  0.89121  0.43971  1.0000
  C   C133      1.0  0.46853  0.67113  0.34075  1.0000
  C   C134      1.0  0.03469  0.67238  0.32682  1.0000
  N   N41       1.0  0.01911  0.65362  0.36603  1.0000
  C   C135      1.0  0.48727  0.65159  0.37140  1.0000
  C   C136      1.0  0.47665  0.63367  0.41838  1.0000
  N   N42       1.0  0.46747  0.61777  0.46008  1.0000
  C   C137      1.0  0.03490  0.33638  0.32025  1.0000
  C   C138      1.0  0.46896  0.33409  0.30667  1.0000
  N   N43       1.0  0.48400  0.35242  0.35012  1.0000
  C   C139      1.0  0.01573  0.35509  0.35538  1.0000
  C   C140      1.0  0.02578  0.37214  0.40762  1.0000
  N   N44       1.0  0.03450  0.38724  0.45400  1.0000
  N   N45       1.0  0.08303  0.14456  0.40677  1.0000
  C   C141      1.0  0.05756  0.13034  0.41032  1.0000
  C   C142      1.0  0.03471  0.13879  0.45882  1.0000
  N   N46       1.0  0.01465  0.14629  0.50175  1.0000
  N   N47       1.0  0.42223  0.86408  0.42030  1.0000
  C   C143      1.0  0.44782  0.87801  0.43028  1.0000
  C   C144      1.0  0.46867  0.86967  0.48585  1.0000
  N   N48       1.0  0.48697  0.86224  0.53495  1.0000
  C   C145      1.0  0.39555  0.13808  0.30674  1.0000
  C   C146      1.0  0.44819  0.10648  0.29232  1.0000
  N   N49       1.0  0.42073  0.09972  0.33128  1.0000
  C   C147      1.0  0.39446  0.11366  0.33719  1.0000
  C   C148      1.0  0.37229  0.10431  0.38542  1.0000
  N   N50       1.0  0.35295  0.09578  0.42845  1.0000
  C   C149      1.0  0.11197  0.86464  0.31357  1.0000
  C   C150      1.0  0.05995  0.89708  0.31226  1.0000
  N   N51       1.0  0.08900  0.90370  0.34095  1.0000
  C   C151      1.0  0.11493  0.88925  0.34042  1.0000
  C   C152      1.0  0.13941  0.89845  0.37885  1.0000
  N   N52       1.0  0.16083  0.90682  0.41333  1.0000
  N   N53       1.0  0.36225  0.62241  0.37664  1.0000
  C   C153      1.0  0.34126  0.60377  0.37991  1.0000
  C   C154      1.0  0.35118  0.58393  0.41616  1.0000
  N   N54       1.0  0.36033  0.56653  0.44860  1.0000
  N   N55       1.0  0.14101  0.38479  0.37397  1.0000
  C   C155      1.0  0.16239  0.40315  0.37726  1.0000
  C   C156      1.0  0.15231  0.42358  0.40821  1.0000
  N   N56       1.0  0.14299  0.44151  0.43594  1.0000
  C   C157      1.0  0.14403  0.63941  0.33222  1.0000
  C   C158      1.0  0.19649  0.60738  0.32585  1.0000
  N   N57       1.0  0.16831  0.60089  0.36152  1.0000
  C   C159      1.0  0.14213  0.61513  0.36352  1.0000
  C   C160      1.0  0.11863  0.60640  0.40799  1.0000
  N   N58       1.0  0.09803  0.59849  0.44769  1.0000
  C   C161      1.0  0.35955  0.36507  0.33416  1.0000
  C   C162      1.0  0.30729  0.39735  0.33055  1.0000
  N   N59       1.0  0.33589  0.40385  0.36326  1.0000
  C   C163      1.0  0.36194  0.38946  0.36408  1.0000
  C   C164      1.0  0.38597  0.39829  0.40586  1.0000
  N   N60       1.0  0.40704  0.40627  0.44325  1.0000
  C   C165      1.0  0.13152  0.22682  0.37519  1.0000
  C   C166      1.0  0.11635  0.27554  0.35172  1.0000
  N   N61       1.0  0.12994  0.26739  0.42833  1.0000
  C   C167      1.0  0.13795  0.24405  0.44301  1.0000
  C   C168      1.0  0.14996  0.23879  0.52068  1.0000
  N   N62       1.0  0.16017  0.23411  0.58974  1.0000
  C   C169      1.0  0.37373  0.78175  0.35685  1.0000
  C   C170      1.0  0.38612  0.73184  0.35253  1.0000
  N   N63       1.0  0.39813  0.74651  0.41716  1.0000
  C   C171      1.0  0.39299  0.77067  0.42251  1.0000
  C   C172      1.0  0.40473  0.78179  0.49145  1.0000
  N   N64       1.0  0.41512  0.79160  0.55235  1.0000
  N   N65       1.0  0.35709  0.24168  0.38176  1.0000
  C   C173      1.0  0.36144  0.26593  0.38656  1.0000
  C   C174      1.0  0.34689  0.27737  0.45013  1.0000
  N   N66       1.0  0.33403  0.28749  0.50631  1.0000
  N   N67       1.0  0.12273  0.76841  0.38938  1.0000
  C   C175      1.0  0.11590  0.74486  0.40557  1.0000
  C   C176      1.0  0.10438  0.73954  0.48383  1.0000
  N   N68       1.0  0.09422  0.73475  0.55285  1.0000
  N   N69       1.0  0.51196  0.99011  0.41069  1.0000
  C   C177      1.0  0.51165  0.01464  0.41567  1.0000
  C   C178      1.0  0.51633  0.02430  0.49400  1.0000
  N   N70       1.0  0.52023  0.03290  0.56316  1.0000
  N   N71       1.0  0.27011  0.48928  0.41199  1.0000
  C   C179      1.0  0.27178  0.51373  0.41966  1.0000
  C   C180      1.0  0.28911  0.52203  0.48428  1.0000
  N   N72       1.0  0.30432  0.52935  0.54160  1.0000
  N   N73       1.0  0.73429  0.15275  0.34056  1.0000
  C   C181      1.0  0.76572  0.14960  0.32950  1.0000
  C   C182      1.0  0.77381  0.13159  0.27895  1.0000
  N   N74       1.0  0.78068  0.11563  0.23405  1.0000
  N   N75       1.0  0.77363  0.82026  0.26977  1.0000
  C   C183      1.0  0.74297  0.81712  0.25414  1.0000
  C   C184      1.0  0.73656  0.79977  0.19833  1.0000
  N   N76       1.0  0.73145  0.78442  0.14876  1.0000
  N   N77       1.0  0.98451  0.68825  0.29465  1.0000
  C   C185      1.0  0.51556  0.68978  0.28345  1.0000
  C   C186      1.0  0.52446  0.70652  0.22765  1.0000
  N   N78       1.0  0.53218  0.72127  0.17832  1.0000
  N   N79       1.0  0.51950  0.31973  0.27020  1.0000
  C   C187      1.0  0.98848  0.31789  0.25867  1.0000
  C   C188      1.0  0.97982  0.30167  0.20052  1.0000
  N   N80       1.0  0.97232  0.28735  0.14924  1.0000
  C   C189      1.0  0.61119  0.13917  0.36977  1.0000
  C   C190      1.0  0.55897  0.10720  0.36954  1.0000
  N   N81       1.0  0.58769  0.10064  0.33796  1.0000
  C   C191      1.0  0.61380  0.11489  0.33918  1.0000
  C   C192      1.0  0.63803  0.10611  0.29819  1.0000
  N   N82       1.0  0.65924  0.09814  0.26140  1.0000
  C   C193      1.0  0.89593  0.86962  0.37353  1.0000
  C   C194      1.0  0.94890  0.90061  0.38535  1.0000
  N   N83       1.0  0.92189  0.90725  0.34360  1.0000
  C   C195      1.0  0.89536  0.89361  0.33881  1.0000
  C   C196      1.0  0.87357  0.90247  0.28793  1.0000
  N   N84       1.0  0.85456  0.91054  0.24257  1.0000
  N   N85       1.0  0.92242  0.14392  0.26319  1.0000
  C   C197      1.0  0.94788  0.12982  0.25251  1.0000
  C   C198      1.0  0.96924  0.13862  0.19960  1.0000
  N   N86       1.0  0.98799  0.14646  0.15281  1.0000
  N   N87       1.0  0.58339  0.85899  0.27988  1.0000
  C   C199      1.0  0.55802  0.87337  0.27596  1.0000
  C   C200      1.0  0.53485  0.86451  0.22986  1.0000
  N   N88       1.0  0.51451  0.85663  0.18900  1.0000
  C   C201      1.0  0.85630  0.64537  0.34720  1.0000
  C   C202      1.0  0.80970  0.60811  0.35455  1.0000
  N   N89       1.0  0.80521  0.63053  0.32007  1.0000
  C   C203      1.0  0.82556  0.64890  0.31363  1.0000
  C   C204      1.0  0.81454  0.66704  0.26832  1.0000
  N   N90       1.0  0.80389  0.68263  0.22796  1.0000
  C   C205      1.0  0.64696  0.36148  0.34889  1.0000
  C   C206      1.0  0.69419  0.39817  0.35623  1.0000
  N   N91       1.0  0.69866  0.37535  0.32542  1.0000
  C   C207      1.0  0.67804  0.35717  0.31946  1.0000
  C   C208      1.0  0.68876  0.33849  0.27639  1.0000
  N   N92       1.0  0.69845  0.32220  0.23782  1.0000
  N   N93       1.0  0.67147  0.64475  0.29102  1.0000
  C   C209      1.0  0.69683  0.63046  0.28371  1.0000
  C   C210      1.0  0.71852  0.63897  0.23112  1.0000
  N   N94       1.0  0.73748  0.64654  0.18446  1.0000
  N   N95       1.0  0.83158  0.35964  0.29635  1.0000
  C   C211      1.0  0.80622  0.37397  0.29084  1.0000
  C   C212      1.0  0.78408  0.36528  0.24024  1.0000
  N   N96       1.0  0.76475  0.35754  0.19518  1.0000
  N   N97       1.0  0.61813  0.23495  0.29830  1.0000
  C   C213      1.0  0.60978  0.25826  0.28402  1.0000
  C   C214      1.0  0.59815  0.26352  0.20580  1.0000
  N   N98       1.0  0.58796  0.26825  0.13676  1.0000
  N   N99       1.0  0.86232  0.76696  0.29159  1.0000
  C   C215      1.0  0.86749  0.74290  0.28569  1.0000
  C   C216      1.0  0.85641  0.73192  0.21550  1.0000
  N   N100      1.0  0.84701  0.72255  0.15235  1.0000
  C   C217      1.0  0.87136  0.22633  0.32296  1.0000
  C   C218      1.0  0.88270  0.27678  0.32595  1.0000
  N   N101      1.0  0.89709  0.26152  0.26723  1.0000
  C   C219      1.0  0.89259  0.23728  0.26226  1.0000
  C   C220      1.0  0.90711  0.22605  0.19812  1.0000
  N   N102      1.0  0.91999  0.21619  0.14135  1.0000
  C   C221      1.0  0.63483  0.77672  0.31096  1.0000
  C   C222      1.0  0.62270  0.72746  0.33843  1.0000
  N   N103      1.0  0.63468  0.73582  0.25993  1.0000
  C   C223      1.0  0.64156  0.75934  0.24375  1.0000
  C   C224      1.0  0.65226  0.76470  0.16456  1.0000
  N   N104      1.0  0.66135  0.76948  0.09432  1.0000
  C   C225      1.0  0.00662  0.97728  0.33442  1.0000
  C   C226      1.0  0.00464  0.02820  0.33741  1.0000
  N   N105      1.0  0.49899  0.01531  0.26133  1.0000
  C   C227      1.0  0.49956  0.99077  0.25619  1.0000
  C   C228      1.0  0.49411  0.98095  0.17857  1.0000
  N   N106      1.0  0.48953  0.97221  0.11001  1.0000
  C   C229      1.0  0.75194  0.47721  0.35192  1.0000
  C   C230      1.0  0.75320  0.52841  0.36229  1.0000
  N   N107      1.0  0.73507  0.51626  0.30228  1.0000
  C   C231      1.0  0.73336  0.49184  0.29455  1.0000
  C   C232      1.0  0.71579  0.48348  0.23054  1.0000
  N   N108      1.0  0.70033  0.47607  0.17394  1.0000
  C   C233      1.0  0.64247  0.20266  0.37661  1.0000
  C   C234      1.0  0.67475  0.19834  0.37807  1.0000
  C   C235      1.0  0.68754  0.17481  0.37854  1.0000
  C   C236      1.0  0.66636  0.15521  0.36922  1.0000
  C   C237      1.0  0.63334  0.15847  0.37002  1.0000
  C   C238      1.0  0.62223  0.18272  0.37339  1.0000
  H   H37       1.0  0.67528  0.13818  0.37212  1.0000
  H   H38       1.0  0.59877  0.18629  0.37072  1.0000
  H   H39       1.0  0.68910  0.21299  0.37258  1.0000
  C   C239      1.0  0.86369  0.80640  0.35548  1.0000
  C   C240      1.0  0.83225  0.81157  0.33562  1.0000
  C   C241      1.0  0.81990  0.83532  0.33338  1.0000
  C   C242      1.0  0.84124  0.85445  0.34856  1.0000
  C   C243      1.0  0.87358  0.85060  0.36504  1.0000
  C   C244      1.0  0.88377  0.82615  0.37071  1.0000
  H   H40       1.0  0.83300  0.87160  0.34658  1.0000
  H   H41       1.0  0.90701  0.82241  0.37896  1.0000
  H   H42       1.0  0.81745  0.79717  0.32870  1.0000
  C   C245      1.0  0.86216  0.20133  0.32444  1.0000
  C   C246      1.0  0.83065  0.19564  0.34166  1.0000
  C   C247      1.0  0.81880  0.17174  0.34309  1.0000
  C   C248      1.0  0.84060  0.15289  0.32877  1.0000
  C   C249      1.0  0.87303  0.15707  0.31514  1.0000
  C   C250      1.0  0.88277  0.18169  0.31119  1.0000
  H   H43       1.0  0.83256  0.13569  0.32947  1.0000
  H   H44       1.0  0.90601  0.18560  0.30499  1.0000
  H   H45       1.0  0.81536  0.20977  0.34710  1.0000
  C   C251      1.0  0.64463  0.80126  0.30728  1.0000
  C   C252      1.0  0.67675  0.80618  0.30276  1.0000
  C   C253      1.0  0.68884  0.82992  0.30043  1.0000
  C   C254      1.0  0.66722  0.84916  0.31044  1.0000
  C   C255      1.0  0.63431  0.84542  0.31272  1.0000
  C   C256      1.0  0.62384  0.82095  0.31132  1.0000
  H   H46       1.0  0.67572  0.86627  0.30551  1.0000
  H   H47       1.0  0.60050  0.81707  0.31580  1.0000
  H   H48       1.0  0.69164  0.79184  0.30789  1.0000
  C   C257      1.0  0.89437  0.70695  0.35347  1.0000
  C   C258      1.0  0.92592  0.70024  0.34953  1.0000
  C   C259      1.0  0.93589  0.67577  0.34938  1.0000
  C   C260      1.0  0.91229  0.65779  0.35523  1.0000
  C   C261      1.0  0.87985  0.66359  0.35229  1.0000
  C   C262      1.0  0.87186  0.68848  0.35487  1.0000
  H   H49       1.0  0.91873  0.64012  0.35009  1.0000
  H   H50       1.0  0.84921  0.69368  0.36371  1.0000
  H   H51       1.0  0.94206  0.71389  0.34876  1.0000
  C   C263      1.0  0.60826  0.30039  0.34720  1.0000
  C   C264      1.0  0.57720  0.30727  0.33183  1.0000
  C   C265      1.0  0.56734  0.33174  0.33250  1.0000
  C   C266      1.0  0.59071  0.34962  0.34553  1.0000
  C   C267      1.0  0.62299  0.34359  0.35159  1.0000
  C   C268      1.0  0.63053  0.31871  0.35943  1.0000
  H   H52       1.0  0.58458  0.36734  0.33930  1.0000
  H   H53       1.0  0.65273  0.31348  0.37529  1.0000
  H   H54       1.0  0.56101  0.29370  0.32754  1.0000
  C   C269      1.0  0.61250  0.70300  0.34084  1.0000
  C   C270      1.0  0.58031  0.69843  0.34349  1.0000
  C   C271      1.0  0.56762  0.67495  0.33635  1.0000
  C   C272      1.0  0.58885  0.65529  0.34091  1.0000
  C   C273      1.0  0.62184  0.65872  0.33600  1.0000
  C   C274      1.0  0.63273  0.68309  0.33216  1.0000
  H   H55       1.0  0.57993  0.63830  0.33533  1.0000
  H   H56       1.0  0.65617  0.68672  0.32984  1.0000
  H   H57       1.0  0.56573  0.71291  0.35126  1.0000
  C   C275      1.0  0.89225  0.30158  0.32633  1.0000
  C   C276      1.0  0.92431  0.30681  0.32130  1.0000
  C   C277      1.0  0.93630  0.33059  0.31850  1.0000
  C   C278      1.0  0.91483  0.34977  0.33134  1.0000
  C   C279      1.0  0.88195  0.34590  0.33326  1.0000
  C   C280      1.0  0.87155  0.32140  0.32959  1.0000
  H   H58       1.0  0.92325  0.36694  0.32711  1.0000
  H   H59       1.0  0.84815  0.31763  0.33140  1.0000
  H   H60       1.0  0.93950  0.29260  0.32498  1.0000
  C   C281      1.0  0.53222  0.09279  0.35009  1.0000
  C   C282      1.0  0.00392  0.10436  0.32676  1.0000
  C   C283      1.0  0.97555  0.09232  0.30783  1.0000
  C   C284      1.0  0.97603  0.06682  0.31636  1.0000
  C   C285      1.0  0.50427  0.05400  0.33289  1.0000
  C   C286      1.0  0.53229  0.06728  0.34661  1.0000
  H   H61       1.0  0.95578  0.05736  0.30644  1.0000
  H   H62       1.0  0.55257  0.05823  0.36077  1.0000
  H   H63       1.0  0.00393  0.12267  0.32486  1.0000
  C   C287      1.0  0.97669  0.91401  0.36820  1.0000
  C   C288      1.0  0.50491  0.90137  0.35328  1.0000
  C   C289      1.0  0.53363  0.91225  0.32938  1.0000
  C   C290      1.0  0.53425  0.93785  0.33014  1.0000
  C   C291      1.0  0.00632  0.95155  0.33983  1.0000
  C   C292      1.0  0.97763  0.93929  0.35461  1.0000
  H   H64       1.0  0.55473  0.94658  0.31600  1.0000
  H   H65       1.0  0.95753  0.94909  0.36251  1.0000
  H   H66       1.0  0.50443  0.88313  0.35880  1.0000
  C   C293      1.0  0.78232  0.59319  0.35629  1.0000
  C   C294      1.0  0.75278  0.60465  0.35021  1.0000
  C   C295      1.0  0.72376  0.59288  0.33954  1.0000
  C   C296      1.0  0.72438  0.56743  0.34914  1.0000
  C   C297      1.0  0.75289  0.55440  0.35999  1.0000
  C   C298      1.0  0.78140  0.56769  0.36172  1.0000
  H   H67       1.0  0.70376  0.55816  0.34459  1.0000
  H   H68       1.0  0.80197  0.55841  0.36127  1.0000
  H   H69       1.0  0.75209  0.62284  0.36060  1.0000
  C   C299      1.0  0.72179  0.41286  0.35746  1.0000
  C   C300      1.0  0.75116  0.40106  0.35504  1.0000
  C   C301      1.0  0.78043  0.41236  0.34327  1.0000
  C   C302      1.0  0.78032  0.43791  0.34894  1.0000
  C   C303      1.0  0.75190  0.45128  0.35379  1.0000
  C   C304      1.0  0.72315  0.43838  0.35831  1.0000
  H   H70       1.0  0.80104  0.44696  0.34222  1.0000
  H   H71       1.0  0.70281  0.44793  0.35996  1.0000
  H   H72       1.0  0.75150  0.38302  0.36876  1.0000
  C   C305      1.0  0.72052  0.17178  0.38319  1.0000
  C   C306      1.0  0.78618  0.16835  0.35791  1.0000
  N   N109      1.0  0.77215  0.18599  0.40653  1.0000
  C   C307      1.0  0.74146  0.18856  0.42289  1.0000
  C   C308      1.0  0.73482  0.20567  0.47950  1.0000
  N   N110      1.0  0.72958  0.22083  0.52973  1.0000
  C   C309      1.0  0.78725  0.83823  0.31774  1.0000
  C   C310      1.0  0.72167  0.83357  0.29411  1.0000
  N   N111      1.0  0.73498  0.85293  0.33588  1.0000
  C   C311      1.0  0.76632  0.85665  0.34623  1.0000
  C   C312      1.0  0.77403  0.87497  0.39573  1.0000
  N   N112      1.0  0.78053  0.89121  0.43971  1.0000
  C   C313      1.0  0.96853  0.67113  0.34075  1.0000
  C   C314      1.0  0.53469  0.67238  0.32682  1.0000
  N   N113      1.0  0.51911  0.65362  0.36603  1.0000
  C   C315      1.0  0.98727  0.65159  0.37140  1.0000
  C   C316      1.0  0.97665  0.63367  0.41838  1.0000
  N   N114      1.0  0.96747  0.61777  0.46008  1.0000
  C   C317      1.0  0.53489  0.33638  0.32025  1.0000
  C   C318      1.0  0.96896  0.33409  0.30667  1.0000
  N   N115      1.0  0.98400  0.35242  0.35012  1.0000
  C   C319      1.0  0.51573  0.35509  0.35538  1.0000
  C   C320      1.0  0.52578  0.37214  0.40762  1.0000
  N   N116      1.0  0.53450  0.38724  0.45400  1.0000
  N   N117      1.0  0.58302  0.14456  0.40677  1.0000
  C   C321      1.0  0.55756  0.13034  0.41032  1.0000
  C   C322      1.0  0.53471  0.13879  0.45882  1.0000
  N   N118      1.0  0.51465  0.14629  0.50175  1.0000
  N   N119      1.0  0.92223  0.86408  0.42030  1.0000
  C   C323      1.0  0.94782  0.87801  0.43028  1.0000
  C   C324      1.0  0.96867  0.86967  0.48585  1.0000
  N   N120      1.0  0.98697  0.86224  0.53495  1.0000
  C   C325      1.0  0.89555  0.13808  0.30674  1.0000
  C   C326      1.0  0.94819  0.10648  0.29232  1.0000
  N   N121      1.0  0.92072  0.09972  0.33128  1.0000
  C   C327      1.0  0.89446  0.11366  0.33719  1.0000
  C   C328      1.0  0.87228  0.10431  0.38542  1.0000
  N   N122      1.0  0.85295  0.09578  0.42845  1.0000
  C   C329      1.0  0.61196  0.86464  0.31357  1.0000
  C   C330      1.0  0.55995  0.89708  0.31226  1.0000
  N   N123      1.0  0.58899  0.90370  0.34095  1.0000
  C   C331      1.0  0.61493  0.88925  0.34042  1.0000
  C   C332      1.0  0.63941  0.89845  0.37885  1.0000
  N   N124      1.0  0.66083  0.90682  0.41333  1.0000
  N   N125      1.0  0.86225  0.62241  0.37664  1.0000
  C   C333      1.0  0.84126  0.60377  0.37991  1.0000
  C   C334      1.0  0.85117  0.58393  0.41616  1.0000
  N   N126      1.0  0.86033  0.56653  0.44860  1.0000
  N   N127      1.0  0.64101  0.38479  0.37397  1.0000
  C   C335      1.0  0.66239  0.40315  0.37726  1.0000
  C   C336      1.0  0.65231  0.42358  0.40821  1.0000
  N   N128      1.0  0.64299  0.44151  0.43594  1.0000
  C   C337      1.0  0.64403  0.63941  0.33222  1.0000
  C   C338      1.0  0.69649  0.60738  0.32585  1.0000
  N   N129      1.0  0.66831  0.60089  0.36152  1.0000
  C   C339      1.0  0.64212  0.61513  0.36352  1.0000
  C   C340      1.0  0.61863  0.60640  0.40799  1.0000
  N   N130      1.0  0.59803  0.59849  0.44769  1.0000
  C   C341      1.0  0.85954  0.36507  0.33416  1.0000
  C   C342      1.0  0.80729  0.39735  0.33055  1.0000
  N   N131      1.0  0.83589  0.40385  0.36326  1.0000
  C   C343      1.0  0.86194  0.38946  0.36408  1.0000
  C   C344      1.0  0.88597  0.39829  0.40586  1.0000
  N   N132      1.0  0.90704  0.40627  0.44325  1.0000
  C   C345      1.0  0.63152  0.22682  0.37519  1.0000
  C   C346      1.0  0.61635  0.27554  0.35172  1.0000
  N   N133      1.0  0.62993  0.26739  0.42833  1.0000
  C   C347      1.0  0.63794  0.24405  0.44301  1.0000
  C   C348      1.0  0.64996  0.23879  0.52068  1.0000
  N   N134      1.0  0.66017  0.23411  0.58974  1.0000
  C   C349      1.0  0.87373  0.78175  0.35685  1.0000
  C   C350      1.0  0.88612  0.73184  0.35253  1.0000
  N   N135      1.0  0.89813  0.74651  0.41716  1.0000
  C   C351      1.0  0.89299  0.77067  0.42251  1.0000
  C   C352      1.0  0.90473  0.78179  0.49145  1.0000
  N   N136      1.0  0.91512  0.79160  0.55235  1.0000
  N   N137      1.0  0.85709  0.24168  0.38176  1.0000
  C   C353      1.0  0.86144  0.26593  0.38656  1.0000
  C   C354      1.0  0.84689  0.27737  0.45013  1.0000
  N   N138      1.0  0.83403  0.28749  0.50631  1.0000
  N   N139      1.0  0.62273  0.76841  0.38938  1.0000
  C   C355      1.0  0.61590  0.74486  0.40557  1.0000
  C   C356      1.0  0.60438  0.73954  0.48383  1.0000
  N   N140      1.0  0.59422  0.73475  0.55285  1.0000
  N   N141      1.0  0.01196  0.99011  0.41069  1.0000
  C   C357      1.0  0.01166  0.01464  0.41567  1.0000
  C   C358      1.0  0.01633  0.02430  0.49400  1.0000
  N   N142      1.0  0.02023  0.03290  0.56316  1.0000
  N   N143      1.0  0.77011  0.48928  0.41199  1.0000
  C   C359      1.0  0.77178  0.51373  0.41966  1.0000
  C   C360      1.0  0.78911  0.52203  0.48428  1.0000
  N   N144      1.0  0.80432  0.52935  0.54160  1.0000
