data_image0
_chemical_formula_structural       C8H7NC8H7NC8H7NC8H7NC8H7NC8H7NC7H3NH2CHC7H3NH2CHC7H3NH2CHC2H2C3HNH2CHC2H2C3HNH2CHC2H2C3HNH2CHC2H2C3HNH2CHC2H2C3HNH2CHC2H2C3HNH2CHC10H5C6H3N2C10H5C6H3N2C10H5C6H3N2C10H5C6H3N2C10H5C6H3N2C10H5C6H3N2C2H2C3HNH2CHC2H2C3HNH2CHC2H2C3HNH2CHC7H3NH2CHC7H3NH2CHC7H3NH2CHC7H3NH2CHC7H3NH2CHC7H3NH2CH
_chemical_formula_sum              "C270 H198 N36"
_cell_length_a       91.8648
_cell_length_b       91.8648
_cell_length_c       14.986
_cell_angle_alpha    90
_cell_angle_beta     90
_cell_angle_gamma    120

_space_group_name_H-M_alt    "P 1"
_space_group_IT_number       1

loop_
  _space_group_symop_operation_xyz
  'x, y, z'

loop_
  _atom_site_type_symbol
  _atom_site_label
  _atom_site_symmetry_multiplicity
  _atom_site_fract_x
  _atom_site_fract_y
  _atom_site_fract_z
  _atom_site_occupancy
  C   C1        1.0  0.12531  0.56235  0.33424  1.0000
  C   C2        1.0  0.18715  0.54289  0.29377  1.0000
  C   C3        1.0  0.17668  0.55002  0.29249  1.0000
  C   C4        1.0  0.11635  0.54812  0.27866  1.0000
  C   C5        1.0  0.09866  0.53935  0.27622  1.0000
  C   C6        1.0  0.08937  0.54455  0.32943  1.0000
  C   C7        1.0  0.20272  0.64262  0.26695  1.0000
  C   C8        1.0  0.19270  0.62500  0.26523  1.0000
  H   H1        1.0  0.18493  0.53362  0.24901  1.0000
  H   H2        1.0  0.16724  0.54579  0.24616  1.0000
  H   H3        1.0  0.12264  0.54418  0.23784  1.0000
  H   H4        1.0  0.09266  0.52913  0.23526  1.0000
  H   H5        1.0  0.21287  0.64833  0.22506  1.0000
  H   H6        1.0  0.19577  0.61842  0.22141  1.0000
  H   H7        1.0  0.14566  0.59557  0.32336  1.0000
  N   N1        1.0  0.07265  0.53695  0.33038  1.0000
  C   C9        1.0  0.43882  0.56319  0.33422  1.0000
  C   C10       1.0  0.45827  0.64450  0.29371  1.0000
  C   C11       1.0  0.45114  0.62689  0.29237  1.0000
  C   C12       1.0  0.45306  0.56847  0.27867  1.0000
  C   C13       1.0  0.46182  0.55955  0.27620  1.0000
  C   C14       1.0  0.45662  0.54505  0.32943  1.0000
  C   C15       1.0  0.35855  0.56033  0.26696  1.0000
  C   C16       1.0  0.37617  0.56793  0.26525  1.0000
  H   H8        1.0  0.46755  0.65155  0.24897  1.0000
  H   H9        1.0  0.45537  0.62168  0.24610  1.0000
  H   H10       1.0  0.45698  0.57869  0.23780  1.0000
  H   H11       1.0  0.47204  0.56376  0.23523  1.0000
  H   H12       1.0  0.35284  0.56477  0.22506  1.0000
  H   H13       1.0  0.38275  0.57759  0.22140  1.0000
  H   H14       1.0  0.40560  0.55033  0.32337  1.0000
  N   N2        1.0  0.46422  0.53593  0.33037  1.0000
  C   C17       1.0  0.43797  0.87586  0.33423  1.0000
  C   C18       1.0  0.35668  0.81400  0.29371  1.0000
  C   C19       1.0  0.37428  0.82449  0.29247  1.0000
  C   C20       1.0  0.43268  0.88482  0.27869  1.0000
  C   C21       1.0  0.44160  0.90251  0.27623  1.0000
  C   C22       1.0  0.45609  0.91181  0.32949  1.0000
  C   C23       1.0  0.44086  0.79847  0.26687  1.0000
  C   C24       1.0  0.43326  0.80849  0.26514  1.0000
  H   H15       1.0  0.34962  0.81623  0.24898  1.0000
  H   H16       1.0  0.37949  0.83393  0.24614  1.0000
  H   H17       1.0  0.42247  0.87853  0.23780  1.0000
  H   H18       1.0  0.43738  0.90851  0.23527  1.0000
  H   H19       1.0  0.43642  0.78833  0.22497  1.0000
  H   H20       1.0  0.42360  0.80542  0.22134  1.0000
  H   H21       1.0  0.45085  0.85552  0.32338  1.0000
  N   N3        1.0  0.46520  0.92853  0.33044  1.0000
  C   C25       1.0  0.87609  0.43899  0.32605  1.0000
  C   C26       1.0  0.81397  0.45794  0.29137  1.0000
  C   C27       1.0  0.82446  0.45083  0.28912  1.0000
  C   C28       1.0  0.88467  0.45264  0.26633  1.0000
  C   C29       1.0  0.90235  0.46175  0.26302  1.0000
  C   C30       1.0  0.91190  0.45773  0.32103  1.0000
  C   C31       1.0  0.79873  0.35840  0.26559  1.0000
  C   C32       1.0  0.80875  0.37601  0.26326  1.0000
  H   H22       1.0  0.81601  0.46711  0.24624  1.0000
  H   H23       1.0  0.83374  0.45500  0.24192  1.0000
  H   H24       1.0  0.87810  0.45585  0.22314  1.0000
  H   H25       1.0  0.90821  0.47143  0.21850  1.0000
  H   H26       1.0  0.78847  0.35266  0.22444  1.0000
  H   H27       1.0  0.80557  0.38256  0.21973  1.0000
  H   H28       1.0  0.85596  0.40568  0.31833  1.0000
  N   N4        1.0  0.92852  0.46626  0.31490  1.0000
  C   C33       1.0  0.56218  0.43733  0.32608  1.0000
  C   C34       1.0  0.54322  0.35626  0.29136  1.0000
  C   C35       1.0  0.55032  0.37385  0.28915  1.0000
  C   C36       1.0  0.54852  0.43226  0.26642  1.0000
  C   C37       1.0  0.53941  0.44083  0.26312  1.0000
  C   C38       1.0  0.54344  0.45441  0.32109  1.0000
  C   C39       1.0  0.64276  0.44054  0.26567  1.0000
  C   C40       1.0  0.62515  0.43295  0.26333  1.0000
  H   H29       1.0  0.53403  0.34913  0.24633  1.0000
  H   H30       1.0  0.54615  0.37897  0.24198  1.0000
  H   H31       1.0  0.54530  0.42247  0.22330  1.0000
  H   H32       1.0  0.52972  0.43699  0.21866  1.0000
  H   H33       1.0  0.64851  0.43603  0.22448  1.0000
  H   H34       1.0  0.61861  0.42324  0.21976  1.0000
  H   H35       1.0  0.59550  0.45051  0.31834  1.0000
  N   N5        1.0  0.53492  0.46251  0.31493  1.0000
  C   C41       1.0  0.56383  0.12509  0.32610  1.0000
  C   C42       1.0  0.64491  0.18720  0.29133  1.0000
  C   C43       1.0  0.62732  0.17672  0.28907  1.0000
  C   C44       1.0  0.56893  0.11650  0.26653  1.0000
  C   C45       1.0  0.56034  0.09882  0.26318  1.0000
  C   C46       1.0  0.54675  0.08927  0.32109  1.0000
  C   C47       1.0  0.56063  0.20247  0.26572  1.0000
  C   C48       1.0  0.56822  0.19244  0.26339  1.0000
  H   H36       1.0  0.65204  0.18514  0.24632  1.0000
  H   H37       1.0  0.62219  0.16742  0.24195  1.0000
  H   H38       1.0  0.57871  0.12307  0.22339  1.0000
  H   H39       1.0  0.56418  0.09295  0.21873  1.0000
  H   H40       1.0  0.56514  0.21271  0.22450  1.0000
  H   H41       1.0  0.57793  0.19561  0.21979  1.0000
  H   H42       1.0  0.55066  0.14522  0.31837  1.0000
  N   N6        1.0  0.53864  0.07265  0.31491  1.0000
  C   C49       1.0  0.04445  0.52129  0.28700  1.0000
  C   C50       1.0  0.03372  0.51898  0.21408  1.0000
  C   C51       1.0  0.01618  0.51223  0.22495  1.0000
  C   C52       1.0  0.00918  0.50747  0.31211  1.0000
  C   C53       1.0  0.99162  0.49988  0.32857  1.0000
  C   C54       1.0  0.98127  0.48291  0.30293  1.0000
  C   C55       1.0  0.96384  0.47457  0.31765  1.0000
  H   H43       1.0  0.98636  0.47642  0.27340  1.0000
  H   H44       1.0  0.95675  0.46224  0.29890  1.0000
  H   H45       1.0  0.03880  0.52240  0.15143  1.0000
  N   N7        1.0  0.00673  0.51071  0.15175  1.0000
  H   H46       1.0  0.01181  0.51421  0.09293  1.0000
  H   H47       1.0  0.99475  0.50663  0.15595  1.0000
  C   C56       1.0  0.06151  0.52765  0.27247  1.0000
  H   H48       1.0  0.06518  0.52554  0.21380  1.0000
  C   C57       1.0  0.47988  0.52339  0.28701  1.0000
  C   C58       1.0  0.48218  0.51496  0.21410  1.0000
  C   C59       1.0  0.48893  0.50417  0.22498  1.0000
  C   C60       1.0  0.49369  0.50194  0.31214  1.0000
  C   C61       1.0  0.50128  0.49196  0.32863  1.0000
  C   C62       1.0  0.51825  0.49859  0.30306  1.0000
  C   C63       1.0  0.52658  0.48949  0.31773  1.0000
  H   H49       1.0  0.52475  0.51018  0.27358  1.0000
  H   H50       1.0  0.53892  0.49473  0.29903  1.0000
  H   H51       1.0  0.47876  0.51662  0.15145  1.0000
  N   N8        1.0  0.49045  0.49625  0.15179  1.0000
  H   H52       1.0  0.48700  0.49786  0.09293  1.0000
  H   H53       1.0  0.49458  0.48838  0.15594  1.0000
  C   C64       1.0  0.47351  0.53409  0.27247  1.0000
  H   H54       1.0  0.47563  0.53987  0.21381  1.0000
  C   C65       1.0  0.47774  0.95673  0.28710  1.0000
  C   C66       1.0  0.48617  0.96745  0.21417  1.0000
  C   C67       1.0  0.49697  0.98499  0.22502  1.0000
  C   C68       1.0  0.49921  0.99199  0.31217  1.0000
  C   C69       1.0  0.50921  0.00955  0.32861  1.0000
  C   C70       1.0  0.50259  0.01991  0.30308  1.0000
  C   C71       1.0  0.51169  0.03734  0.31774  1.0000
  H   H55       1.0  0.49099  0.01482  0.27366  1.0000
  H   H56       1.0  0.50646  0.04444  0.29907  1.0000
  H   H57       1.0  0.48450  0.96237  0.15153  1.0000
  N   N9        1.0  0.50490  0.99443  0.15181  1.0000
  H   H58       1.0  0.50331  0.98935  0.09300  1.0000
  H   H59       1.0  0.51280  0.00641  0.15599  1.0000
  C   C72       1.0  0.46702  0.93967  0.27261  1.0000
  H   H60       1.0  0.46125  0.93600  0.21391  1.0000
  C   C73       1.0  0.28246  0.53030  0.27937  1.0000
  C   C74       1.0  0.29817  0.53125  0.28499  1.0000
  H   H61       1.0  0.27862  0.53234  0.21880  1.0000
  H   H62       1.0  0.30525  0.53384  0.22825  1.0000
  C   C75       1.0  0.22815  0.53101  0.32710  1.0000
  C   C76       1.0  0.22809  0.51627  0.29885  1.0000
  C   C77       1.0  0.24234  0.51425  0.30812  1.0000
  H   H63       1.0  0.21739  0.50672  0.27069  1.0000
  N   N10       1.0  0.24128  0.49965  0.28018  1.0000
  H   H64       1.0  0.25060  0.49756  0.28672  1.0000
  H   H65       1.0  0.23097  0.49065  0.25436  1.0000
  C   C78       1.0  0.21402  0.53266  0.31397  1.0000
  H   H66       1.0  0.20519  0.52498  0.27150  1.0000
  C   C79       1.0  0.47087  0.75239  0.27937  1.0000
  C   C80       1.0  0.46992  0.76716  0.28495  1.0000
  H   H67       1.0  0.46883  0.74651  0.21881  1.0000
  H   H68       1.0  0.46736  0.77166  0.22818  1.0000
  C   C81       1.0  0.47015  0.69738  0.32711  1.0000
  C   C82       1.0  0.48490  0.71206  0.29892  1.0000
  C   C83       1.0  0.48690  0.72833  0.30819  1.0000
  H   H69       1.0  0.49445  0.71091  0.27077  1.0000
  N   N11       1.0  0.50151  0.74187  0.28028  1.0000
  H   H70       1.0  0.50359  0.75328  0.28677  1.0000
  H   H71       1.0  0.51051  0.74057  0.25439  1.0000
  C   C84       1.0  0.46851  0.68160  0.31400  1.0000
  H   H72       1.0  0.47620  0.68045  0.27165  1.0000
  C   C85       1.0  0.24877  0.71872  0.27939  1.0000
  C   C86       1.0  0.23401  0.70300  0.28499  1.0000
  H   H73       1.0  0.25465  0.72256  0.21882  1.0000
  H   H74       1.0  0.22951  0.69592  0.22824  1.0000
  C   C87       1.0  0.30379  0.77301  0.32709  1.0000
  C   C88       1.0  0.28912  0.77308  0.29885  1.0000
  C   C89       1.0  0.27285  0.75882  0.30813  1.0000
  H   H75       1.0  0.29027  0.78377  0.27067  1.0000
  N   N12       1.0  0.25931  0.75989  0.28019  1.0000
  H   H76       1.0  0.24790  0.75057  0.28675  1.0000
  H   H77       1.0  0.26061  0.77020  0.25436  1.0000
  C   C90       1.0  0.31958  0.78714  0.31391  1.0000
  H   H78       1.0  0.32074  0.79596  0.27143  1.0000
  C   C91       1.0  0.71881  0.47053  0.28003  1.0000
  C   C92       1.0  0.70309  0.46956  0.28535  1.0000
  H   H79       1.0  0.72269  0.46851  0.21952  1.0000
  H   H80       1.0  0.69605  0.46701  0.22845  1.0000
  C   C93       1.0  0.77313  0.46991  0.32787  1.0000
  C   C94       1.0  0.77316  0.48464  0.29966  1.0000
  C   C95       1.0  0.75888  0.48661  0.30904  1.0000
  H   H81       1.0  0.78382  0.49419  0.27133  1.0000
  N   N13       1.0  0.75990  0.50119  0.28103  1.0000
  H   H82       1.0  0.75057  0.50326  0.28761  1.0000
  H   H83       1.0  0.77019  0.51020  0.25504  1.0000
  C   C96       1.0  0.78727  0.46829  0.31438  1.0000
  H   H84       1.0  0.79612  0.47605  0.27228  1.0000
  C   C97       1.0  0.53064  0.24852  0.28001  1.0000
  C   C98       1.0  0.53161  0.23376  0.28535  1.0000
  H   H85       1.0  0.53267  0.25442  0.21950  1.0000
  H   H86       1.0  0.53419  0.22929  0.22848  1.0000
  C   C99       1.0  0.53124  0.30345  0.32788  1.0000
  C   C100      1.0  0.51652  0.28875  0.29961  1.0000
  C   C101      1.0  0.51454  0.27250  0.30897  1.0000
  H   H87       1.0  0.50697  0.28987  0.27127  1.0000
  N   N14       1.0  0.49996  0.25894  0.28094  1.0000
  H   H88       1.0  0.49789  0.24754  0.28756  1.0000
  H   H89       1.0  0.49095  0.26022  0.25502  1.0000
  C   C102      1.0  0.53286  0.31921  0.31437  1.0000
  H   H90       1.0  0.52512  0.32030  0.27213  1.0000
  C   C103      1.0  0.75264  0.28237  0.28005  1.0000
  C   C104      1.0  0.76740  0.29809  0.28537  1.0000
  H   H91       1.0  0.74674  0.27848  0.21955  1.0000
  H   H92       1.0  0.77188  0.30513  0.22847  1.0000
  C   C105      1.0  0.69772  0.22803  0.32791  1.0000
  C   C106      1.0  0.71242  0.22801  0.29967  1.0000
  C   C107      1.0  0.72867  0.24229  0.30904  1.0000
  H   H93       1.0  0.71131  0.21735  0.27133  1.0000
  N   N15       1.0  0.74223  0.24128  0.28102  1.0000
  H   H94       1.0  0.75364  0.25061  0.28760  1.0000
  H   H95       1.0  0.74096  0.23099  0.25502  1.0000
  C   C108      1.0  0.68196  0.21389  0.31442  1.0000
  H   H96       1.0  0.68087  0.20504  0.27229  1.0000
  C   C109      1.0  0.17982  0.56355  0.34967  1.0000
  C   C110      1.0  0.17895  0.61648  0.32435  1.0000
  C   C111      1.0  0.19340  0.56930  0.41038  1.0000
  C   C112      1.0  0.20382  0.56215  0.41190  1.0000
  C   C113      1.0  0.20097  0.54902  0.35301  1.0000
  C   C114      1.0  0.09822  0.55848  0.38645  1.0000
  C   C115      1.0  0.11591  0.56733  0.38836  1.0000
  C   C116      1.0  0.17522  0.62622  0.38324  1.0000
  C   C117      1.0  0.18531  0.64386  0.38527  1.0000
  C   C118      1.0  0.19932  0.65226  0.32776  1.0000
  H   H97       1.0  0.21382  0.56696  0.45493  1.0000
  H   H98       1.0  0.12188  0.57737  0.43066  1.0000
  H   H99       1.0  0.09184  0.56245  0.42633  1.0000
  H   H100      1.0  0.16567  0.62050  0.42864  1.0000
  H   H101      1.0  0.18265  0.65040  0.43128  1.0000
  C   C119      1.0  0.16995  0.59858  0.32911  1.0000
  C   C120      1.0  0.15219  0.58928  0.32983  1.0000
  C   C121      1.0  0.14327  0.57150  0.33503  1.0000
  C   C122      1.0  0.15260  0.56307  0.34070  1.0000
  C   C123      1.0  0.17037  0.57198  0.34242  1.0000
  C   C124      1.0  0.17878  0.58969  0.33586  1.0000
  H   H102      1.0  0.14636  0.55025  0.34698  1.0000
  H   H103      1.0  0.19166  0.59630  0.33639  1.0000
  H   H104      1.0  0.19605  0.57900  0.45320  1.0000
  N   N16       1.0  0.21036  0.66862  0.33039  1.0000
  N   N17       1.0  0.21232  0.54410  0.35386  1.0000
  C   C125      1.0  0.43762  0.61651  0.34963  1.0000
  C   C126      1.0  0.38469  0.56271  0.32438  1.0000
  C   C127      1.0  0.43188  0.62434  0.41040  1.0000
  C   C128      1.0  0.43902  0.64190  0.41188  1.0000
  C   C129      1.0  0.45216  0.65218  0.35304  1.0000
  C   C130      1.0  0.44269  0.53998  0.38645  1.0000
  C   C131      1.0  0.43384  0.54882  0.38834  1.0000
  C   C132      1.0  0.37495  0.54925  0.38333  1.0000
  C   C133      1.0  0.35731  0.54169  0.38535  1.0000
  C   C134      1.0  0.34891  0.54729  0.32775  1.0000
  H   H105      1.0  0.43422  0.64710  0.45496  1.0000
  H   H106      1.0  0.42380  0.54475  0.43065  1.0000
  H   H107      1.0  0.43872  0.52962  0.42634  1.0000
  H   H108      1.0  0.38067  0.54540  0.42863  1.0000
  H   H109      1.0  0.35077  0.53248  0.43129  1.0000
  C   C135      1.0  0.40259  0.57161  0.32907  1.0000
  C   C136      1.0  0.41189  0.56314  0.32977  1.0000
  C   C137      1.0  0.42967  0.57200  0.33500  1.0000
  C   C138      1.0  0.43810  0.58977  0.34065  1.0000
  C   C139      1.0  0.42919  0.59863  0.34238  1.0000
  C   C140      1.0  0.41148  0.58932  0.33583  1.0000
  H   H110      1.0  0.45092  0.59635  0.34694  1.0000
  H   H111      1.0  0.40487  0.59560  0.33638  1.0000
  H   H112      1.0  0.42218  0.61729  0.45319  1.0000
  N   N18       1.0  0.33255  0.54198  0.33040  1.0000
  N   N19       1.0  0.45706  0.66845  0.35386  1.0000
  C   C141      1.0  0.38467  0.82134  0.34960  1.0000
  C   C142      1.0  0.43848  0.82223  0.32433  1.0000
  C   C143      1.0  0.37684  0.80776  0.41032  1.0000
  C   C144      1.0  0.35927  0.79734  0.41182  1.0000
  C   C145      1.0  0.34899  0.80018  0.35291  1.0000
  C   C146      1.0  0.46117  0.90296  0.38647  1.0000
  C   C147      1.0  0.45234  0.88526  0.38836  1.0000
  C   C148      1.0  0.45193  0.82595  0.38329  1.0000
  C   C149      1.0  0.45951  0.81588  0.38522  1.0000
  C   C150      1.0  0.45390  0.80187  0.32765  1.0000
  H   H113      1.0  0.35408  0.78733  0.45486  1.0000
  H   H114      1.0  0.45642  0.87930  0.43066  1.0000
  H   H115      1.0  0.47153  0.90934  0.42638  1.0000
  H   H116      1.0  0.45577  0.83551  0.42865  1.0000
  H   H117      1.0  0.46870  0.81853  0.43127  1.0000
  C   C151      1.0  0.42957  0.83123  0.32909  1.0000
  C   C152      1.0  0.43803  0.84899  0.32986  1.0000
  C   C153      1.0  0.42917  0.85791  0.33501  1.0000
  C   C154      1.0  0.41140  0.84857  0.34058  1.0000
  C   C155      1.0  0.40254  0.83079  0.34237  1.0000
  C   C156      1.0  0.41186  0.82239  0.33582  1.0000
  H   H118      1.0  0.40482  0.85480  0.34696  1.0000
  H   H119      1.0  0.40559  0.80951  0.33635  1.0000
  H   H120      1.0  0.38389  0.80511  0.45312  1.0000
  N   N20       1.0  0.45921  0.79082  0.33030  1.0000
  N   N21       1.0  0.33272  0.78883  0.35380  1.0000
  C   C157      1.0  0.82153  0.43741  0.34663  1.0000
  C   C158      1.0  0.82263  0.38460  0.32155  1.0000
  C   C159      1.0  0.80814  0.43174  0.40855  1.0000
  C   C160      1.0  0.79770  0.43886  0.41095  1.0000
  C   C161      1.0  0.80034  0.45189  0.35182  1.0000
  C   C162      1.0  0.90347  0.44407  0.38045  1.0000
  C   C163      1.0  0.88579  0.43480  0.38272  1.0000
  C   C164      1.0  0.82649  0.37492  0.38009  1.0000
  C   C165      1.0  0.81640  0.35728  0.38274  1.0000
  C   C166      1.0  0.80224  0.34883  0.32620  1.0000
  H   H121      1.0  0.78783  0.43411  0.45485  1.0000
  H   H122      1.0  0.88005  0.42509  0.42717  1.0000
  H   H123      1.0  0.91017  0.44074  0.42187  1.0000
  H   H124      1.0  0.83615  0.38068  0.42488  1.0000
  H   H125      1.0  0.81916  0.35077  0.42856  1.0000
  C   C167      1.0  0.83159  0.40251  0.32585  1.0000
  C   C168      1.0  0.84936  0.41189  0.32506  1.0000
  C   C169      1.0  0.85816  0.42968  0.32863  1.0000
  C   C170      1.0  0.84878  0.43805  0.33485  1.0000
  C   C171      1.0  0.83102  0.42905  0.33869  1.0000
  C   C172      1.0  0.82269  0.41132  0.33332  1.0000
  H   H126      1.0  0.85499  0.45088  0.34005  1.0000
  H   H127      1.0  0.80982  0.40466  0.33509  1.0000
  H   H128      1.0  0.80565  0.42213  0.45164  1.0000
  N   N22       1.0  0.79117  0.33247  0.32952  1.0000
  N   N23       1.0  0.78896  0.45677  0.35346  1.0000
  C   C173      1.0  0.56375  0.38435  0.34663  1.0000
  C   C174      1.0  0.61657  0.43826  0.32157  1.0000
  C   C175      1.0  0.56942  0.37663  0.40853  1.0000
  C   C176      1.0  0.56230  0.35907  0.41096  1.0000
  C   C177      1.0  0.54926  0.34868  0.35184  1.0000
  C   C178      1.0  0.55711  0.45965  0.38041  1.0000
  C   C179      1.0  0.56638  0.45123  0.38267  1.0000
  C   C180      1.0  0.62625  0.45181  0.38009  1.0000
  C   C181      1.0  0.64389  0.45935  0.38276  1.0000
  C   C182      1.0  0.65234  0.45363  0.32626  1.0000
  H   H129      1.0  0.56705  0.35395  0.45486  1.0000
  H   H130      1.0  0.57611  0.45523  0.42705  1.0000
  H   H131      1.0  0.56046  0.46970  0.42175  1.0000
  H   H132      1.0  0.62049  0.45571  0.42482  1.0000
  H   H133      1.0  0.65040  0.46862  0.42850  1.0000
  C   C183      1.0  0.59866  0.42931  0.32587  1.0000
  C   C184      1.0  0.58928  0.43770  0.32503  1.0000
  C   C185      1.0  0.57149  0.42872  0.32866  1.0000
  C   C186      1.0  0.56312  0.41097  0.33493  1.0000
  C   C187      1.0  0.57212  0.40221  0.33872  1.0000
  C   C188      1.0  0.58985  0.41160  0.33333  1.0000
  H   H134      1.0  0.55029  0.40434  0.34010  1.0000
  H   H135      1.0  0.59651  0.40539  0.33510  1.0000
  H   H136      1.0  0.57904  0.38376  0.45163  1.0000
  N   N24       1.0  0.66870  0.45893  0.32953  1.0000
  N   N25       1.0  0.54438  0.33242  0.35352  1.0000
  C   C189      1.0  0.61682  0.17964  0.34663  1.0000
  C   C190      1.0  0.56292  0.17856  0.32163  1.0000
  C   C191      1.0  0.62455  0.19303  0.40858  1.0000
  C   C192      1.0  0.64210  0.20347  0.41096  1.0000
  C   C193      1.0  0.65249  0.20081  0.35189  1.0000
  C   C194      1.0  0.54150  0.09770  0.38036  1.0000
  C   C195      1.0  0.54992  0.11539  0.38261  1.0000
  C   C196      1.0  0.54938  0.17470  0.38021  1.0000
  C   C197      1.0  0.54183  0.18479  0.38286  1.0000
  C   C198      1.0  0.54753  0.19894  0.32628  1.0000
  H   H137      1.0  0.64722  0.21333  0.45490  1.0000
  H   H138      1.0  0.54593  0.12112  0.42698  1.0000
  H   H139      1.0  0.53145  0.09100  0.42166  1.0000
  H   H140      1.0  0.54546  0.16502  0.42485  1.0000
  H   H141      1.0  0.53255  0.18201  0.42853  1.0000
  C   C199      1.0  0.57186  0.16959  0.32587  1.0000
  C   C200      1.0  0.56347  0.15182  0.32499  1.0000
  C   C201      1.0  0.57245  0.14301  0.32867  1.0000
  C   C202      1.0  0.59020  0.15239  0.33493  1.0000
  C   C203      1.0  0.59896  0.17015  0.33871  1.0000
  C   C204      1.0  0.58957  0.17848  0.33334  1.0000
  H   H142      1.0  0.59683  0.14618  0.34012  1.0000
  H   H143      1.0  0.59578  0.19135  0.33512  1.0000
  H   H144      1.0  0.61742  0.19552  0.45165  1.0000
  N   N26       1.0  0.54224  0.21001  0.32955  1.0000
  N   N27       1.0  0.66875  0.21219  0.35354  1.0000
  C   C205      1.0  0.01984  0.50969  0.38515  1.0000
  C   C206      1.0  0.03722  0.51655  0.37287  1.0000
  H   H145      1.0  0.01500  0.50616  0.44812  1.0000
  H   H146      1.0  0.04451  0.51777  0.42719  1.0000
  C   C207      1.0  0.95630  0.48295  0.35913  1.0000
  C   C208      1.0  0.96666  0.49985  0.38566  1.0000
  C   C209      1.0  0.98425  0.50859  0.37041  1.0000
  H   H147      1.0  0.96126  0.50601  0.41581  1.0000
  N   N28       1.0  0.99340  0.52501  0.39534  1.0000
  H   H148      1.0  0.00541  0.53166  0.38443  1.0000
  H   H149      1.0  0.98810  0.53076  0.42309  1.0000
  C   C210      1.0  0.93922  0.47469  0.37636  1.0000
  H   H150      1.0  0.93530  0.47577  0.43670  1.0000
  C   C211      1.0  0.49147  0.51038  0.38517  1.0000
  C   C212      1.0  0.48461  0.52090  0.37288  1.0000
  H   H151      1.0  0.49500  0.50907  0.44815  1.0000
  H   H152      1.0  0.48340  0.52697  0.42719  1.0000
  C   C213      1.0  0.51819  0.47357  0.35911  1.0000
  C   C214      1.0  0.50129  0.46702  0.38561  1.0000
  C   C215      1.0  0.49256  0.47588  0.37036  1.0000
  H   H153      1.0  0.49512  0.45545  0.41565  1.0000
  N   N29       1.0  0.47614  0.46861  0.39522  1.0000
  H   H154      1.0  0.46949  0.47397  0.38423  1.0000
  H   H155      1.0  0.47037  0.45754  0.42283  1.0000
  C   C216      1.0  0.52644  0.46473  0.37631  1.0000
  H   H156      1.0  0.52532  0.45969  0.43655  1.0000
  C   C217      1.0  0.49077  0.98133  0.38523  1.0000
  C   C218      1.0  0.48023  0.96395  0.37296  1.0000
  H   H157      1.0  0.49209  0.98618  0.44820  1.0000
  H   H158      1.0  0.47416  0.95667  0.42729  1.0000
  C   C219      1.0  0.52763  0.04487  0.35904  1.0000
  C   C220      1.0  0.53417  0.03450  0.38545  1.0000
  C   C221      1.0  0.52529  0.01690  0.37027  1.0000
  H   H159      1.0  0.54574  0.03989  0.41547  1.0000
  N   N30       1.0  0.53256  0.00775  0.39510  1.0000
  H   H160      1.0  0.52718  0.99573  0.38425  1.0000
  H   H161      1.0  0.54363  0.01304  0.42275  1.0000
  C   C222      1.0  0.53648  0.06196  0.37619  1.0000
  H   H162      1.0  0.54159  0.06588  0.43631  1.0000
  C   C223      1.0  0.30424  0.52906  0.36760  1.0000
  C   C224      1.0  0.29394  0.52551  0.44389  1.0000
  C   C225      1.0  0.27806  0.52453  0.43987  1.0000
  C   C226      1.0  0.27233  0.52705  0.35607  1.0000
  C   C227      1.0  0.25720  0.52757  0.34690  1.0000
  C   C228      1.0  0.25738  0.54232  0.37522  1.0000
  C   C229      1.0  0.24309  0.54400  0.36555  1.0000
  H   H163      1.0  0.26801  0.55210  0.40234  1.0000
  H   H164      1.0  0.24388  0.55501  0.38579  1.0000
  H   H165      1.0  0.29823  0.52397  0.50430  1.0000
  N   N31       1.0  0.26888  0.52121  0.51617  1.0000
  H   H166      1.0  0.27299  0.51945  0.57271  1.0000
  H   H167      1.0  0.25778  0.52006  0.51656  1.0000
  C   C230      1.0  0.32009  0.53080  0.37578  1.0000
  H   H168      1.0  0.32198  0.52416  0.42196  1.0000
  C   C231      1.0  0.47212  0.77543  0.36755  1.0000
  C   C232      1.0  0.47565  0.76867  0.44387  1.0000
  C   C233      1.0  0.47662  0.75376  0.43990  1.0000
  C   C234      1.0  0.47410  0.74552  0.35611  1.0000
  C   C235      1.0  0.47359  0.72986  0.34698  1.0000
  C   C236      1.0  0.45884  0.71529  0.37528  1.0000
  C   C237      1.0  0.45716  0.69932  0.36556  1.0000
  H   H169      1.0  0.44905  0.71613  0.40236  1.0000
  H   H170      1.0  0.44615  0.68909  0.38578  1.0000
  H   H171      1.0  0.47719  0.77451  0.50426  1.0000
  N   N32       1.0  0.47992  0.74790  0.51623  1.0000
  H   H172      1.0  0.48173  0.75380  0.57271  1.0000
  H   H173      1.0  0.48112  0.73798  0.51659  1.0000
  C   C238      1.0  0.47039  0.78954  0.37566  1.0000
  H   H174      1.0  0.47703  0.79807  0.42186  1.0000
  C   C239      1.0  0.22575  0.69693  0.36761  1.0000
  C   C240      1.0  0.23251  0.70722  0.44391  1.0000
  C   C241      1.0  0.24741  0.72311  0.43990  1.0000
  C   C242      1.0  0.25565  0.72883  0.35609  1.0000
  C   C243      1.0  0.27130  0.74397  0.34694  1.0000
  C   C244      1.0  0.28588  0.74379  0.37526  1.0000
  C   C245      1.0  0.30184  0.75807  0.36557  1.0000
  H   H175      1.0  0.28502  0.73315  0.40239  1.0000
  H   H176      1.0  0.31207  0.75728  0.38581  1.0000
  H   H177      1.0  0.22667  0.70293  0.50432  1.0000
  N   N33       1.0  0.25327  0.73228  0.51621  1.0000
  H   H178      1.0  0.24740  0.72816  0.57275  1.0000
  H   H179      1.0  0.26322  0.74338  0.51660  1.0000
  C   C246      1.0  0.21164  0.68108  0.37576  1.0000
  H   H180      1.0  0.20312  0.67919  0.42200  1.0000
  C   C247      1.0  0.69695  0.47173  0.36783  1.0000
  C   C248      1.0  0.70721  0.47525  0.44431  1.0000
  C   C249      1.0  0.72310  0.47625  0.44060  1.0000
  C   C250      1.0  0.72888  0.47375  0.35691  1.0000
  C   C251      1.0  0.74405  0.47329  0.34798  1.0000
  C   C252      1.0  0.74392  0.45857  0.37640  1.0000
  C   C253      1.0  0.75822  0.45692  0.36658  1.0000
  H   H181      1.0  0.73330  0.44877  0.40355  1.0000
  H   H182      1.0  0.75747  0.44592  0.38682  1.0000
  H   H183      1.0  0.70288  0.47678  0.50463  1.0000
  N   N34       1.0  0.73223  0.47955  0.51706  1.0000
  H   H184      1.0  0.72810  0.48134  0.57346  1.0000
  H   H185      1.0  0.74335  0.48076  0.51760  1.0000
  C   C254      1.0  0.68110  0.47000  0.37567  1.0000
  H   H186      1.0  0.67915  0.47654  0.42224  1.0000
  C   C255      1.0  0.52944  0.22546  0.36785  1.0000
  C   C256      1.0  0.52590  0.23219  0.44429  1.0000
  C   C257      1.0  0.52490  0.24708  0.44055  1.0000
  C   C258      1.0  0.52740  0.25536  0.35686  1.0000
  C   C259      1.0  0.52786  0.27099  0.34789  1.0000
  C   C260      1.0  0.54258  0.28558  0.37634  1.0000
  C   C261      1.0  0.54423  0.30153  0.36658  1.0000
  H   H187      1.0  0.55238  0.28476  0.40354  1.0000
  H   H188      1.0  0.55523  0.31178  0.38685  1.0000
  H   H189      1.0  0.52437  0.22633  0.50462  1.0000
  N   N35       1.0  0.52158  0.25290  0.51699  1.0000
  H   H190      1.0  0.51984  0.24701  0.57345  1.0000
  H   H191      1.0  0.52041  0.26284  0.51756  1.0000
  C   C262      1.0  0.53118  0.21135  0.37572  1.0000
  H   H192      1.0  0.52463  0.20285  0.42225  1.0000
  C   C263      1.0  0.77571  0.30422  0.36784  1.0000
  C   C264      1.0  0.76898  0.29396  0.44431  1.0000
  C   C265      1.0  0.75408  0.27807  0.44060  1.0000
  C   C266      1.0  0.74580  0.27229  0.35693  1.0000
  C   C267      1.0  0.73018  0.25712  0.34800  1.0000
  C   C268      1.0  0.71558  0.25724  0.37644  1.0000
  C   C269      1.0  0.69963  0.24294  0.36662  1.0000
  H   H193      1.0  0.71640  0.26786  0.40359  1.0000
  H   H194      1.0  0.68938  0.24369  0.38687  1.0000
  H   H195      1.0  0.77484  0.29829  0.50462  1.0000
  N   N36       1.0  0.74827  0.26894  0.51706  1.0000
  H   H196      1.0  0.75419  0.27307  0.57346  1.0000
  H   H197      1.0  0.73835  0.25781  0.51760  1.0000
  C   C270      1.0  0.78983  0.32007  0.37567  1.0000
  H   H198      1.0  0.79833  0.32202  0.42215  1.0000
