data_image0
_chemical_formula_structural       C14NC2NHCH3CHC2NC2NHCH3CHC2HC6H3CHC2HC6H3CHC2NC2NHCH3CHC2NC2NHCH3CHC2HC6H3CHC2HC6H3CHC2NC2NHCH3CHC2NC2NHCH3CHC2NC2NHCH3CHC2NC2NHCH3CHC2HC6H3CHC2HC6H3CHC2NC2NHCH3CHC2NC2NHCH3CHC2HC6H3CHC2HC6H3CHC2NC2NHCH3CHC2NC2NHCH3CHC2HC6H3CHC2HC6H3CHC2NC2NHCH3CHC2NC2NHCH3CHNCNCN5CNCN5CNCN5CNCN5CNCN5CNCN5CNCN5CNCN5CNCN5CNCN4CNCNCN4CNCNCN5CNCN5CNCN4CNCNCN4CNCNCN4C2HC6H3CHC2HC6H3CHC2NC2NHCH3CHC2NC2NHCH3CHC2HC6H3CHC2HC6H3CHC2NC2NHCH3CHC2NC2NHCH3CHC2HC6H3CHC2HC6H3CHC2HC6H3CHC2HC6H3CHC2NC2NHCH3CHC2NC2NHCH3CHC2HC6H3CHC2HC6H3CHC2NC2NHCH3CHC2NC2NHCH3CHC2HC6H3CHC2HC6H3CHC2NC2NHCH3CHC2NC2NHCH3CHC2HC6H3CHC2HC6H3CH
_chemical_formula_sum              "C408 N144 H240"
_cell_length_a       87.1878
_cell_length_b       68.3687
_cell_length_c       14.9906
_cell_angle_alpha    90
_cell_angle_beta     90
_cell_angle_gamma    90

_space_group_name_H-M_alt    "P 1"
_space_group_IT_number       1

loop_
  _space_group_symop_operation_xyz
  'x, y, z'

loop_
  _atom_site_type_symbol
  _atom_site_label
  _atom_site_symmetry_multiplicity
  _atom_site_fract_x
  _atom_site_fract_y
  _atom_site_fract_z
  _atom_site_occupancy
  C   C1        1.0  0.01262  0.13279  0.32412  1.0000
  C   C2        1.0  0.98620  0.86779  0.32998  1.0000
  C   C3        1.0  0.51264  0.63277  0.32431  1.0000
  C   C4        1.0  0.48620  0.36780  0.33069  1.0000
  C   C5        1.0  0.39618  0.98217  0.30054  1.0000
  C   C6        1.0  0.60419  0.01614  0.31727  1.0000
  C   C7        1.0  0.89662  0.48209  0.29812  1.0000
  C   C8        1.0  0.10439  0.51618  0.31588  1.0000
  C   C9        1.0  0.16997  0.26227  0.34345  1.0000
  C   C10       1.0  0.83014  0.73560  0.34396  1.0000
  C   C11       1.0  0.67009  0.76269  0.32569  1.0000
  C   C12       1.0  0.33000  0.23523  0.32454  1.0000
  C   C13       1.0  0.00711  0.05128  0.31833  1.0000
  C   C14       1.0  0.00398  0.03859  0.24549  1.0000
  N   N1        1.0  0.00361  0.01898  0.26048  1.0000
  C   C15       1.0  0.00606  0.01042  0.34103  1.0000
  C   C16       1.0  0.00412  0.95822  0.28314  1.0000
  N   N2        1.0  0.00361  0.97803  0.27875  1.0000
  H   H1        1.0  0.00240  0.95037  0.22594  1.0000
  C   C17       1.0  0.00125  0.04487  0.15226  1.0000
  H   H2        1.0  0.00149  0.06071  0.14417  1.0000
  H   H3        1.0  0.99003  0.03966  0.13042  1.0000
  H   H4        1.0  0.01003  0.03857  0.10902  1.0000
  C   C18       1.0  0.00933  0.07111  0.30805  1.0000
  H   H5        1.0  0.01939  0.07566  0.28458  1.0000
  C   C19       1.0  0.50729  0.55126  0.31876  1.0000
  C   C20       1.0  0.50409  0.53860  0.24593  1.0000
  N   N3        1.0  0.50371  0.51898  0.26085  1.0000
  C   C21       1.0  0.50618  0.51041  0.34133  1.0000
  C   C22       1.0  0.50416  0.45822  0.28325  1.0000
  N   N4        1.0  0.50367  0.47803  0.27895  1.0000
  H   H6        1.0  0.50241  0.45039  0.22603  1.0000
  C   C23       1.0  0.50132  0.54490  0.15276  1.0000
  H   H7        1.0  0.50160  0.56075  0.14472  1.0000
  H   H8        1.0  0.49008  0.53973  0.13111  1.0000
  H   H9        1.0  0.51006  0.53858  0.10934  1.0000
  C   C24       1.0  0.50949  0.57109  0.30857  1.0000
  H   H10       1.0  0.51959  0.57566  0.28583  1.0000
  C   C25       1.0  0.06372  0.18033  0.23612  1.0000
  C   C26       1.0  0.04980  0.17012  0.24830  1.0000
  H   H11       1.0  0.04386  0.16535  0.19342  1.0000
  C   C27       1.0  0.08485  0.19902  0.30273  1.0000
  C   C28       1.0  0.11036  0.22400  0.28513  1.0000
  C   C29       1.0  0.10336  0.21591  0.20846  1.0000
  C   C30       1.0  0.09062  0.20325  0.21618  1.0000
  C   C31       1.0  0.08312  0.19547  0.14061  1.0000
  C   C32       1.0  0.06981  0.18404  0.15051  1.0000
  H   H12       1.0  0.08707  0.19845  0.07776  1.0000
  H   H13       1.0  0.06436  0.17897  0.09463  1.0000
  H   H14       1.0  0.10725  0.21978  0.14637  1.0000
  C   C33       1.0  0.12120  0.23863  0.27718  1.0000
  H   H15       1.0  0.11884  0.24978  0.23662  1.0000
  C   C34       1.0  0.93515  0.82007  0.23911  1.0000
  C   C35       1.0  0.94891  0.83060  0.25172  1.0000
  H   H16       1.0  0.95483  0.83551  0.19701  1.0000
  C   C36       1.0  0.91433  0.80072  0.30505  1.0000
  C   C37       1.0  0.88929  0.77501  0.28668  1.0000
  C   C38       1.0  0.89616  0.78337  0.21022  1.0000
  C   C39       1.0  0.90867  0.79640  0.21835  1.0000
  C   C40       1.0  0.91605  0.80447  0.14303  1.0000
  C   C41       1.0  0.92915  0.81628  0.15334  1.0000
  H   H17       1.0  0.91220  0.80142  0.08007  1.0000
  H   H18       1.0  0.93455  0.82152  0.09764  1.0000
  H   H19       1.0  0.89235  0.77946  0.14802  1.0000
  C   C42       1.0  0.87865  0.76015  0.27832  1.0000
  H   H20       1.0  0.88112  0.74912  0.23732  1.0000
  C   C43       1.0  0.95444  0.16715  0.32581  1.0000
  C   C44       1.0  0.94612  0.17507  0.25263  1.0000
  N   N5        1.0  0.93293  0.18504  0.26925  1.0000
  C   C45       1.0  0.92695  0.18803  0.35173  1.0000
  C   C46       1.0  0.89438  0.22015  0.29979  1.0000
  N   N6        1.0  0.90656  0.20795  0.29223  1.0000
  H   H21       1.0  0.89000  0.22630  0.24306  1.0000
  C   C47       1.0  0.95072  0.17384  0.15763  1.0000
  H   H22       1.0  0.96110  0.16525  0.14738  1.0000
  H   H23       1.0  0.95272  0.18854  0.13168  1.0000
  H   H24       1.0  0.94152  0.16705  0.11918  1.0000
  C   C48       1.0  0.96897  0.15943  0.31603  1.0000
  H   H25       1.0  0.97712  0.16817  0.29198  1.0000
  C   C49       1.0  0.04409  0.83231  0.32780  1.0000
  C   C50       1.0  0.05232  0.82451  0.25407  1.0000
  N   N7        1.0  0.06552  0.81449  0.26990  1.0000
  C   C51       1.0  0.07159  0.81136  0.35207  1.0000
  C   C52       1.0  0.10408  0.77926  0.29808  1.0000
  N   N8        1.0  0.09190  0.79150  0.29128  1.0000
  H   H26       1.0  0.10837  0.77315  0.24105  1.0000
  C   C53       1.0  0.04765  0.82595  0.15925  1.0000
  H   H27       1.0  0.03727  0.83458  0.14967  1.0000
  H   H28       1.0  0.04562  0.81132  0.13268  1.0000
  H   H29       1.0  0.05683  0.83282  0.12089  1.0000
  C   C54       1.0  0.02959  0.84021  0.31885  1.0000
  H   H30       1.0  0.02137  0.83171  0.29391  1.0000
  C   C55       1.0  0.56386  0.67975  0.23652  1.0000
  C   C56       1.0  0.54992  0.66963  0.24937  1.0000
  H   H31       1.0  0.54402  0.66461  0.19480  1.0000
  C   C57       1.0  0.58497  0.69872  0.30170  1.0000
  C   C58       1.0  0.61051  0.72357  0.28195  1.0000
  C   C59       1.0  0.60357  0.71508  0.20604  1.0000
  C   C60       1.0  0.59080  0.70249  0.21486  1.0000
  C   C61       1.0  0.58335  0.69435  0.13992  1.0000
  C   C62       1.0  0.57002  0.68302  0.15068  1.0000
  H   H32       1.0  0.58734  0.69702  0.07687  1.0000
  H   H33       1.0  0.56459  0.67768  0.09522  1.0000
  H   H34       1.0  0.60747  0.71864  0.14362  1.0000
  C   C63       1.0  0.62130  0.73820  0.27231  1.0000
  H   H35       1.0  0.61889  0.74909  0.23039  1.0000
  C   C64       1.0  0.43499  0.32083  0.23991  1.0000
  C   C65       1.0  0.44878  0.33123  0.25349  1.0000
  H   H36       1.0  0.45466  0.33646  0.19925  1.0000
  C   C66       1.0  0.41414  0.30119  0.30387  1.0000
  C   C67       1.0  0.38903  0.27570  0.28265  1.0000
  C   C68       1.0  0.39587  0.28453  0.20720  1.0000
  C   C69       1.0  0.40842  0.29744  0.21677  1.0000
  C   C70       1.0  0.41578  0.30592  0.14233  1.0000
  C   C71       1.0  0.42893  0.31758  0.15383  1.0000
  H   H37       1.0  0.41187  0.30329  0.07909  1.0000
  H   H38       1.0  0.43430  0.32315  0.09870  1.0000
  H   H39       1.0  0.39204  0.28100  0.14459  1.0000
  C   C72       1.0  0.37844  0.26085  0.27231  1.0000
  H   H40       1.0  0.38097  0.25015  0.22963  1.0000
  C   C73       1.0  0.45434  0.66689  0.32390  1.0000
  C   C74       1.0  0.44605  0.67517  0.25141  1.0000
  N   N9        1.0  0.43285  0.68503  0.26880  1.0000
  C   C75       1.0  0.42681  0.68761  0.35144  1.0000
  C   C76       1.0  0.39424  0.71998  0.30242  1.0000
  N   N10       1.0  0.40643  0.70781  0.29373  1.0000
  H   H41       1.0  0.38991  0.72646  0.24634  1.0000
  C   C77       1.0  0.45068  0.67437  0.15637  1.0000
  H   H42       1.0  0.46106  0.66581  0.14542  1.0000
  H   H43       1.0  0.45271  0.68919  0.13190  1.0000
  H   H44       1.0  0.44149  0.66778  0.11716  1.0000
  C   C78       1.0  0.46888  0.65920  0.31373  1.0000
  H   H45       1.0  0.47699  0.66791  0.28896  1.0000
  C   C79       1.0  0.54414  0.33239  0.32633  1.0000
  C   C80       1.0  0.55231  0.32422  0.25316  1.0000
  N   N11       1.0  0.56552  0.31428  0.26958  1.0000
  C   C81       1.0  0.57168  0.31156  0.35184  1.0000
  C   C82       1.0  0.60413  0.27916  0.30041  1.0000
  N   N12       1.0  0.59194  0.29137  0.29261  1.0000
  H   H46       1.0  0.60836  0.27272  0.24398  1.0000
  C   C83       1.0  0.54757  0.32522  0.15834  1.0000
  H   H47       1.0  0.53720  0.33384  0.14815  1.0000
  H   H48       1.0  0.54550  0.31046  0.13330  1.0000
  H   H49       1.0  0.55673  0.33187  0.11906  1.0000
  C   C84       1.0  0.52965  0.34030  0.31703  1.0000
  H   H50       1.0  0.52145  0.33185  0.29149  1.0000
  C   C85       1.0  0.36883  0.16551  0.31960  1.0000
  C   C86       1.0  0.36823  0.15197  0.24778  1.0000
  N   N13       1.0  0.37101  0.13278  0.26513  1.0000
  C   C87       1.0  0.37430  0.12545  0.34715  1.0000
  C   C88       1.0  0.38196  0.07392  0.29429  1.0000
  N   N14       1.0  0.37787  0.09300  0.28800  1.0000
  H   H51       1.0  0.38237  0.06581  0.23705  1.0000
  C   C89       1.0  0.36500  0.15697  0.15349  1.0000
  H   H52       1.0  0.36282  0.17252  0.14346  1.0000
  H   H53       1.0  0.35492  0.14890  0.13090  1.0000
  H   H54       1.0  0.37478  0.15282  0.11216  1.0000
  C   C90       1.0  0.36710  0.18535  0.30822  1.0000
  H   H55       1.0  0.37630  0.19332  0.29332  1.0000
  C   C91       1.0  0.63207  0.83315  0.31693  1.0000
  C   C92       1.0  0.63152  0.84674  0.24533  1.0000
  N   N15       1.0  0.62858  0.86583  0.26415  1.0000
  C   C93       1.0  0.62612  0.87299  0.34743  1.0000
  C   C94       1.0  0.61677  0.92423  0.29847  1.0000
  N   N16       1.0  0.62118  0.90530  0.29032  1.0000
  H   H56       1.0  0.61559  0.93238  0.24169  1.0000
  C   C95       1.0  0.63377  0.84194  0.14986  1.0000
  H   H57       1.0  0.63625  0.82651  0.13863  1.0000
  H   H58       1.0  0.64333  0.85046  0.12348  1.0000
  H   H59       1.0  0.62342  0.84568  0.11260  1.0000
  C   C96       1.0  0.63384  0.81334  0.30411  1.0000
  H   H60       1.0  0.62499  0.80568  0.28102  1.0000
  C   C97       1.0  0.62622  0.13806  0.24316  1.0000
  C   C98       1.0  0.62920  0.15787  0.26266  1.0000
  H   H61       1.0  0.62989  0.16775  0.21131  1.0000
  C   C99       1.0  0.62154  0.10481  0.29820  1.0000
  C   C100      1.0  0.61352  0.06541  0.26707  1.0000
  C   C101      1.0  0.61524  0.07854  0.19477  1.0000
  C   C102      1.0  0.61929  0.09829  0.20916  1.0000
  C   C103      1.0  0.62074  0.11167  0.13793  1.0000
  C   C104      1.0  0.62420  0.13140  0.15480  1.0000
  H   H62       1.0  0.61910  0.10722  0.07345  1.0000
  H   H63       1.0  0.62502  0.14090  0.10222  1.0000
  H   H64       1.0  0.61322  0.07381  0.13096  1.0000
  C   C105      1.0  0.60796  0.04664  0.25315  1.0000
  H   H65       1.0  0.60322  0.04360  0.19427  1.0000
  C   C106      1.0  0.37318  0.86006  0.23963  1.0000
  C   C107      1.0  0.36994  0.84042  0.26121  1.0000
  H   H66       1.0  0.36939  0.83024  0.21105  1.0000
  C   C108      1.0  0.37802  0.89354  0.29113  1.0000
  C   C109      1.0  0.38681  0.93250  0.25644  1.0000
  C   C110      1.0  0.38520  0.91900  0.18550  1.0000
  C   C111      1.0  0.38077  0.89946  0.20169  1.0000
  C   C112      1.0  0.37945  0.88568  0.13197  1.0000
  C   C113      1.0  0.37565  0.86614  0.15078  1.0000
  H   H67       1.0  0.38145  0.88969  0.06723  1.0000
  H   H68       1.0  0.37497  0.85633  0.09934  1.0000
  H   H69       1.0  0.38759  0.92330  0.12148  1.0000
  C   C114      1.0  0.39271  0.95103  0.24111  1.0000
  H   H70       1.0  0.39802  0.95359  0.18340  1.0000
  C   C115      1.0  0.86791  0.66504  0.32454  1.0000
  C   C116      1.0  0.86768  0.65168  0.25196  1.0000
  N   N17       1.0  0.87054  0.63248  0.26862  1.0000
  C   C117      1.0  0.87361  0.62498  0.35060  1.0000
  C   C118      1.0  0.88180  0.57369  0.29574  1.0000
  N   N18       1.0  0.87760  0.59274  0.29006  1.0000
  H   H71       1.0  0.88245  0.56573  0.23810  1.0000
  C   C119      1.0  0.86469  0.65684  0.15757  1.0000
  H   H72       1.0  0.86232  0.67236  0.14806  1.0000
  H   H73       1.0  0.85481  0.64860  0.13345  1.0000
  H   H74       1.0  0.87466  0.65302  0.11714  1.0000
  C   C120      1.0  0.86616  0.68491  0.31357  1.0000
  H   H75       1.0  0.87481  0.69254  0.28782  1.0000
  C   C121      1.0  0.13273  0.33333  0.32317  1.0000
  C   C122      1.0  0.13211  0.34679  0.25103  1.0000
  N   N19       1.0  0.12908  0.36589  0.26908  1.0000
  C   C123      1.0  0.12659  0.37320  0.35207  1.0000
  C   C124      1.0  0.11703  0.42427  0.30102  1.0000
  N   N20       1.0  0.12150  0.40536  0.29363  1.0000
  H   H76       1.0  0.11581  0.43230  0.24391  1.0000
  C   C125      1.0  0.13440  0.34186  0.15572  1.0000
  H   H77       1.0  0.13703  0.32644  0.14503  1.0000
  H   H78       1.0  0.14389  0.35047  0.12904  1.0000
  H   H79       1.0  0.12402  0.34538  0.11834  1.0000
  C   C126      1.0  0.13454  0.31350  0.31092  1.0000
  H   H80       1.0  0.12609  0.30601  0.28229  1.0000
  C   C127      1.0  0.12680  0.63783  0.23603  1.0000
  C   C128      1.0  0.12986  0.65767  0.25462  1.0000
  H   H81       1.0  0.13049  0.66745  0.20286  1.0000
  C   C129      1.0  0.12205  0.60472  0.29261  1.0000
  C   C130      1.0  0.11379  0.56534  0.26348  1.0000
  C   C131      1.0  0.11548  0.57831  0.19055  1.0000
  C   C132      1.0  0.11965  0.59804  0.20395  1.0000
  C   C133      1.0  0.12106  0.61128  0.13212  1.0000
  C   C134      1.0  0.12463  0.63102  0.14803  1.0000
  H   H82       1.0  0.11929  0.60672  0.06790  1.0000
  H   H83       1.0  0.12539  0.64041  0.09505  1.0000
  H   H84       1.0  0.11334  0.57347  0.12704  1.0000
  C   C135      1.0  0.10815  0.54659  0.25053  1.0000
  H   H85       1.0  0.10330  0.54339  0.19211  1.0000
  C   C136      1.0  0.87210  0.36070  0.23256  1.0000
  C   C137      1.0  0.86868  0.34105  0.25316  1.0000
  H   H86       1.0  0.86774  0.33109  0.20232  1.0000
  C   C138      1.0  0.87786  0.39380  0.28589  1.0000
  C   C139      1.0  0.88731  0.43259  0.25291  1.0000
  C   C140      1.0  0.88499  0.41947  0.18115  1.0000
  C   C141      1.0  0.88022  0.40002  0.19650  1.0000
  C   C142      1.0  0.87823  0.38659  0.12593  1.0000
  C   C143      1.0  0.87418  0.36707  0.14381  1.0000
  H   H87       1.0  0.87996  0.39080  0.06119  1.0000
  H   H88       1.0  0.87304  0.35751  0.09171  1.0000
  H   H89       1.0  0.88713  0.42395  0.11712  1.0000
  C   C144      1.0  0.89368  0.45091  0.23860  1.0000
  H   H90       1.0  0.89847  0.45352  0.17948  1.0000
  C   C145      1.0  0.46015  0.00860  0.33299  1.0000
  C   C146      1.0  0.46977  0.00425  0.25908  1.0000
  N   N21       1.0  0.48521  0.00427  0.27163  1.0000
  C   C147      1.0  0.49223  0.00809  0.35062  1.0000
  C   C148      1.0  0.53275  0.00710  0.28472  1.0000
  N   N22       1.0  0.51725  0.00571  0.28368  1.0000
  H   H91       1.0  0.53864  0.00475  0.22668  1.0000
  C   C149      1.0  0.46448  0.00035  0.16687  1.0000
  H   H92       1.0  0.45203  0.00059  0.16040  1.0000
  H   H93       1.0  0.46853  0.98597  0.14576  1.0000
  H   H94       1.0  0.46921  0.01138  0.12196  1.0000
  C   C150      1.0  0.44464  0.01171  0.32495  1.0000
  H   H95       1.0  0.44101  0.02551  0.32366  1.0000
  C   C151      1.0  0.96036  0.50909  0.33643  1.0000
  C   C152      1.0  0.96989  0.50487  0.26199  1.0000
  N   N23       1.0  0.98535  0.50485  0.27394  1.0000
  C   C153      1.0  0.99246  0.50852  0.35280  1.0000
  C   C154      1.0  0.03291  0.50752  0.28535  1.0000
  N   N24       1.0  0.01740  0.50617  0.28483  1.0000
  H   H96       1.0  0.03873  0.50523  0.22702  1.0000
  C   C155      1.0  0.96452  0.50120  0.16975  1.0000
  H   H97       1.0  0.95207  0.50155  0.16354  1.0000
  H   H98       1.0  0.96849  0.48683  0.14795  1.0000
  H   H99       1.0  0.96927  0.51227  0.12519  1.0000
  C   C156      1.0  0.94482  0.51212  0.32926  1.0000
  H   H100      1.0  0.94108  0.52587  0.33104  1.0000
  C   C157      1.0  0.23172  0.24775  0.26736  1.0000
  C   C158      1.0  0.21625  0.25317  0.27961  1.0000
  H   H101      1.0  0.20878  0.25193  0.22708  1.0000
  C   C159      1.0  0.25770  0.24537  0.32919  1.0000
  C   C160      1.0  0.28884  0.23525  0.31138  1.0000
  C   C161      1.0  0.27863  0.23243  0.23927  1.0000
  C   C162      1.0  0.26301  0.23759  0.24688  1.0000
  C   C163      1.0  0.25263  0.23504  0.17557  1.0000
  C   C164      1.0  0.23711  0.24017  0.18559  1.0000
  H   H102      1.0  0.25628  0.22948  0.11583  1.0000
  H   H103      1.0  0.22980  0.23826  0.13290  1.0000
  H   H104      1.0  0.28257  0.22649  0.18081  1.0000
  C   C165      1.0  0.30380  0.22884  0.30509  1.0000
  H   H105      1.0  0.30562  0.21559  0.27945  1.0000
  C   C166      1.0  0.76837  0.74965  0.26712  1.0000
  C   C167      1.0  0.78384  0.74427  0.27938  1.0000
  H   H106      1.0  0.79133  0.74562  0.22696  1.0000
  C   C168      1.0  0.74238  0.75193  0.32881  1.0000
  C   C169      1.0  0.71124  0.76212  0.31115  1.0000
  C   C170      1.0  0.72146  0.76498  0.23912  1.0000
  C   C171      1.0  0.73708  0.75980  0.24666  1.0000
  C   C172      1.0  0.74747  0.76244  0.17546  1.0000
  C   C173      1.0  0.76299  0.75731  0.18547  1.0000
  H   H107      1.0  0.74383  0.76807  0.11585  1.0000
  H   H108      1.0  0.77031  0.75930  0.13289  1.0000
  H   H109      1.0  0.71753  0.77101  0.18081  1.0000
  C   C174      1.0  0.69631  0.76865  0.30503  1.0000
  H   H110      1.0  0.69455  0.78187  0.27906  1.0000
  C   C175      1.0  0.78800  0.26263  0.31425  1.0000
  C   C176      1.0  0.77728  0.26463  0.24331  1.0000
  N   N25       1.0  0.76252  0.25897  0.25704  1.0000
  C   C177      1.0  0.75709  0.25140  0.33461  1.0000
  C   C178      1.0  0.71643  0.24346  0.28025  1.0000
  N   N26       1.0  0.73147  0.24846  0.27517  1.0000
  H   H111      1.0  0.70967  0.24536  0.22520  1.0000
  C   C179      1.0  0.78073  0.27239  0.15322  1.0000
  H   H112      1.0  0.79280  0.27603  0.14414  1.0000
  H   H113      1.0  0.77396  0.28556  0.14144  1.0000
  H   H114      1.0  0.77768  0.26147  0.10313  1.0000
  C   C180      1.0  0.80279  0.26985  0.30930  1.0000
  H   H115      1.0  0.80416  0.28383  0.29265  1.0000
  C   C181      1.0  0.21049  0.73673  0.31279  1.0000
  C   C182      1.0  0.22131  0.73465  0.24239  1.0000
  N   N27       1.0  0.23606  0.74032  0.25670  1.0000
  C   C183      1.0  0.24137  0.74797  0.33435  1.0000
  C   C184      1.0  0.28213  0.75572  0.28189  1.0000
  N   N28       1.0  0.26709  0.75077  0.27615  1.0000
  H   H116      1.0  0.28897  0.75374  0.22722  1.0000
  C   C185      1.0  0.21798  0.72680  0.15232  1.0000
  H   H117      1.0  0.20593  0.72315  0.14275  1.0000
  H   H118      1.0  0.22477  0.71361  0.14116  1.0000
  H   H119      1.0  0.22111  0.73766  0.10213  1.0000
  C   C186      1.0  0.19571  0.72948  0.30733  1.0000
  H   H120      1.0  0.19438  0.71547  0.29106  1.0000
  N   N29       1.0  0.01256  0.11296  0.32350  1.0000
  C   C187      1.0  0.99919  0.10268  0.32769  1.0000
  N   N30       1.0  0.98573  0.11263  0.33297  1.0000
  C   C188      1.0  0.98543  0.13248  0.33212  1.0000
  N   N31       1.0  0.99896  0.14234  0.32817  1.0000
  N   N32       1.0  0.02596  0.14204  0.32083  1.0000
  N   N33       1.0  0.97202  0.14159  0.33679  1.0000
  N   N34       1.0  0.99880  0.08333  0.33023  1.0000
  N   N35       1.0  0.98655  0.88764  0.33108  1.0000
  C   C189      1.0  0.00004  0.89750  0.33725  1.0000
  N   N36       1.0  0.01339  0.88717  0.34072  1.0000
  C   C190      1.0  0.01340  0.86734  0.33805  1.0000
  N   N37       1.0  0.99972  0.85787  0.33322  1.0000
  N   N38       1.0  0.97277  0.85876  0.32584  1.0000
  N   N39       1.0  0.02669  0.85797  0.34154  1.0000
  N   N40       1.0  0.99969  0.91686  0.33802  1.0000
  N   N41       1.0  0.51261  0.61294  0.32366  1.0000
  C   C191      1.0  0.49925  0.60264  0.32737  1.0000
  N   N42       1.0  0.48577  0.61254  0.33214  1.0000
  C   C192      1.0  0.48544  0.63240  0.33120  1.0000
  N   N43       1.0  0.49897  0.64230  0.32780  1.0000
  N   N44       1.0  0.52597  0.64204  0.32134  1.0000
  N   N45       1.0  0.47202  0.64146  0.33557  1.0000
  N   N46       1.0  0.49889  0.58328  0.32994  1.0000
  N   N47       1.0  0.48655  0.38765  0.33170  1.0000
  C   C193      1.0  0.50005  0.39750  0.33737  1.0000
  N   N48       1.0  0.51340  0.38716  0.34034  1.0000
  C   C194      1.0  0.51340  0.36734  0.33760  1.0000
  N   N49       1.0  0.49971  0.35786  0.33334  1.0000
  N   N50       1.0  0.47276  0.35878  0.32681  1.0000
  N   N51       1.0  0.52670  0.35798  0.34075  1.0000
  N   N52       1.0  0.49970  0.41685  0.33821  1.0000
  N   N53       1.0  0.38870  0.99944  0.31198  1.0000
  C   C195      1.0  0.39664  0.01614  0.32853  1.0000
  N   N54       1.0  0.41219  0.01532  0.33136  1.0000
  C   C196      1.0  0.41995  0.99829  0.32028  1.0000
  N   N55       1.0  0.41179  0.98176  0.30529  1.0000
  N   N56       1.0  0.38811  0.96611  0.28603  1.0000
  N   N57       1.0  0.43511  0.99736  0.32393  1.0000
  N   N58       1.0  0.38955  0.03323  0.33436  1.0000
  N   N59       1.0  0.61123  0.99849  0.32548  1.0000
  C   C197      1.0  0.60292  0.98206  0.34176  1.0000
  N   N60       1.0  0.58739  0.98341  0.34760  1.0000
  C   C198      1.0  0.58016  0.00085  0.34085  1.0000
  N   N61       1.0  0.58866  0.01713  0.32511  1.0000
  N   N62       1.0  0.61246  0.03196  0.30106  1.0000
  N   N63       1.0  0.56505  0.00102  0.34479  1.0000
  N   N64       1.0  0.60976  0.96480  0.34426  1.0000
  N   N65       1.0  0.88898  0.49924  0.31010  1.0000
  C   C199      1.0  0.89676  0.51599  0.32813  1.0000
  N   N66       1.0  0.91231  0.51537  0.33186  1.0000
  C   C200      1.0  0.92023  0.49847  0.32030  1.0000
  N   N67       1.0  0.91222  0.48189  0.30376  1.0000
  N   N68       1.0  0.88869  0.46598  0.28213  1.0000
  N   N69       1.0  0.93539  0.49771  0.32445  1.0000
  N   N70       1.0  0.88954  0.53298  0.33443  1.0000
  N   N71       1.0  0.11143  0.49855  0.32480  1.0000
  C   C201      1.0  0.10312  0.48216  0.34204  1.0000
  N   N72       1.0  0.08760  0.48354  0.34815  1.0000
  C   C202      1.0  0.08037  0.50097  0.34070  1.0000
  N   N73       1.0  0.08887  0.51721  0.32400  1.0000
  N   N74       1.0  0.11267  0.53195  0.29876  1.0000
  N   N75       1.0  0.06527  0.50118  0.34502  1.0000
  N   N76       1.0  0.10997  0.46491  0.34529  1.0000
  N   N77       1.0  0.15917  0.24804  0.33537  1.0000
  C   C203      1.0  0.14409  0.25266  0.32651  1.0000
  N   N78       1.0  0.13989  0.27181  0.32705  1.0000
  C   C204      1.0  0.15049  0.28628  0.33433  1.0000
  N   N79       1.0  0.16544  0.28132  0.34280  1.0000
  N   N80       1.0  0.18463  0.25727  0.34686  1.0000
  N   N81       1.0  0.14685  0.30501  0.33747  1.0000
  N   N82       1.0  0.13360  0.23866  0.32364  1.0000
  N   N83       1.0  0.84081  0.75000  0.33626  1.0000
  C   C205      1.0  0.85594  0.74561  0.32755  1.0000
  N   N84       1.0  0.86032  0.72652  0.32786  1.0000
  C   C206      1.0  0.84985  0.71189  0.33483  1.0000
  N   N85       1.0  0.83484  0.71663  0.34305  1.0000
  N   N86       1.0  0.81544  0.74041  0.34715  1.0000
  N   N87       1.0  0.85361  0.69319  0.33747  1.0000
  N   N88       1.0  0.86626  0.75979  0.32495  1.0000
  C   C207      1.0  0.82913  0.26416  0.33254  1.0000
  N   N89       1.0  0.83986  0.24985  0.34052  1.0000
  C   C208      1.0  0.85499  0.25433  0.34835  1.0000
  N   N90       1.0  0.85930  0.27344  0.34650  1.0000
  C   C209      1.0  0.84878  0.28800  0.33929  1.0000
  N   N91       1.0  0.83377  0.28317  0.33179  1.0000
  N   N92       1.0  0.81445  0.25920  0.32936  1.0000
  N   N93       1.0  0.85259  0.30665  0.33349  1.0000
  N   N94       1.0  0.86538  0.24021  0.35019  1.0000
  C   C210      1.0  0.16935  0.73511  0.32991  1.0000
  N   N95       1.0  0.15859  0.74941  0.33741  1.0000
  C   C211      1.0  0.14347  0.74490  0.34529  1.0000
  N   N96       1.0  0.13919  0.72577  0.34413  1.0000
  C   C212      1.0  0.14974  0.71123  0.33737  1.0000
  N   N97       1.0  0.16473  0.71609  0.32984  1.0000
  N   N98       1.0  0.18402  0.74011  0.32693  1.0000
  N   N99       1.0  0.14598  0.69254  0.33280  1.0000
  N   N100      1.0  0.13308  0.75901  0.34719  1.0000
  N   N101      1.0  0.65936  0.74827  0.32342  1.0000
  C   C213      1.0  0.64418  0.75267  0.31819  1.0000
  N   N102      1.0  0.63982  0.77177  0.31790  1.0000
  C   C214      1.0  0.65033  0.78641  0.32084  1.0000
  N   N103      1.0  0.66538  0.78167  0.32531  1.0000
  N   N104      1.0  0.68484  0.75799  0.32874  1.0000
  N   N105      1.0  0.64658  0.80509  0.32454  1.0000
  N   N106      1.0  0.63377  0.73856  0.31821  1.0000
  N   N107      1.0  0.34056  0.24986  0.32308  1.0000
  C   C215      1.0  0.35579  0.24576  0.31783  1.0000
  N   N108      1.0  0.36037  0.22675  0.31681  1.0000
  C   C216      1.0  0.35003  0.21190  0.31898  1.0000
  N   N109      1.0  0.33493  0.21635  0.32328  1.0000
  N   N110      1.0  0.31521  0.23968  0.32791  1.0000
  N   N111      1.0  0.35396  0.19326  0.32180  1.0000
  N   N112      1.0  0.36602  0.26008  0.31850  1.0000
  C   C217      1.0  0.32914  0.76461  0.34890  1.0000
  N   N113      1.0  0.33978  0.75008  0.35128  1.0000
  C   C218      1.0  0.35499  0.75429  0.35627  1.0000
  N   N114      1.0  0.35949  0.77334  0.35589  1.0000
  C   C219      1.0  0.34908  0.78810  0.35299  1.0000
  N   N115      1.0  0.33399  0.78354  0.34863  1.0000
  N   N116      1.0  0.31439  0.76000  0.34555  1.0000
  N   N117      1.0  0.35304  0.80669  0.34688  1.0000
  N   N118      1.0  0.36528  0.74005  0.35515  1.0000
  C   C220      1.0  0.66933  0.23447  0.34567  1.0000
  N   N119      1.0  0.65866  0.24897  0.34761  1.0000
  C   C221      1.0  0.64346  0.24473  0.35268  1.0000
  N   N120      1.0  0.63899  0.22567  0.35303  1.0000
  C   C222      1.0  0.64943  0.21093  0.35057  1.0000
  N   N121      1.0  0.66451  0.21553  0.34615  1.0000
  N   N122      1.0  0.68408  0.23913  0.34264  1.0000
  N   N123      1.0  0.64553  0.19229  0.34585  1.0000
  N   N124      1.0  0.63316  0.25897  0.35173  1.0000
  C   C223      1.0  0.00916  0.02251  0.41589  1.0000
  C   C224      1.0  0.00961  0.04296  0.40346  1.0000
  H   H121      1.0  0.01222  0.05181  0.45657  1.0000
  C   C225      1.0  0.00617  0.98986  0.35016  1.0000
  C   C226      1.0  0.00770  0.94881  0.36444  1.0000
  C   C227      1.0  0.01036  0.96066  0.44016  1.0000
  C   C228      1.0  0.00954  0.98125  0.43423  1.0000
  C   C229      1.0  0.01236  0.99338  0.50865  1.0000
  C   C230      1.0  0.01213  0.01385  0.49962  1.0000
  H   H122      1.0  0.01486  0.98743  0.56959  1.0000
  H   H123      1.0  0.01448  0.02234  0.55415  1.0000
  H   H124      1.0  0.01313  0.95426  0.49988  1.0000
  C   C231      1.0  0.00973  0.92880  0.36925  1.0000
  H   H125      1.0  0.01910  0.92373  0.39951  1.0000
  C   C232      1.0  0.50932  0.52247  0.41620  1.0000
  C   C233      1.0  0.50979  0.54292  0.40385  1.0000
  H   H126      1.0  0.51244  0.55176  0.45694  1.0000
  C   C234      1.0  0.50627  0.48984  0.35037  1.0000
  C   C235      1.0  0.50775  0.44879  0.36448  1.0000
  C   C236      1.0  0.51046  0.46062  0.44020  1.0000
  C   C237      1.0  0.50966  0.48122  0.43437  1.0000
  C   C238      1.0  0.51253  0.49332  0.50880  1.0000
  C   C239      1.0  0.51232  0.51379  0.49984  1.0000
  H   H127      1.0  0.51503  0.48735  0.56970  1.0000
  H   H128      1.0  0.51468  0.52227  0.55440  1.0000
  H   H129      1.0  0.51325  0.45421  0.49986  1.0000
  C   C240      1.0  0.50979  0.42878  0.36915  1.0000
  H   H130      1.0  0.51918  0.42371  0.39909  1.0000
  C   C241      1.0  0.04352  0.16747  0.33451  1.0000
  C   C242      1.0  0.05176  0.17494  0.40897  1.0000
  N   N125      1.0  0.06514  0.18461  0.39422  1.0000
  C   C243      1.0  0.07140  0.18771  0.31249  1.0000
  C   C244      1.0  0.10434  0.21880  0.36939  1.0000
  N   N126      1.0  0.09194  0.20690  0.37508  1.0000
  H   H131      1.0  0.10862  0.22472  0.42687  1.0000
  C   C245      1.0  0.04692  0.17344  0.50348  1.0000
  H   H132      1.0  0.03637  0.16510  0.51216  1.0000
  H   H133      1.0  0.04511  0.18808  0.53055  1.0000
  H   H134      1.0  0.05591  0.16623  0.54203  1.0000
  C   C246      1.0  0.02892  0.15984  0.34244  1.0000
  H   H135      1.0  0.02073  0.16851  0.36638  1.0000
  C   C247      1.0  0.95513  0.83329  0.33806  1.0000
  C   C248      1.0  0.94698  0.82552  0.41221  1.0000
  N   N127      1.0  0.93375  0.81554  0.39707  1.0000
  C   C249      1.0  0.92757  0.81240  0.31521  1.0000
  C   C250      1.0  0.89518  0.78031  0.37109  1.0000
  N   N128      1.0  0.90736  0.79256  0.37716  1.0000
  H   H136      1.0  0.89097  0.77423  0.42842  1.0000
  C   C251      1.0  0.95182  0.82691  0.50677  1.0000
  H   H137      1.0  0.96223  0.83552  0.51583  1.0000
  H   H138      1.0  0.95387  0.81226  0.53310  1.0000
  H   H139      1.0  0.94272  0.83379  0.54572  1.0000
  C   C252      1.0  0.96972  0.84090  0.34631  1.0000
  H   H140      1.0  0.97789  0.83211  0.36968  1.0000
  C   C253      1.0  0.93471  0.18021  0.42689  1.0000
  C   C254      1.0  0.94843  0.16969  0.41274  1.0000
  H   H141      1.0  0.95446  0.16463  0.46677  1.0000
  C   C255      1.0  0.91372  0.19967  0.36343  1.0000
  C   C256      1.0  0.88864  0.22523  0.38486  1.0000
  C   C257      1.0  0.89573  0.21676  0.46042  1.0000
  C   C258      1.0  0.90825  0.20380  0.45075  1.0000
  C   C259      1.0  0.91583  0.19560  0.52512  1.0000
  C   C260      1.0  0.92891  0.18385  0.51328  1.0000
  H   H142      1.0  0.91211  0.19850  0.58852  1.0000
  H   H143      1.0  0.93443  0.17847  0.56833  1.0000
  H   H144      1.0  0.89207  0.22054  0.52306  1.0000
  C   C261      1.0  0.87800  0.24004  0.39459  1.0000
  H   H145      1.0  0.88070  0.25122  0.43426  1.0000
  C   C262      1.0  0.06391  0.81908  0.42775  1.0000
  C   C263      1.0  0.05018  0.82963  0.41444  1.0000
  H   H146      1.0  0.04424  0.83464  0.46885  1.0000
  C   C264      1.0  0.08483  0.79969  0.36296  1.0000
  C   C265      1.0  0.10987  0.77404  0.38284  1.0000
  C   C266      1.0  0.10288  0.78243  0.45886  1.0000
  C   C267      1.0  0.09037  0.79544  0.44998  1.0000
  C   C268      1.0  0.08289  0.80355  0.52486  1.0000
  C   C269      1.0  0.06981  0.81535  0.51382  1.0000
  H   H147      1.0  0.08667  0.80056  0.58803  1.0000
  H   H148      1.0  0.06434  0.82064  0.56923  1.0000
  H   H149      1.0  0.10660  0.77856  0.52128  1.0000
  C   C270      1.0  0.12049  0.75918  0.39189  1.0000
  H   H150      1.0  0.11785  0.74803  0.43187  1.0000
  C   C271      1.0  0.54356  0.66742  0.33563  1.0000
  C   C272      1.0  0.55175  0.67523  0.40953  1.0000
  N   N129      1.0  0.56516  0.68481  0.39414  1.0000
  C   C273      1.0  0.57149  0.68750  0.31230  1.0000
  C   C274      1.0  0.60443  0.71883  0.36661  1.0000
  N   N130      1.0  0.59201  0.70698  0.37332  1.0000
  H   H151      1.0  0.60868  0.72506  0.42349  1.0000
  C   C275      1.0  0.54686  0.67417  0.50406  1.0000
  H   H152      1.0  0.53631  0.66587  0.51336  1.0000
  H   H153      1.0  0.54503  0.68894  0.52965  1.0000
  H   H154      1.0  0.55583  0.66715  0.54349  1.0000
  C   C276      1.0  0.52897  0.65976  0.34396  1.0000
  H   H155      1.0  0.52079  0.66838  0.36852  1.0000
  C   C277      1.0  0.45506  0.33339  0.33997  1.0000
  C   C278      1.0  0.44693  0.32524  0.41335  1.0000
  N   N131      1.0  0.43367  0.31540  0.39729  1.0000
  C   C279      1.0  0.42743  0.31275  0.31521  1.0000
  C   C280      1.0  0.39497  0.28045  0.36762  1.0000
  N   N132      1.0  0.40719  0.29262  0.37503  1.0000
  H   H156      1.0  0.39080  0.27399  0.42416  1.0000
  C   C281      1.0  0.45179  0.32614  0.50801  1.0000
  H   H157      1.0  0.46220  0.33470  0.51793  1.0000
  H   H158      1.0  0.45384  0.31136  0.53272  1.0000
  H   H159      1.0  0.44270  0.33282  0.54775  1.0000
  C   C282      1.0  0.46964  0.34104  0.34888  1.0000
  H   H160      1.0  0.47777  0.33234  0.37342  1.0000
  C   C283      1.0  0.43454  0.67944  0.42592  1.0000
  C   C284      1.0  0.44828  0.66902  0.41096  1.0000
  H   H161      1.0  0.45428  0.66371  0.46459  1.0000
  C   C285      1.0  0.41356  0.69918  0.36413  1.0000
  C   C286      1.0  0.38851  0.72465  0.38797  1.0000
  C   C287      1.0  0.39554  0.71577  0.46268  1.0000
  C   C288      1.0  0.40806  0.70286  0.45180  1.0000
  C   C289      1.0  0.41560  0.69429  0.52542  1.0000
  C   C290      1.0  0.42870  0.68262  0.51257  1.0000
  H   H162      1.0  0.41187  0.69690  0.58905  1.0000
  H   H163      1.0  0.43422  0.67701  0.56714  1.0000
  H   H164      1.0  0.39187  0.71925  0.52568  1.0000
  C   C291      1.0  0.37792  0.73947  0.39937  1.0000
  H   H165      1.0  0.38062  0.75030  0.44099  1.0000
  C   C292      1.0  0.56408  0.31968  0.42693  1.0000
  C   C293      1.0  0.55034  0.33015  0.41299  1.0000
  H   H166      1.0  0.54444  0.33543  0.46707  1.0000
  C   C294      1.0  0.58493  0.29995  0.36356  1.0000
  C   C295      1.0  0.60999  0.27441  0.38554  1.0000
  C   C296      1.0  0.60308  0.28322  0.46078  1.0000
  C   C297      1.0  0.59057  0.29618  0.45084  1.0000
  C   C298      1.0  0.58316  0.30468  0.52507  1.0000
  C   C299      1.0  0.57005  0.31639  0.51319  1.0000
  H   H167      1.0  0.58701  0.30203  0.58842  1.0000
  H   H168      1.0  0.56465  0.32199  0.56817  1.0000
  H   H169      1.0  0.60686  0.27969  0.52352  1.0000
  C   C300      1.0  0.62055  0.25953  0.39620  1.0000
  H   H170      1.0  0.61788  0.24869  0.43788  1.0000
  C   C301      1.0  0.37492  0.13840  0.42104  1.0000
  C   C302      1.0  0.37210  0.15845  0.40617  1.0000
  H   H171      1.0  0.37278  0.16802  0.45871  1.0000
  C   C303      1.0  0.37776  0.10544  0.35873  1.0000
  C   C304      1.0  0.38674  0.06606  0.37698  1.0000
  C   C305      1.0  0.38651  0.07854  0.45222  1.0000
  C   C306      1.0  0.38201  0.09830  0.44425  1.0000
  C   C307      1.0  0.38229  0.11120  0.51777  1.0000
  C   C308      1.0  0.37872  0.13109  0.50630  1.0000
  H   H172      1.0  0.38541  0.10632  0.57971  1.0000
  H   H173      1.0  0.37930  0.14026  0.56017  1.0000
  H   H174      1.0  0.39027  0.07344  0.51271  1.0000
  C   C309      1.0  0.39371  0.04792  0.38242  1.0000
  H   H175      1.0  0.40294  0.04675  0.42134  1.0000
  C   C310      1.0  0.62666  0.86000  0.42116  1.0000
  C   C311      1.0  0.62972  0.84006  0.40479  1.0000
  H   H176      1.0  0.62981  0.83043  0.45725  1.0000
  C   C312      1.0  0.62235  0.89286  0.36068  1.0000
  C   C313      1.0  0.61277  0.93188  0.38295  1.0000
  C   C314      1.0  0.61408  0.91939  0.45776  1.0000
  C   C315      1.0  0.61892  0.89980  0.44777  1.0000
  C   C316      1.0  0.61980  0.88687  0.52102  1.0000
  C   C317      1.0  0.62370  0.86713  0.50785  1.0000
  H   H177      1.0  0.61729  0.89161  0.58410  1.0000
  H   H178      1.0  0.62393  0.85791  0.56165  1.0000
  H   H179      1.0  0.61097  0.92437  0.51967  1.0000
  C   C318      1.0  0.60576  0.94992  0.39142  1.0000
  H   H180      1.0  0.59683  0.95096  0.43265  1.0000
  C   C319      1.0  0.63083  0.16432  0.35181  1.0000
  C   C320      1.0  0.62950  0.15035  0.42159  1.0000
  N   N133      1.0  0.62666  0.13139  0.39978  1.0000
  C   C321      1.0  0.62495  0.12466  0.31509  1.0000
  C   C322      1.0  0.61608  0.07280  0.35394  1.0000
  N   N134      1.0  0.61986  0.09186  0.36628  1.0000
  H   H181      1.0  0.61464  0.06417  0.40901  1.0000
  C   C323      1.0  0.63096  0.15462  0.51811  1.0000
  H   H182      1.0  0.63344  0.16996  0.53178  1.0000
  H   H183      1.0  0.64023  0.14585  0.54624  1.0000
  H   H184      1.0  0.62028  0.15080  0.55189  1.0000
  C   C324      1.0  0.63282  0.18403  0.36716  1.0000
  H   H185      1.0  0.62410  0.19168  0.39200  1.0000
  C   C325      1.0  0.36788  0.83455  0.35088  1.0000
  C   C326      1.0  0.36902  0.84892  0.41904  1.0000
  N   N135      1.0  0.37215  0.86770  0.39525  1.0000
  C   C327      1.0  0.37428  0.87387  0.31000  1.0000
  C   C328      1.0  0.38370  0.92573  0.34372  1.0000
  N   N136      1.0  0.37958  0.90686  0.35783  1.0000
  H   H186      1.0  0.38502  0.93466  0.39792  1.0000
  C   C329      1.0  0.36713  0.84526  0.51581  1.0000
  H   H187      1.0  0.36446  0.83005  0.53103  1.0000
  H   H188      1.0  0.35781  0.85432  0.54149  1.0000
  H   H189      1.0  0.37769  0.84914  0.55064  1.0000
  C   C330      1.0  0.36574  0.81496  0.36837  1.0000
  H   H190      1.0  0.37437  0.80736  0.39450  1.0000
  C   C331      1.0  0.87387  0.63774  0.42522  1.0000
  C   C332      1.0  0.87092  0.65778  0.41111  1.0000
  H   H191      1.0  0.87139  0.66724  0.46419  1.0000
  C   C333      1.0  0.87718  0.60498  0.36145  1.0000
  C   C334      1.0  0.88638  0.56565  0.37847  1.0000
  C   C335      1.0  0.88585  0.57795  0.45433  1.0000
  C   C336      1.0  0.88123  0.59767  0.44699  1.0000
  C   C337      1.0  0.88119  0.61038  0.52120  1.0000
  C   C338      1.0  0.87748  0.63026  0.51046  1.0000
  H   H192      1.0  0.88417  0.60538  0.58317  1.0000
  H   H193      1.0  0.87782  0.63929  0.56486  1.0000
  H   H194      1.0  0.88948  0.57273  0.51489  1.0000
  C   C339      1.0  0.89347  0.54758  0.38364  1.0000
  H   H195      1.0  0.90263  0.54645  0.42311  1.0000
  C   C340      1.0  0.12721  0.36035  0.42632  1.0000
  C   C341      1.0  0.13037  0.34042  0.41075  1.0000
  H   H196      1.0  0.13049  0.33089  0.46361  1.0000
  C   C342      1.0  0.12274  0.39306  0.36450  1.0000
  C   C343      1.0  0.11302  0.43207  0.38520  1.0000
  C   C344      1.0  0.11439  0.41973  0.46051  1.0000
  C   C345      1.0  0.11930  0.40016  0.45131  1.0000
  C   C346      1.0  0.12024  0.38738  0.52508  1.0000
  C   C347      1.0  0.12422  0.36763  0.51271  1.0000
  H   H197      1.0  0.11772  0.39222  0.58799  1.0000
  H   H198      1.0  0.12452  0.35854  0.56690  1.0000
  H   H199      1.0  0.11126  0.42482  0.52222  1.0000
  C   C348      1.0  0.10598  0.45010  0.39293  1.0000
  H   H200      1.0  0.09701  0.45118  0.43395  1.0000
  C   C349      1.0  0.13163  0.66429  0.34344  1.0000
  C   C350      1.0  0.13034  0.65045  0.41381  1.0000
  N   N137      1.0  0.12740  0.63146  0.39287  1.0000
  C   C351      1.0  0.12557  0.62458  0.30853  1.0000
  C   C352      1.0  0.11653  0.57286  0.34991  1.0000
  N   N138      1.0  0.12041  0.59191  0.36130  1.0000
  H   H201      1.0  0.11512  0.56436  0.40540  1.0000
  C   C353      1.0  0.13193  0.65486  0.51012  1.0000
  H   H202      1.0  0.13454  0.67019  0.52317  1.0000
  H   H203      1.0  0.14118  0.64604  0.53821  1.0000
  H   H204      1.0  0.12127  0.65122  0.54445  1.0000
  C   C354      1.0  0.13359  0.68404  0.35811  1.0000
  H   H205      1.0  0.12512  0.69150  0.38681  1.0000
  C   C355      1.0  0.86707  0.33485  0.34270  1.0000
  C   C356      1.0  0.86882  0.34892  0.41173  1.0000
  N   N139      1.0  0.87210  0.36772  0.38888  1.0000
  C   C357      1.0  0.87385  0.37418  0.30381  1.0000
  C   C358      1.0  0.88456  0.42554  0.34015  1.0000
  N   N140      1.0  0.88010  0.40676  0.35340  1.0000
  H   H206      1.0  0.88643  0.43416  0.39483  1.0000
  C   C359      1.0  0.86740  0.34497  0.50855  1.0000
  H   H207      1.0  0.86447  0.32981  0.52318  1.0000
  H   H208      1.0  0.85844  0.35426  0.53671  1.0000
  H   H209      1.0  0.87823  0.34835  0.54158  1.0000
  C   C360      1.0  0.86493  0.31520  0.35932  1.0000
  H   H210      1.0  0.87328  0.30778  0.38944  1.0000
  C   C361      1.0  0.48308  0.01223  0.42660  1.0000
  C   C362      1.0  0.46701  0.01241  0.41668  1.0000
  H   H211      1.0  0.46028  0.01604  0.47034  1.0000
  C   C363      1.0  0.50836  0.00895  0.35669  1.0000
  C   C364      1.0  0.54043  0.01245  0.36398  1.0000
  C   C365      1.0  0.53159  0.01585  0.44136  1.0000
  C   C366      1.0  0.51546  0.01405  0.43884  1.0000
  C   C367      1.0  0.50629  0.01767  0.51465  1.0000
  C   C368      1.0  0.49021  0.01674  0.50861  1.0000
  H   H212      1.0  0.51121  0.02141  0.57425  1.0000
  H   H213      1.0  0.48378  0.01986  0.56390  1.0000
  H   H214      1.0  0.53690  0.01987  0.49956  1.0000
  C   C369      1.0  0.55606  0.01521  0.36496  1.0000
  H   H215      1.0  0.56019  0.02820  0.38292  1.0000
  C   C370      1.0  0.98341  0.51255  0.42926  1.0000
  C   C371      1.0  0.96732  0.51276  0.41995  1.0000
  H   H216      1.0  0.96066  0.51630  0.47403  1.0000
  C   C372      1.0  0.00860  0.50933  0.35828  1.0000
  C   C373      1.0  0.04068  0.51271  0.36450  1.0000
  C   C374      1.0  0.03193  0.51602  0.44231  1.0000
  C   C375      1.0  0.01580  0.51427  0.44034  1.0000
  C   C376      1.0  0.00672  0.51780  0.51661  1.0000
  C   C377      1.0  0.99064  0.51691  0.51115  1.0000
  H   H217      1.0  0.01171  0.52143  0.57613  1.0000
  H   H218      1.0  0.98426  0.51997  0.56677  1.0000
  H   H219      1.0  0.03731  0.51993  0.50045  1.0000
  C   C378      1.0  0.05632  0.51542  0.36498  1.0000
  H   H220      1.0  0.06048  0.52843  0.38239  1.0000
  C   C379      1.0  0.21107  0.26086  0.36196  1.0000
  C   C380      1.0  0.22188  0.26295  0.43239  1.0000
  N   N141      1.0  0.23669  0.25762  0.41760  1.0000
  C   C381      1.0  0.24207  0.25031  0.33942  1.0000
  C   C382      1.0  0.28292  0.24324  0.39113  1.0000
  N   N142      1.0  0.26782  0.24786  0.39727  1.0000
  H   H221      1.0  0.28974  0.24520  0.44587  1.0000
  C   C383      1.0  0.21849  0.27051  0.52290  1.0000
  H   H222      1.0  0.20639  0.27387  0.53280  1.0000
  H   H223      1.0  0.22511  0.28381  0.53466  1.0000
  H   H224      1.0  0.22177  0.25959  0.57249  1.0000
  C   C384      1.0  0.19626  0.26792  0.36776  1.0000
  H   H225      1.0  0.19484  0.28188  0.38479  1.0000
  C   C385      1.0  0.78902  0.73654  0.36165  1.0000
  C   C386      1.0  0.77820  0.73433  0.43193  1.0000
  N   N143      1.0  0.76338  0.73963  0.41712  1.0000
  C   C387      1.0  0.75801  0.74700  0.33904  1.0000
  C   C388      1.0  0.71715  0.75401  0.39071  1.0000
  N   N144      1.0  0.73224  0.74937  0.39680  1.0000
  H   H226      1.0  0.71033  0.75203  0.44545  1.0000
  C   C389      1.0  0.78159  0.72671  0.52233  1.0000
  H   H227      1.0  0.79369  0.72337  0.53224  1.0000
  H   H228      1.0  0.77499  0.71338  0.53382  1.0000
  H   H229      1.0  0.77828  0.73758  0.57208  1.0000
  C   C390      1.0  0.80387  0.72960  0.36747  1.0000
  H   H230      1.0  0.80537  0.71565  0.38428  1.0000
  C   C391      1.0  0.76736  0.24893  0.40716  1.0000
  C   C392      1.0  0.78278  0.25469  0.39600  1.0000
  H   H231      1.0  0.79018  0.25347  0.44887  1.0000
  C   C393      1.0  0.74152  0.24608  0.34372  1.0000
  C   C394      1.0  0.71050  0.23514  0.35928  1.0000
  C   C395      1.0  0.72062  0.23245  0.43187  1.0000
  C   C396      1.0  0.73618  0.23800  0.42538  1.0000
  C   C397      1.0  0.74647  0.23556  0.49720  1.0000
  C   C398      1.0  0.76193  0.24107  0.48829  1.0000
  H   H232      1.0  0.74280  0.22979  0.55648  1.0000
  H   H233      1.0  0.76918  0.23922  0.54132  1.0000
  H   H234      1.0  0.71667  0.22629  0.48986  1.0000
  C   C399      1.0  0.69560  0.22840  0.36457  1.0000
  H   H235      1.0  0.69392  0.21504  0.38923  1.0000
  C   C400      1.0  0.23100  0.75053  0.40634  1.0000
  C   C401      1.0  0.21560  0.74476  0.39459  1.0000
  H   H236      1.0  0.20812  0.74604  0.44708  1.0000
  C   C402      1.0  0.25694  0.75327  0.34412  1.0000
  C   C403      1.0  0.28796  0.76411  0.36103  1.0000
  C   C404      1.0  0.27773  0.76694  0.43301  1.0000
  C   C405      1.0  0.26217  0.76143  0.42586  1.0000
  C   C406      1.0  0.25177  0.76398  0.49709  1.0000
  C   C407      1.0  0.23632  0.75848  0.48755  1.0000
  H   H237      1.0  0.25536  0.76980  0.55642  1.0000
  H   H238      1.0  0.22900  0.76040  0.54018  1.0000
  H   H239      1.0  0.28161  0.77314  0.49106  1.0000
  C   C408      1.0  0.30287  0.77080  0.36687  1.0000
  H   H240      1.0  0.30456  0.78417  0.39130  1.0000
