data_image0
_chemical_formula_structural       NCHNCHNCHNCHNCHNCHC2NC2NC2NC2NC2NC2NC2NC2NC2NC2NC2NC2NC2NC2NC2NC2NC2NC2NC2NC2NC2NC2NC2NC2NCNCNCNC18H12CNCNCNC18H12CNCNCNC18H12CNCNCNC18H12CNCNCNC18H12CNCNCNC18H12CNCNCNC18H12CNCNCNC18H12CNCNCNC18H12CNCNCNC18H12CNCNCNC18H12CNCNCNC18H12C2NC2NC2NC2NC2NC2NC2NC2NC2NC2NC2NC2N2CHNCHNCHNCHNCHNCHNCHNCHNCHNCHNCHNCH
_chemical_formula_sum              "N90 C342 H162"
_cell_length_a       74.3037
_cell_length_b       74.3038
_cell_length_c       15.0227
_cell_angle_alpha    90
_cell_angle_beta     90
_cell_angle_gamma    120

_space_group_name_H-M_alt    "P 1"
_space_group_IT_number       1

loop_
  _space_group_symop_operation_xyz
  'x, y, z'

loop_
  _atom_site_type_symbol
  _atom_site_label
  _atom_site_symmetry_multiplicity
  _atom_site_fract_x
  _atom_site_fract_y
  _atom_site_fract_z
  _atom_site_occupancy
  N   N1        1.0  0.17654  0.37444  0.28016  1.0000
  C   C1        1.0  0.18601  0.39541  0.27342  1.0000
  H   H1        1.0  0.18190  0.40178  0.22267  1.0000
  N   N2        1.0  0.61032  0.78826  0.28062  1.0000
  C   C2        1.0  0.58935  0.77672  0.27395  1.0000
  H   H2        1.0  0.58299  0.76623  0.22326  1.0000
  N   N3        1.0  0.19647  0.80832  0.28079  1.0000
  C   C3        1.0  0.20800  0.79888  0.27411  1.0000
  H   H3        1.0  0.21852  0.80303  0.22350  1.0000
  N   N4        1.0  0.81239  0.60627  0.28057  1.0000
  C   C4        1.0  0.80295  0.58531  0.27390  1.0000
  H   H4        1.0  0.80709  0.57894  0.22322  1.0000
  N   N5        1.0  0.37847  0.19235  0.28054  1.0000
  C   C5        1.0  0.39944  0.20387  0.27381  1.0000
  H   H5        1.0  0.40580  0.21436  0.22308  1.0000
  N   N6        1.0  0.79234  0.17230  0.28087  1.0000
  C   C6        1.0  0.78080  0.18173  0.27421  1.0000
  H   H6        1.0  0.77026  0.17755  0.22369  1.0000
  C   C7        1.0  0.18201  0.19993  0.32164  1.0000
  C   C8        1.0  0.20262  0.17700  0.33081  1.0000
  N   N7        1.0  0.20748  0.19200  0.26829  1.0000
  C   C9        1.0  0.19810  0.20358  0.26072  1.0000
  C   C10       1.0  0.20384  0.21650  0.19421  1.0000
  N   N8        1.0  0.20888  0.22784  0.13526  1.0000
  C   C11       1.0  0.78481  0.96834  0.32163  1.0000
  C   C12       1.0  0.80775  0.01187  0.33075  1.0000
  N   N9        1.0  0.79274  0.00173  0.26829  1.0000
  C   C13       1.0  0.78115  0.98077  0.26077  1.0000
  C   C14       1.0  0.76823  0.97360  0.19425  1.0000
  N   N10       1.0  0.75689  0.96730  0.13531  1.0000
  C   C15       1.0  0.01640  0.80274  0.32162  1.0000
  C   C16       1.0  0.97287  0.78213  0.33077  1.0000
  N   N11       1.0  0.98301  0.77726  0.26832  1.0000
  C   C17       1.0  0.00397  0.78663  0.26081  1.0000
  C   C18       1.0  0.01114  0.78090  0.19424  1.0000
  N   N12       1.0  0.01744  0.77588  0.13524  1.0000
  C   C19       1.0  0.80681  0.78076  0.32164  1.0000
  C   C20       1.0  0.78619  0.80368  0.33082  1.0000
  N   N13       1.0  0.78132  0.78867  0.26836  1.0000
  C   C21       1.0  0.79070  0.77708  0.26083  1.0000
  C   C22       1.0  0.78497  0.76418  0.19427  1.0000
  N   N14       1.0  0.77995  0.75285  0.13527  1.0000
  C   C23       1.0  0.20398  0.01232  0.32159  1.0000
  C   C24       1.0  0.18107  0.96879  0.33084  1.0000
  N   N15       1.0  0.19607  0.97892  0.26835  1.0000
  C   C25       1.0  0.20766  0.99988  0.26079  1.0000
  C   C26       1.0  0.22055  0.00705  0.19421  1.0000
  N   N16       1.0  0.23187  0.01335  0.13518  1.0000
  C   C27       1.0  0.97245  0.17791  0.32161  1.0000
  C   C28       1.0  0.01598  0.19854  0.33086  1.0000
  N   N17       1.0  0.00584  0.20340  0.26834  1.0000
  C   C29       1.0  0.98488  0.19400  0.26073  1.0000
  C   C30       1.0  0.97771  0.19975  0.19423  1.0000
  N   N18       1.0  0.97140  0.20478  0.13530  1.0000
  C   C31       1.0  0.21160  0.58061  0.33322  1.0000
  C   C32       1.0  0.21177  0.61827  0.31804  1.0000
  N   N19       1.0  0.21236  0.60765  0.24537  1.0000
  C   C33       1.0  0.21138  0.58894  0.24843  1.0000
  C   C34       1.0  0.21360  0.58161  0.17310  1.0000
  N   N20       1.0  0.21557  0.57513  0.10670  1.0000
  C   C35       1.0  0.40416  0.61717  0.33298  1.0000
  C   C36       1.0  0.36647  0.57973  0.31840  1.0000
  N   N21       1.0  0.37703  0.59089  0.24551  1.0000
  C   C37       1.0  0.39576  0.60862  0.24831  1.0000
  C   C38       1.0  0.40305  0.61814  0.17291  1.0000
  N   N22       1.0  0.40950  0.62657  0.10645  1.0000
  C   C39       1.0  0.36744  0.77299  0.33335  1.0000
  C   C40       1.0  0.40494  0.77283  0.31838  1.0000
  N   N23       1.0  0.39372  0.77220  0.24565  1.0000
  C   C41       1.0  0.37597  0.77316  0.24859  1.0000
  C   C42       1.0  0.36643  0.77090  0.17322  1.0000
  N   N24       1.0  0.35799  0.76890  0.10677  1.0000
  C   C43       1.0  0.77706  0.39994  0.33350  1.0000
  C   C44       1.0  0.77692  0.36229  0.31824  1.0000
  N   N25       1.0  0.77626  0.37290  0.24562  1.0000
  C   C45       1.0  0.77724  0.39161  0.24867  1.0000
  C   C46       1.0  0.77491  0.39886  0.17332  1.0000
  N   N26       1.0  0.77284  0.40526  0.10689  1.0000
  C   C47       1.0  0.58475  0.36335  0.33336  1.0000
  C   C48       1.0  0.62240  0.40089  0.31848  1.0000
  N   N27       1.0  0.61181  0.38966  0.24577  1.0000
  C   C49       1.0  0.59308  0.37192  0.24860  1.0000
  C   C50       1.0  0.58591  0.36236  0.17319  1.0000
  N   N28       1.0  0.57957  0.35389  0.10672  1.0000
  C   C51       1.0  0.62130  0.20753  0.33326  1.0000
  C   C52       1.0  0.58383  0.20769  0.31836  1.0000
  N   N29       1.0  0.59503  0.20832  0.24559  1.0000
  C   C53       1.0  0.61275  0.20729  0.24846  1.0000
  C   C54       1.0  0.62233  0.20969  0.17308  1.0000
  N   N30       1.0  0.63080  0.21182  0.10663  1.0000
  C   C55       1.0  0.13693  0.24355  0.33210  1.0000
  N   N31       1.0  0.14688  0.26465  0.33243  1.0000
  C   C56       1.0  0.13673  0.27560  0.33300  1.0000
  N   N32       1.0  0.11561  0.26450  0.33308  1.0000
  C   C57       1.0  0.10473  0.24337  0.33302  1.0000
  N   N33       1.0  0.11582  0.23334  0.33259  1.0000
  C   C58       1.0  0.14781  0.29774  0.33456  1.0000
  C   C59       1.0  0.16975  0.30905  0.34284  1.0000
  C   C60       1.0  0.18071  0.33087  0.34608  1.0000
  C   C61       1.0  0.17014  0.34222  0.34136  1.0000
  C   C62       1.0  0.14832  0.33109  0.33097  1.0000
  C   C63       1.0  0.13734  0.30923  0.32837  1.0000
  C   C64       1.0  0.14820  0.23267  0.33028  1.0000
  C   C65       1.0  0.17018  0.24350  0.32428  1.0000
  C   C66       1.0  0.18131  0.23280  0.32104  1.0000
  C   C67       1.0  0.17087  0.21087  0.32351  1.0000
  C   C68       1.0  0.14899  0.19997  0.33141  1.0000
  C   C69       1.0  0.13785  0.21068  0.33404  1.0000
  C   C70       1.0  0.08263  0.23219  0.33320  1.0000
  C   C71       1.0  0.07138  0.21078  0.35488  1.0000
  C   C72       1.0  0.04952  0.19973  0.35528  1.0000
  C   C73       1.0  0.03807  0.20961  0.33274  1.0000
  C   C74       1.0  0.04928  0.23093  0.31003  1.0000
  C   C75       1.0  0.07113  0.24206  0.31121  1.0000
  H   H7        1.0  0.19719  0.24127  0.31848  1.0000
  H   H8        1.0  0.17845  0.25938  0.32208  1.0000
  H   H9        1.0  0.14090  0.18407  0.33371  1.0000
  H   H10       1.0  0.12201  0.20211  0.33885  1.0000
  H   H11       1.0  0.07896  0.20293  0.37139  1.0000
  H   H12       1.0  0.04210  0.18422  0.37003  1.0000
  H   H13       1.0  0.07851  0.25746  0.29423  1.0000
  H   H14       1.0  0.04163  0.23873  0.29372  1.0000
  H   H15       1.0  0.12153  0.30185  0.32175  1.0000
  H   H16       1.0  0.14014  0.33879  0.32694  1.0000
  H   H17       1.0  0.19657  0.33839  0.35053  1.0000
  H   H18       1.0  0.17811  0.30155  0.34695  1.0000
  C   C76       1.0  0.74120  0.87964  0.33214  1.0000
  N   N34       1.0  0.72010  0.86849  0.33252  1.0000
  C   C77       1.0  0.70915  0.84738  0.33310  1.0000
  N   N35       1.0  0.72025  0.83737  0.33313  1.0000
  C   C78       1.0  0.74138  0.84762  0.33301  1.0000
  N   N36       1.0  0.75141  0.86873  0.33258  1.0000
  C   C79       1.0  0.68701  0.83632  0.33471  1.0000
  C   C80       1.0  0.67569  0.84694  0.34267  1.0000
  C   C81       1.0  0.65387  0.83608  0.34596  1.0000
  C   C82       1.0  0.64253  0.81415  0.34161  1.0000
  C   C83       1.0  0.65367  0.80346  0.33150  1.0000
  C   C84       1.0  0.67552  0.81435  0.32887  1.0000
  C   C85       1.0  0.75207  0.90178  0.33030  1.0000
  C   C86       1.0  0.74125  0.91293  0.32433  1.0000
  C   C87       1.0  0.75194  0.93476  0.32111  1.0000
  C   C88       1.0  0.77388  0.94626  0.32350  1.0000
  C   C89       1.0  0.78477  0.93527  0.33137  1.0000
  C   C90       1.0  0.77406  0.91342  0.33402  1.0000
  C   C91       1.0  0.75257  0.83669  0.33314  1.0000
  C   C92       1.0  0.77398  0.84685  0.35474  1.0000
  C   C93       1.0  0.78502  0.83604  0.35510  1.0000
  C   C94       1.0  0.77514  0.81471  0.33264  1.0000
  C   C95       1.0  0.75381  0.80460  0.30997  1.0000
  C   C96       1.0  0.74268  0.81532  0.31118  1.0000
  H   H19       1.0  0.74347  0.94218  0.31854  1.0000
  H   H20       1.0  0.72536  0.90532  0.32216  1.0000
  H   H21       1.0  0.80067  0.94308  0.33364  1.0000
  H   H22       1.0  0.78264  0.90616  0.33881  1.0000
  H   H23       1.0  0.78183  0.86228  0.37122  1.0000
  H   H24       1.0  0.80054  0.84413  0.36985  1.0000
  H   H25       1.0  0.72728  0.80731  0.29429  1.0000
  H   H26       1.0  0.74600  0.78914  0.29376  1.0000
  H   H27       1.0  0.68291  0.80592  0.32250  1.0000
  H   H28       1.0  0.64597  0.78758  0.32776  1.0000
  H   H29       1.0  0.64634  0.84441  0.35018  1.0000
  H   H30       1.0  0.68318  0.86281  0.34652  1.0000
  C   C97       1.0  0.10510  0.84783  0.33212  1.0000
  N   N37       1.0  0.11624  0.83788  0.33252  1.0000
  C   C98       1.0  0.13735  0.84804  0.33314  1.0000
  N   N38       1.0  0.14737  0.86915  0.33319  1.0000
  C   C99       1.0  0.13712  0.88003  0.33305  1.0000
  N   N39       1.0  0.11601  0.86895  0.33258  1.0000
  C   C100      1.0  0.14841  0.83695  0.33477  1.0000
  C   C101      1.0  0.13777  0.81500  0.34251  1.0000
  C   C102      1.0  0.14863  0.80404  0.34578  1.0000
  C   C103      1.0  0.17056  0.81462  0.34165  1.0000
  C   C104      1.0  0.18126  0.83646  0.33180  1.0000
  C   C105      1.0  0.17038  0.84743  0.32916  1.0000
  C   C106      1.0  0.08296  0.83656  0.33027  1.0000
  C   C107      1.0  0.07180  0.81459  0.32432  1.0000
  C   C108      1.0  0.04998  0.80345  0.32107  1.0000
  C   C109      1.0  0.03848  0.81389  0.32348  1.0000
  C   C110      1.0  0.04946  0.83577  0.33133  1.0000
  C   C111      1.0  0.07131  0.84691  0.33397  1.0000
  C   C112      1.0  0.14805  0.90214  0.33320  1.0000
  C   C113      1.0  0.13789  0.91339  0.35482  1.0000
  C   C114      1.0  0.14870  0.93525  0.35520  1.0000
  C   C115      1.0  0.17003  0.94669  0.33270  1.0000
  C   C116      1.0  0.18015  0.93548  0.31004  1.0000
  C   C117      1.0  0.16942  0.91363  0.31124  1.0000
  H   H31       1.0  0.04256  0.78757  0.31855  1.0000
  H   H32       1.0  0.07942  0.80631  0.32217  1.0000
  H   H33       1.0  0.04165  0.84386  0.33359  1.0000
  H   H34       1.0  0.07857  0.86275  0.33874  1.0000
  H   H35       1.0  0.12246  0.90582  0.37130  1.0000
  H   H36       1.0  0.14062  0.94268  0.36991  1.0000
  H   H37       1.0  0.17743  0.90624  0.29431  1.0000
  H   H38       1.0  0.19560  0.94312  0.29376  1.0000
  H   H39       1.0  0.17882  0.86325  0.32295  1.0000
  H   H40       1.0  0.19715  0.84464  0.32821  1.0000
  H   H41       1.0  0.14029  0.78817  0.34982  1.0000
  H   H42       1.0  0.12191  0.80663  0.34617  1.0000
  C   C118      1.0  0.85191  0.73716  0.33208  1.0000
  N   N40       1.0  0.84196  0.71606  0.33245  1.0000
  C   C119      1.0  0.85212  0.70511  0.33301  1.0000
  N   N41       1.0  0.87323  0.71621  0.33304  1.0000
  C   C120      1.0  0.88411  0.73734  0.33292  1.0000
  N   N42       1.0  0.87303  0.74737  0.33251  1.0000
  C   C121      1.0  0.84103  0.68297  0.33462  1.0000
  C   C122      1.0  0.81909  0.67166  0.34246  1.0000
  C   C123      1.0  0.80813  0.64983  0.34574  1.0000
  C   C124      1.0  0.81871  0.63849  0.34151  1.0000
  C   C125      1.0  0.84055  0.64963  0.33152  1.0000
  C   C126      1.0  0.85152  0.67148  0.32889  1.0000
  C   C127      1.0  0.84064  0.74803  0.33027  1.0000
  C   C128      1.0  0.81866  0.73721  0.32432  1.0000
  C   C129      1.0  0.80752  0.74789  0.32113  1.0000
  C   C130      1.0  0.81796  0.76983  0.32350  1.0000
  C   C131      1.0  0.83984  0.78073  0.33135  1.0000
  C   C132      1.0  0.85098  0.77002  0.33397  1.0000
  C   C133      1.0  0.90622  0.74852  0.33304  1.0000
  C   C134      1.0  0.91748  0.76993  0.35463  1.0000
  C   C135      1.0  0.93933  0.78097  0.35502  1.0000
  C   C136      1.0  0.95077  0.77108  0.33256  1.0000
  C   C137      1.0  0.93956  0.74975  0.30988  1.0000
  C   C138      1.0  0.91771  0.73864  0.31105  1.0000
  H   H43       1.0  0.79164  0.73943  0.31857  1.0000
  H   H44       1.0  0.81039  0.72132  0.32217  1.0000
  H   H45       1.0  0.84793  0.79663  0.33360  1.0000
  H   H46       1.0  0.86683  0.77860  0.33873  1.0000
  H   H47       1.0  0.90990  0.77779  0.37114  1.0000
  H   H48       1.0  0.94676  0.79648  0.36979  1.0000
  H   H49       1.0  0.91031  0.72323  0.29419  1.0000
  H   H50       1.0  0.94720  0.74194  0.29368  1.0000
  H   H51       1.0  0.86734  0.67887  0.32261  1.0000
  H   H52       1.0  0.84873  0.64193  0.32786  1.0000
  H   H53       1.0  0.79226  0.64230  0.34986  1.0000
  H   H54       1.0  0.81072  0.67915  0.34622  1.0000
  C   C139      1.0  0.24758  0.10102  0.33207  1.0000
  N   N43       1.0  0.26869  0.11216  0.33247  1.0000
  C   C140      1.0  0.27964  0.13328  0.33306  1.0000
  N   N44       1.0  0.26853  0.14329  0.33310  1.0000
  C   C141      1.0  0.24741  0.13304  0.33296  1.0000
  N   N45       1.0  0.23738  0.11193  0.33251  1.0000
  C   C142      1.0  0.30178  0.14433  0.33470  1.0000
  C   C143      1.0  0.31309  0.13371  0.34275  1.0000
  C   C144      1.0  0.33491  0.14457  0.34604  1.0000
  C   C145      1.0  0.34626  0.16650  0.34162  1.0000
  C   C146      1.0  0.33512  0.17719  0.33146  1.0000
  C   C147      1.0  0.31327  0.16630  0.32881  1.0000
  C   C148      1.0  0.23671  0.07888  0.33023  1.0000
  C   C149      1.0  0.24754  0.06772  0.32424  1.0000
  C   C150      1.0  0.23685  0.04589  0.32100  1.0000
  C   C151      1.0  0.21491  0.03440  0.32345  1.0000
  C   C152      1.0  0.20402  0.04538  0.33133  1.0000
  C   C153      1.0  0.21472  0.06723  0.33395  1.0000
  C   C154      1.0  0.23623  0.14397  0.33310  1.0000
  C   C155      1.0  0.21482  0.13382  0.35476  1.0000
  C   C156      1.0  0.20379  0.14464  0.35517  1.0000
  C   C157      1.0  0.21367  0.16596  0.33264  1.0000
  C   C158      1.0  0.23500  0.17607  0.30992  1.0000
  C   C159      1.0  0.24611  0.16534  0.31107  1.0000
  H   H55       1.0  0.24531  0.03848  0.31846  1.0000
  H   H56       1.0  0.26342  0.07533  0.32206  1.0000
  H   H57       1.0  0.18811  0.03757  0.33361  1.0000
  H   H58       1.0  0.20614  0.07449  0.33875  1.0000
  H   H59       1.0  0.20697  0.11839  0.37128  1.0000
  H   H60       1.0  0.18827  0.13656  0.36993  1.0000
  H   H61       1.0  0.26151  0.17335  0.29413  1.0000
  H   H62       1.0  0.24280  0.19152  0.29362  1.0000
  H   H63       1.0  0.30588  0.17473  0.32237  1.0000
  H   H64       1.0  0.34282  0.19307  0.32766  1.0000
  H   H65       1.0  0.34244  0.13623  0.35030  1.0000
  H   H66       1.0  0.30560  0.11784  0.34663  1.0000
  C   C160      1.0  0.88375  0.13282  0.33210  1.0000
  N   N46       1.0  0.87260  0.14278  0.33250  1.0000
  C   C161      1.0  0.85149  0.13262  0.33308  1.0000
  N   N47       1.0  0.84148  0.11151  0.33310  1.0000
  C   C162      1.0  0.85172  0.10062  0.33295  1.0000
  N   N48       1.0  0.87284  0.11170  0.33252  1.0000
  C   C163      1.0  0.84044  0.14370  0.33471  1.0000
  C   C164      1.0  0.85107  0.16565  0.34230  1.0000
  C   C165      1.0  0.84021  0.17662  0.34559  1.0000
  C   C166      1.0  0.81828  0.16603  0.34164  1.0000
  C   C167      1.0  0.80758  0.14419  0.33192  1.0000
  C   C168      1.0  0.81846  0.13322  0.32927  1.0000
  C   C169      1.0  0.90589  0.14409  0.33027  1.0000
  C   C170      1.0  0.91705  0.16607  0.32432  1.0000
  C   C171      1.0  0.93887  0.17721  0.32111  1.0000
  C   C172      1.0  0.95037  0.16676  0.32348  1.0000
  C   C173      1.0  0.93938  0.14488  0.33134  1.0000
  C   C174      1.0  0.91753  0.13374  0.33397  1.0000
  C   C175      1.0  0.84080  0.07852  0.33305  1.0000
  C   C176      1.0  0.85095  0.06725  0.35464  1.0000
  C   C177      1.0  0.84013  0.04540  0.35501  1.0000
  C   C178      1.0  0.81880  0.03396  0.33254  1.0000
  C   C179      1.0  0.80869  0.04518  0.30986  1.0000
  C   C180      1.0  0.81942  0.06703  0.31105  1.0000
  H   H67       1.0  0.94629  0.19309  0.31854  1.0000
  H   H68       1.0  0.90944  0.17434  0.32215  1.0000
  H   H69       1.0  0.94719  0.13679  0.33359  1.0000
  H   H70       1.0  0.91027  0.11790  0.33875  1.0000
  H   H71       1.0  0.86637  0.07483  0.37115  1.0000
  H   H72       1.0  0.84820  0.03796  0.36978  1.0000
  H   H73       1.0  0.81141  0.07443  0.29419  1.0000
  H   H74       1.0  0.79324  0.03755  0.29366  1.0000
  H   H75       1.0  0.81003  0.11739  0.32320  1.0000
  H   H76       1.0  0.79169  0.13600  0.32848  1.0000
  H   H77       1.0  0.84855  0.19249  0.34951  1.0000
  H   H78       1.0  0.86694  0.17403  0.34583  1.0000
  C   C181      1.0  0.24720  0.52869  0.33906  1.0000
  N   N49       1.0  0.23677  0.50759  0.33841  1.0000
  C   C182      1.0  0.24681  0.49649  0.33321  1.0000
  N   N50       1.0  0.26794  0.50720  0.32745  1.0000
  C   C183      1.0  0.27891  0.52829  0.32567  1.0000
  N   N51       1.0  0.26822  0.53863  0.33187  1.0000
  C   C184      1.0  0.23556  0.47440  0.33312  1.0000
  C   C185      1.0  0.21416  0.46323  0.31127  1.0000
  C   C186      1.0  0.20307  0.44138  0.31048  1.0000
  C   C187      1.0  0.21290  0.42989  0.33303  1.0000
  C   C188      1.0  0.23421  0.44102  0.35596  1.0000
  C   C189      1.0  0.24539  0.46286  0.35497  1.0000
  C   C190      1.0  0.23688  0.54035  0.34600  1.0000
  C   C191      1.0  0.21674  0.53300  0.31048  1.0000
  C   C192      1.0  0.20773  0.54579  0.30907  1.0000
  C   C193      1.0  0.21832  0.56596  0.34614  1.0000
  C   C194      1.0  0.23794  0.57288  0.38591  1.0000
  C   C195      1.0  0.24713  0.56034  0.38519  1.0000
  C   C196      1.0  0.30081  0.53957  0.31669  1.0000
  C   C197      1.0  0.31039  0.55819  0.26672  1.0000
  C   C198      1.0  0.33211  0.57052  0.26274  1.0000
  C   C199      1.0  0.34500  0.56496  0.31060  1.0000
  C   C200      1.0  0.33547  0.54614  0.35926  1.0000
  C   C201      1.0  0.31366  0.53336  0.36060  1.0000
  H   H79       1.0  0.19372  0.54056  0.27809  1.0000
  H   H80       1.0  0.20903  0.51881  0.27984  1.0000
  H   H81       1.0  0.24636  0.58764  0.41089  1.0000
  H   H82       1.0  0.26168  0.56626  0.41194  1.0000
  H   H83       1.0  0.30163  0.56320  0.23389  1.0000
  H   H84       1.0  0.33833  0.58437  0.22927  1.0000
  H   H85       1.0  0.30725  0.52021  0.39893  1.0000
  H   H86       1.0  0.34433  0.54185  0.39589  1.0000
  H   H87       1.0  0.26078  0.47022  0.37210  1.0000
  H   H88       1.0  0.24196  0.43332  0.37228  1.0000
  H   H89       1.0  0.18757  0.43398  0.29539  1.0000
  H   H90       1.0  0.20638  0.47088  0.29462  1.0000
  C   C202      1.0  0.45604  0.70470  0.33829  1.0000
  N   N52       1.0  0.47715  0.71537  0.33790  1.0000
  C   C203      1.0  0.48825  0.73650  0.33283  1.0000
  N   N53       1.0  0.47755  0.74694  0.32696  1.0000
  C   C204      1.0  0.45647  0.73683  0.32493  1.0000
  N   N54       1.0  0.44612  0.71579  0.33099  1.0000
  C   C205      1.0  0.51034  0.74733  0.33300  1.0000
  C   C206      1.0  0.52152  0.73709  0.31140  1.0000
  C   C207      1.0  0.54337  0.74786  0.31077  1.0000
  C   C208      1.0  0.55486  0.76918  0.33324  1.0000
  C   C209      1.0  0.54372  0.77937  0.35598  1.0000
  C   C210      1.0  0.52188  0.76870  0.35483  1.0000
  C   C211      1.0  0.44437  0.68272  0.34520  1.0000
  C   C212      1.0  0.45175  0.66993  0.30995  1.0000
  C   C213      1.0  0.43898  0.64812  0.30879  1.0000
  C   C214      1.0  0.41880  0.63854  0.34578  1.0000
  C   C215      1.0  0.41183  0.65125  0.38499  1.0000
  C   C216      1.0  0.42435  0.67298  0.38414  1.0000
  C   C217      1.0  0.44519  0.74745  0.31596  1.0000
  C   C218      1.0  0.42663  0.73846  0.26567  1.0000
  C   C219      1.0  0.41425  0.74781  0.26195  1.0000
  C   C220      1.0  0.41975  0.76619  0.31030  1.0000
  C   C221      1.0  0.43855  0.77545  0.35914  1.0000
  C   C222      1.0  0.45135  0.76646  0.36029  1.0000
  H   H91       1.0  0.44425  0.63933  0.27821  1.0000
  H   H92       1.0  0.46598  0.67640  0.27972  1.0000
  H   H93       1.0  0.39704  0.64491  0.40979  1.0000
  H   H94       1.0  0.41840  0.68161  0.41056  1.0000
  H   H95       1.0  0.42166  0.72473  0.23253  1.0000
  H   H96       1.0  0.40045  0.74022  0.22822  1.0000
  H   H97       1.0  0.46445  0.77313  0.39892  1.0000
  H   H98       1.0  0.44277  0.78853  0.39619  1.0000
  H   H99       1.0  0.51451  0.77674  0.37176  1.0000
  H   H100      1.0  0.55142  0.79482  0.37222  1.0000
  H   H101      1.0  0.55078  0.73976  0.29581  1.0000
  H   H102      1.0  0.51388  0.72167  0.29474  1.0000
  C   C223      1.0  0.27993  0.73750  0.33857  1.0000
  N   N55       1.0  0.26927  0.74794  0.33809  1.0000
  C   C224      1.0  0.24814  0.73792  0.33291  1.0000
  N   N56       1.0  0.23770  0.71679  0.32701  1.0000
  C   C225      1.0  0.24780  0.70581  0.32505  1.0000
  N   N57       1.0  0.26884  0.71648  0.33124  1.0000
  C   C226      1.0  0.23732  0.74919  0.33302  1.0000
  C   C227      1.0  0.24757  0.77061  0.31151  1.0000
  C   C228      1.0  0.23682  0.78171  0.31088  1.0000
  C   C229      1.0  0.21549  0.77188  0.33324  1.0000
  C   C230      1.0  0.20529  0.75055  0.35584  1.0000
  C   C231      1.0  0.21594  0.73935  0.35471  1.0000
  C   C232      1.0  0.30191  0.74779  0.34560  1.0000
  C   C233      1.0  0.31472  0.76793  0.31010  1.0000
  C   C234      1.0  0.33652  0.77692  0.30883  1.0000
  C   C235      1.0  0.34607  0.76631  0.34606  1.0000
  C   C236      1.0  0.33334  0.74670  0.38582  1.0000
  C   C237      1.0  0.31162  0.73753  0.38494  1.0000
  C   C238      1.0  0.23718  0.68391  0.31602  1.0000
  C   C239      1.0  0.24615  0.67434  0.26566  1.0000
  C   C240      1.0  0.23678  0.65261  0.26176  1.0000
  C   C241      1.0  0.21841  0.63973  0.31017  1.0000
  C   C242      1.0  0.20917  0.64926  0.35915  1.0000
  C   C243      1.0  0.21816  0.67107  0.36034  1.0000
  H   H103      1.0  0.34533  0.79093  0.27786  1.0000
  H   H104      1.0  0.30827  0.77565  0.27938  1.0000
  H   H105      1.0  0.33966  0.73827  0.41093  1.0000
  H   H106      1.0  0.30296  0.72298  0.41170  1.0000
  H   H107      1.0  0.25988  0.68310  0.23251  1.0000
  H   H108      1.0  0.24436  0.64639  0.22801  1.0000
  H   H109      1.0  0.21150  0.67748  0.39906  1.0000
  H   H110      1.0  0.19609  0.64041  0.39616  1.0000
  H   H111      1.0  0.20789  0.72395  0.37158  1.0000
  H   H112      1.0  0.18983  0.74279  0.37201  1.0000
  H   H113      1.0  0.24493  0.79722  0.29603  1.0000
  H   H114      1.0  0.26300  0.77839  0.29499  1.0000
  C   C244      1.0  0.74163  0.45200  0.33878  1.0000
  N   N58       1.0  0.75206  0.47310  0.33820  1.0000
  C   C245      1.0  0.74204  0.48421  0.33300  1.0000
  N   N59       1.0  0.72090  0.47351  0.32716  1.0000
  C   C246      1.0  0.70993  0.45243  0.32529  1.0000
  N   N60       1.0  0.72061  0.44208  0.33150  1.0000
  C   C247      1.0  0.75330  0.50630  0.33303  1.0000
  C   C248      1.0  0.77471  0.51747  0.31144  1.0000
  C   C249      1.0  0.78581  0.53932  0.31073  1.0000
  C   C250      1.0  0.77598  0.55082  0.33313  1.0000
  C   C251      1.0  0.75465  0.53969  0.35585  1.0000
  C   C252      1.0  0.74346  0.51784  0.35477  1.0000
  C   C253      1.0  0.75192  0.44033  0.34580  1.0000
  C   C254      1.0  0.77201  0.44760  0.30990  1.0000
  C   C255      1.0  0.78100  0.43479  0.30871  1.0000
  C   C256      1.0  0.77043  0.41467  0.34628  1.0000
  C   C257      1.0  0.75085  0.40782  0.38623  1.0000
  C   C258      1.0  0.74169  0.42038  0.38541  1.0000
  C   C259      1.0  0.68803  0.44115  0.31629  1.0000
  C   C260      1.0  0.67846  0.42259  0.26596  1.0000
  C   C261      1.0  0.65674  0.41021  0.26218  1.0000
  C   C262      1.0  0.64385  0.41570  0.31054  1.0000
  C   C263      1.0  0.65337  0.43448  0.35942  1.0000
  C   C264      1.0  0.67517  0.44730  0.36062  1.0000
  H   H115      1.0  0.79500  0.43998  0.27764  1.0000
  H   H116      1.0  0.77974  0.46178  0.27919  1.0000
  H   H117      1.0  0.74243  0.39308  0.41151  1.0000
  H   H118      1.0  0.72716  0.41451  0.41231  1.0000
  H   H119      1.0  0.68723  0.41763  0.23281  1.0000
  H   H120      1.0  0.65053  0.39641  0.22839  1.0000
  H   H121      1.0  0.68159  0.46039  0.39929  1.0000
  H   H122      1.0  0.64451  0.43870  0.39646  1.0000
  H   H123      1.0  0.72806  0.51049  0.37171  1.0000
  H   H124      1.0  0.74690  0.54739  0.37204  1.0000
  H   H125      1.0  0.80132  0.54672  0.29580  1.0000
  H   H126      1.0  0.78249  0.50982  0.29485  1.0000
  C   C265      1.0  0.53275  0.27585  0.33849  1.0000
  N   N61       1.0  0.51164  0.26518  0.33796  1.0000
  C   C266      1.0  0.50053  0.24405  0.33278  1.0000
  N   N62       1.0  0.51123  0.23361  0.32695  1.0000
  C   C267      1.0  0.53231  0.24371  0.32505  1.0000
  N   N63       1.0  0.54267  0.26475  0.33123  1.0000
  C   C268      1.0  0.47844  0.23323  0.33286  1.0000
  C   C269      1.0  0.46728  0.24348  0.31120  1.0000
  C   C270      1.0  0.44543  0.23273  0.31058  1.0000
  C   C271      1.0  0.43393  0.21141  0.33310  1.0000
  C   C272      1.0  0.44505  0.20121  0.35585  1.0000
  C   C273      1.0  0.46690  0.21186  0.35470  1.0000
  C   C274      1.0  0.54442  0.29782  0.34552  1.0000
  C   C275      1.0  0.53712  0.31063  0.30982  1.0000
  C   C276      1.0  0.54993  0.33243  0.30856  1.0000
  C   C277      1.0  0.57007  0.34198  0.34600  1.0000
  C   C278      1.0  0.57693  0.32925  0.38596  1.0000
  C   C279      1.0  0.56437  0.30753  0.38506  1.0000
  C   C280      1.0  0.54359  0.23309  0.31609  1.0000
  C   C281      1.0  0.56215  0.24208  0.26582  1.0000
  C   C282      1.0  0.57451  0.23272  0.26201  1.0000
  C   C283      1.0  0.56903  0.21435  0.31041  1.0000
  C   C284      1.0  0.55023  0.20509  0.35928  1.0000
  C   C285      1.0  0.53743  0.21409  0.36045  1.0000
  H   H127      1.0  0.54474  0.34124  0.27746  1.0000
  H   H128      1.0  0.52296  0.30418  0.27895  1.0000
  H   H129      1.0  0.59166  0.33558  0.41122  1.0000
  H   H130      1.0  0.57025  0.29888  0.41196  1.0000
  H   H131      1.0  0.56712  0.25581  0.23266  1.0000
  H   H132      1.0  0.58833  0.24031  0.22832  1.0000
  H   H133      1.0  0.52432  0.20740  0.39901  1.0000
  H   H134      1.0  0.54599  0.19200  0.39623  1.0000
  H   H135      1.0  0.47425  0.20382  0.37170  1.0000
  H   H136      1.0  0.43735  0.18576  0.37214  1.0000
  H   H137      1.0  0.43803  0.24083  0.29562  1.0000
  H   H138      1.0  0.47492  0.25890  0.29457  1.0000
  C   C286      1.0  0.70882  0.24306  0.33840  1.0000
  N   N64       1.0  0.71949  0.23263  0.33798  1.0000
  C   C287      1.0  0.74062  0.24265  0.33289  1.0000
  N   N65       1.0  0.75105  0.26378  0.32703  1.0000
  C   C288      1.0  0.74095  0.27476  0.32501  1.0000
  N   N66       1.0  0.71991  0.26408  0.33111  1.0000
  C   C289      1.0  0.75145  0.23139  0.33306  1.0000
  C   C290      1.0  0.74121  0.20997  0.31163  1.0000
  C   C291      1.0  0.75197  0.19888  0.31100  1.0000
  C   C292      1.0  0.77330  0.20873  0.33331  1.0000
  C   C293      1.0  0.78350  0.23006  0.35589  1.0000
  C   C294      1.0  0.77283  0.24124  0.35474  1.0000
  C   C295      1.0  0.68684  0.23276  0.34534  1.0000
  C   C296      1.0  0.67404  0.21265  0.30960  1.0000
  C   C297      1.0  0.65224  0.20364  0.30843  1.0000
  C   C298      1.0  0.64267  0.21421  0.34590  1.0000
  C   C299      1.0  0.65540  0.23382  0.38566  1.0000
  C   C300      1.0  0.67712  0.24300  0.38480  1.0000
  C   C301      1.0  0.75156  0.29666  0.31603  1.0000
  C   C302      1.0  0.74259  0.30623  0.26560  1.0000
  C   C303      1.0  0.75193  0.32795  0.26185  1.0000
  C   C304      1.0  0.77028  0.34084  0.31034  1.0000
  C   C305      1.0  0.77954  0.33132  0.35929  1.0000
  C   C306      1.0  0.77054  0.30951  0.36054  1.0000
  H   H139      1.0  0.64343  0.18962  0.27751  1.0000
  H   H140      1.0  0.68050  0.20492  0.27900  1.0000
  H   H141      1.0  0.64906  0.24223  0.41086  1.0000
  H   H142      1.0  0.68576  0.25754  0.41160  1.0000
  H   H143      1.0  0.72887  0.29746  0.23234  1.0000
  H   H144      1.0  0.74435  0.33416  0.22798  1.0000
  H   H145      1.0  0.77722  0.30309  0.39916  1.0000
  H   H146      1.0  0.79261  0.34017  0.39637  1.0000
  H   H147      1.0  0.78088  0.25665  0.37156  1.0000
  H   H148      1.0  0.79895  0.23783  0.37201  1.0000
  H   H149      1.0  0.74386  0.18337  0.29618  1.0000
  H   H150      1.0  0.72578  0.20218  0.29509  1.0000
  C   C307      1.0  0.18115  0.36430  0.34366  1.0000
  C   C308      1.0  0.20179  0.40782  0.33475  1.0000
  N   N67       1.0  0.20627  0.39767  0.39861  1.0000
  C   C309      1.0  0.19684  0.37670  0.40613  1.0000
  C   C310      1.0  0.20212  0.36952  0.47412  1.0000
  N   N68       1.0  0.20674  0.36320  0.53441  1.0000
  C   C311      1.0  0.62045  0.80307  0.34391  1.0000
  C   C312      1.0  0.57693  0.78016  0.33502  1.0000
  N   N69       1.0  0.58707  0.79484  0.39868  1.0000
  C   C313      1.0  0.60804  0.80640  0.40619  1.0000
  C   C314      1.0  0.61521  0.81893  0.47396  1.0000
  N   N70       1.0  0.62152  0.82992  0.53405  1.0000
  C   C315      1.0  0.18163  0.80362  0.34396  1.0000
  C   C316      1.0  0.20453  0.78299  0.33503  1.0000
  N   N71       1.0  0.18981  0.77842  0.39857  1.0000
  C   C317      1.0  0.17826  0.78783  0.40609  1.0000
  C   C318      1.0  0.16569  0.78244  0.47374  1.0000
  N   N72       1.0  0.15466  0.77773  0.53373  1.0000
  C   C319      1.0  0.80771  0.61641  0.34383  1.0000
  C   C320      1.0  0.78709  0.57289  0.33492  1.0000
  N   N73       1.0  0.78254  0.58304  0.39855  1.0000
  C   C321      1.0  0.79197  0.60400  0.40611  1.0000
  C   C322      1.0  0.78657  0.61119  0.47373  1.0000
  N   N74       1.0  0.78186  0.61750  0.53370  1.0000
  C   C323      1.0  0.36833  0.17757  0.34393  1.0000
  C   C324      1.0  0.41185  0.20045  0.33494  1.0000
  N   N75       1.0  0.40171  0.18579  0.39869  1.0000
  C   C325      1.0  0.38075  0.17426  0.40629  1.0000
  C   C326      1.0  0.37356  0.16172  0.47404  1.0000
  N   N76       1.0  0.36725  0.15072  0.53410  1.0000
  C   C327      1.0  0.80720  0.17703  0.34397  1.0000
  C   C328      1.0  0.78428  0.19763  0.33510  1.0000
  N   N77       1.0  0.79902  0.20223  0.39854  1.0000
  C   C329      1.0  0.81057  0.19282  0.40607  1.0000
  C   C330      1.0  0.82321  0.19826  0.47353  1.0000
  N   N78       1.0  0.83428  0.20303  0.53334  1.0000
  N   N79       1.0  0.17705  0.18485  0.38386  1.0000
  C   C331      1.0  0.18649  0.17333  0.39072  1.0000
  H   H151      1.0  0.18207  0.16259  0.44055  1.0000
  N   N80       1.0  0.79991  0.97846  0.38379  1.0000
  C   C332      1.0  0.81144  0.99942  0.39062  1.0000
  H   H152      1.0  0.82219  0.00574  0.44041  1.0000
  N   N81       1.0  0.00628  0.80772  0.38377  1.0000
  C   C333      1.0  0.98532  0.79827  0.39063  1.0000
  H   H153      1.0  0.97899  0.80270  0.44040  1.0000
  N   N82       1.0  0.81179  0.79586  0.38379  1.0000
  C   C334      1.0  0.80235  0.80739  0.39062  1.0000
  H   H154      1.0  0.80676  0.81812  0.44047  1.0000
  N   N83       1.0  0.18889  0.00220  0.38378  1.0000
  C   C335      1.0  0.17736  0.98124  0.39064  1.0000
  H   H155      1.0  0.16664  0.97492  0.44052  1.0000
  N   N84       1.0  0.98257  0.17295  0.38383  1.0000
  C   C336      1.0  0.00353  0.18238  0.39068  1.0000
  H   H156      1.0  0.00985  0.17799  0.44060  1.0000
  N   N85       1.0  0.21126  0.59139  0.40591  1.0000
  C   C337      1.0  0.21026  0.60910  0.40201  1.0000
  H   H157      1.0  0.21153  0.61689  0.45986  1.0000
  N   N86       1.0  0.39345  0.60610  0.40588  1.0000
  C   C338      1.0  0.37572  0.58740  0.40223  1.0000
  H   H158      1.0  0.36796  0.58090  0.46018  1.0000
  N   N87       1.0  0.37856  0.77339  0.40611  1.0000
  C   C339      1.0  0.39725  0.77434  0.40226  1.0000
  H   H159      1.0  0.40387  0.77322  0.46010  1.0000
  N   N88       1.0  0.77749  0.38922  0.40620  1.0000
  C   C340      1.0  0.77844  0.37149  0.40218  1.0000
  H   H160      1.0  0.77734  0.36374  0.45999  1.0000
  N   N89       1.0  0.59546  0.37447  0.40614  1.0000
  C   C341      1.0  0.61319  0.39317  0.40233  1.0000
  H   H161      1.0  0.62092  0.39978  0.46019  1.0000
  N   N90       1.0  0.61017  0.20710  0.40603  1.0000
  C   C342      1.0  0.59143  0.20604  0.40226  1.0000
  H   H162      1.0  0.58490  0.20732  0.46006  1.0000
