data_image0
_chemical_formula_structural       C3OH2C3OH2C3HOHC3HOHC3HOHC3HOHC3HOHC3HOHC3OH2C3OH2C3HOHC3HOHC3OH2C3OH2C3HOHC3HOHC3HOHC3HOHC3OH2C3OH2C3HOHC3HOHC3OH2C3OH2C3HOHC3HOHC3HOHC3HOHC3OH2C3OH2C6H3C6H3C6H3C6H3C6H3C6H3C6H3C6H3C6H3C6H3C6H3C6H3C6H3C6H3C6H3C6H3C6H3C6H3C6H3C6H3C3HOHC3HOHC3OH2C3OH2C3OH2C3OH2C3OH2C3OH2C3HOHC3HOHC3OH2C3OH2C3HOHC3HOHC3OH2C3OH2C3OH2C3OH2C3HOHC3HOHC3OH2C3OH2C3HOHC3HOHC3OH2C3OH2C3OH2C3OH2C3HOHC3HOHC3OH2C3OH2C3HOHC3HOHC3HOHC3HOHC3HOHC3HOHC3OH2C3OH2C3HOHC3HOHC3OH2C3OH2C3HOHC3HOHC3HOHC3HOHC3OH2C3OH2C3HOHC3HOHC3OH2C3OH2C3HOHC3HOHC3HOHC3HOHC3OH2C3OH2C6H3C6H3C6H3C6H3C6H3C6H3C6H3C6H3C6H3C6H3C6H3C6H3C6H3C6H3C6H3C6H3C6H3C6H3C6H3C6H3C3HOHC3HOHC3OH2C3OH2C3OH2C3OH2C3OH2C3OH2C3HOHC3HOHC3OH2C3OH2C3HOHC3HOHC3OH2C3OH2C3OH2C3OH2C3HOHC3HOHC3OH2C3OH2C3HOHC3HOHC3OH2C3OH2C3OH2C3OH2C3HOHC3HOH
_chemical_formula_sum              "C600 O120 H360"
_cell_length_a       85.3698
_cell_length_b       44.9684
_cell_length_c       14.8827
_cell_angle_alpha    90
_cell_angle_beta     90
_cell_angle_gamma    90

_space_group_name_H-M_alt    "P 1"
_space_group_IT_number       1

loop_
  _space_group_symop_operation_xyz
  'x, y, z'

loop_
  _atom_site_type_symbol
  _atom_site_label
  _atom_site_symmetry_multiplicity
  _atom_site_fract_x
  _atom_site_fract_y
  _atom_site_fract_z
  _atom_site_occupancy
  C   C1        1.0  0.24782  0.14416  0.26447  1.0000
  C   C2        1.0  0.26389  0.13709  0.26884  1.0000
  C   C3        1.0  0.26999  0.12234  0.34524  1.0000
  O   O1        1.0  0.27323  0.14470  0.19830  1.0000
  H   H1        1.0  0.24376  0.15548  0.20943  1.0000
  H   H2        1.0  0.27324  0.12751  0.15742  1.0000
  C   C4        1.0  0.75954  0.36439  0.26384  1.0000
  C   C5        1.0  0.74347  0.37144  0.26834  1.0000
  C   C6        1.0  0.73734  0.38588  0.34521  1.0000
  O   O2        1.0  0.73418  0.36421  0.19724  1.0000
  H   H3        1.0  0.76363  0.35341  0.20826  1.0000
  H   H4        1.0  0.73421  0.38159  0.15714  1.0000
  C   C7        1.0  0.74836  0.11425  0.26771  1.0000
  C   C8        1.0  0.76444  0.12129  0.27195  1.0000
  C   C9        1.0  0.77056  0.13596  0.34839  1.0000
  H   H5        1.0  0.74427  0.10303  0.21257  1.0000
  O   O3        1.0  0.77379  0.11372  0.20144  1.0000
  H   H6        1.0  0.77371  0.13085  0.16035  1.0000
  C   C10       1.0  0.26010  0.39356  0.26725  1.0000
  C   C11       1.0  0.24402  0.38659  0.27186  1.0000
  C   C12       1.0  0.23788  0.37231  0.34896  1.0000
  H   H7        1.0  0.26418  0.40454  0.21165  1.0000
  O   O4        1.0  0.23470  0.39389  0.20095  1.0000
  H   H8        1.0  0.23465  0.37648  0.16095  1.0000
  C   C13       1.0  0.30338  0.02037  0.25903  1.0000
  C   C14       1.0  0.30353  0.48915  0.25723  1.0000
  C   C15       1.0  0.30362  0.47327  0.33920  1.0000
  H   H9        1.0  0.30279  0.03187  0.19964  1.0000
  O   O5        1.0  0.30266  0.47509  0.17635  1.0000
  H   H10       1.0  0.31345  0.46940  0.16080  1.0000
  C   C16       1.0  0.70386  0.48859  0.26060  1.0000
  C   C17       1.0  0.70379  0.01981  0.25889  1.0000
  C   C18       1.0  0.70434  0.03566  0.34085  1.0000
  H   H11       1.0  0.70401  0.47711  0.20108  1.0000
  O   O6        1.0  0.70423  0.03388  0.17791  1.0000
  H   H12       1.0  0.69335  0.03942  0.16402  1.0000
  C   C19       1.0  0.80320  0.26950  0.25674  1.0000
  C   C20       1.0  0.80340  0.23828  0.25776  1.0000
  C   C21       1.0  0.80368  0.22321  0.34112  1.0000
  H   H13       1.0  0.80247  0.28041  0.19638  1.0000
  O   O7        1.0  0.80236  0.22342  0.17828  1.0000
  H   H14       1.0  0.81313  0.21785  0.16201  1.0000
  C   C22       1.0  0.20371  0.23935  0.25983  1.0000
  C   C23       1.0  0.20361  0.27057  0.26099  1.0000
  C   C24       1.0  0.20434  0.28561  0.34431  1.0000
  H   H15       1.0  0.20375  0.22846  0.19929  1.0000
  O   O8        1.0  0.20395  0.28546  0.18134  1.0000
  H   H16       1.0  0.19301  0.29031  0.16699  1.0000
  C   C25       1.0  0.33669  0.13491  0.25590  1.0000
  C   C26       1.0  0.35277  0.14206  0.25385  1.0000
  C   C27       1.0  0.36108  0.14654  0.33508  1.0000
  O   O9        1.0  0.36009  0.14387  0.17274  1.0000
  H   H17       1.0  0.33115  0.12998  0.19664  1.0000
  H   H18       1.0  0.36439  0.12398  0.16056  1.0000
  C   C28       1.0  0.66910  0.38172  0.24948  1.0000
  C   C29       1.0  0.65305  0.37430  0.25074  1.0000
  C   C30       1.0  0.64629  0.36153  0.32863  1.0000
  O   O10       1.0  0.64434  0.37901  0.17536  1.0000
  H   H19       1.0  0.67354  0.39211  0.19370  1.0000
  H   H20       1.0  0.64226  0.40050  0.17257  1.0000
  C   C31       1.0  0.65494  0.14453  0.26610  1.0000
  C   C32       1.0  0.67096  0.13676  0.26406  1.0000
  C   C33       1.0  0.67931  0.13209  0.34516  1.0000
  H   H21       1.0  0.64910  0.14757  0.20666  1.0000
  O   O11       1.0  0.67809  0.13308  0.18294  1.0000
  H   H22       1.0  0.67558  0.11278  0.16294  1.0000
  C   C34       1.0  0.35187  0.35622  0.27778  1.0000
  C   C35       1.0  0.33594  0.36466  0.27803  1.0000
  C   C36       1.0  0.32921  0.37743  0.35597  1.0000
  H   H23       1.0  0.35654  0.34759  0.21995  1.0000
  O   O12       1.0  0.32747  0.36146  0.20108  1.0000
  H   H24       1.0  0.32920  0.37964  0.16571  1.0000
  C   C37       1.0  0.83608  0.38891  0.26160  1.0000
  C   C38       1.0  0.85214  0.39620  0.25887  1.0000
  C   C39       1.0  0.86109  0.39666  0.33907  1.0000
  O   O13       1.0  0.85886  0.40166  0.17754  1.0000
  H   H25       1.0  0.83010  0.38678  0.20219  1.0000
  H   H26       1.0  0.86333  0.38266  0.15714  1.0000
  C   C40       1.0  0.16916  0.13045  0.25079  1.0000
  C   C41       1.0  0.15311  0.12311  0.25259  1.0000
  C   C42       1.0  0.14627  0.11160  0.33198  1.0000
  O   O14       1.0  0.14447  0.12671  0.17638  1.0000
  H   H27       1.0  0.17366  0.13995  0.19374  1.0000
  H   H28       1.0  0.14219  0.14809  0.17146  1.0000
  C   C43       1.0  0.15425  0.39021  0.26207  1.0000
  C   C44       1.0  0.17026  0.38244  0.25945  1.0000
  C   C45       1.0  0.17929  0.38202  0.33942  1.0000
  H   H29       1.0  0.14794  0.39019  0.20350  1.0000
  O   O15       1.0  0.17682  0.37490  0.17914  1.0000
  H   H30       1.0  0.17360  0.35431  0.16658  1.0000
  C   C46       1.0  0.85199  0.10755  0.27329  1.0000
  C   C47       1.0  0.83606  0.11598  0.27419  1.0000
  C   C48       1.0  0.82921  0.12728  0.35386  1.0000
  H   H31       1.0  0.85675  0.09989  0.21447  1.0000
  O   O16       1.0  0.82766  0.11406  0.19659  1.0000
  H   H32       1.0  0.82948  0.13277  0.16395  1.0000
  C   C49       1.0  0.09490  0.16982  0.26828  1.0000
  C   C50       1.0  0.08587  0.19615  0.26823  1.0000
  C   C51       1.0  0.07154  0.19809  0.31670  1.0000
  H   H33       1.0  0.10456  0.16961  0.22759  1.0000
  O   O17       1.0  0.09019  0.21793  0.20918  1.0000
  H   H34       1.0  0.10059  0.22522  0.22738  1.0000
  C   C52       1.0  0.91138  0.33505  0.29590  1.0000
  C   C53       1.0  0.92079  0.30932  0.29448  1.0000
  C   C54       1.0  0.93572  0.30854  0.33715  1.0000
  H   H35       1.0  0.90109  0.33402  0.26065  1.0000
  O   O18       1.0  0.91517  0.28647  0.24353  1.0000
  H   H36       1.0  0.92139  0.28625  0.18788  1.0000
  C   C55       1.0  0.94135  0.17145  0.32341  1.0000
  C   C56       1.0  0.93195  0.14536  0.32062  1.0000
  C   C57       1.0  0.91700  0.14410  0.36328  1.0000
  O   O19       1.0  0.93724  0.12295  0.26721  1.0000
  H   H37       1.0  0.95137  0.17154  0.28566  1.0000
  H   H38       1.0  0.93221  0.12566  0.20829  1.0000
  C   C58       1.0  0.06679  0.33623  0.31164  1.0000
  C   C59       1.0  0.07629  0.36223  0.31111  1.0000
  C   C60       1.0  0.09183  0.36206  0.34618  1.0000
  O   O20       1.0  0.07039  0.38637  0.26761  1.0000
  H   H39       1.0  0.05626  0.33732  0.27902  1.0000
  H   H40       1.0  0.07476  0.38594  0.20646  1.0000
  C   C61       1.0  0.59487  0.41995  0.26723  1.0000
  C   C62       1.0  0.58586  0.44629  0.26778  1.0000
  C   C63       1.0  0.57155  0.44815  0.31648  1.0000
  H   H41       1.0  0.60451  0.41979  0.22632  1.0000
  O   O21       1.0  0.59016  0.46818  0.20905  1.0000
  H   H42       1.0  0.60057  0.47544  0.22731  1.0000
  C   C64       1.0  0.41147  0.08498  0.29307  1.0000
  C   C65       1.0  0.42089  0.05926  0.29237  1.0000
  C   C66       1.0  0.43575  0.05852  0.33584  1.0000
  H   H43       1.0  0.40126  0.08393  0.25719  1.0000
  O   O22       1.0  0.41536  0.03633  0.24141  1.0000
  H   H44       1.0  0.42165  0.03607  0.18602  1.0000
  C   C67       1.0  0.44135  0.42145  0.32393  1.0000
  C   C68       1.0  0.43195  0.39536  0.32157  1.0000
  C   C69       1.0  0.41703  0.39414  0.36455  1.0000
  O   O23       1.0  0.43722  0.37290  0.26829  1.0000
  H   H45       1.0  0.45136  0.42150  0.28603  1.0000
  H   H46       1.0  0.43215  0.37553  0.20945  1.0000
  C   C70       1.0  0.56684  0.08623  0.31275  1.0000
  C   C71       1.0  0.57636  0.11220  0.31271  1.0000
  C   C72       1.0  0.59183  0.11202  0.34880  1.0000
  O   O24       1.0  0.57055  0.13631  0.26864  1.0000
  H   H47       1.0  0.55637  0.08731  0.27949  1.0000
  H   H48       1.0  0.57502  0.13580  0.20774  1.0000
  C   C73       1.0  0.09471  0.01969  0.32338  1.0000
  C   C74       1.0  0.09470  0.48802  0.32166  1.0000
  C   C75       1.0  0.10580  0.47149  0.37265  1.0000
  H   H49       1.0  0.08784  0.03070  0.27783  1.0000
  O   O25       1.0  0.08534  0.47429  0.26034  1.0000
  H   H50       1.0  0.09153  0.47247  0.20484  1.0000
  C   C76       1.0  0.89294  0.48803  0.24827  1.0000
  C   C77       1.0  0.89265  0.01929  0.24733  1.0000
  C   C78       1.0  0.90203  0.03603  0.30794  1.0000
  H   H51       1.0  0.88576  0.47715  0.20390  1.0000
  O   O26       1.0  0.88388  0.03313  0.18267  1.0000
  H   H52       1.0  0.87290  0.02687  0.18989  1.0000
  C   C79       1.0  0.59469  0.26960  0.32211  1.0000
  C   C80       1.0  0.59471  0.23792  0.32107  1.0000
  C   C81       1.0  0.60586  0.22154  0.37213  1.0000
  H   H53       1.0  0.58779  0.28049  0.27650  1.0000
  O   O27       1.0  0.58532  0.22402  0.26028  1.0000
  H   H54       1.0  0.59147  0.22204  0.20471  1.0000
  C   C82       1.0  0.39288  0.23825  0.24896  1.0000
  C   C83       1.0  0.39261  0.26951  0.24874  1.0000
  C   C84       1.0  0.40204  0.28607  0.30951  1.0000
  H   H55       1.0  0.38567  0.22751  0.20444  1.0000
  O   O28       1.0  0.38380  0.28355  0.18465  1.0000
  H   H56       1.0  0.37282  0.27733  0.19212  1.0000
  C   C85       1.0  0.99512  0.23668  0.28111  1.0000
  C   C86       1.0  0.01167  0.23662  0.27614  1.0000
  C   C87       1.0  0.02086  0.25382  0.33661  1.0000
  O   O29       1.0  0.01835  0.21976  0.21052  1.0000
  H   H57       1.0  0.98898  0.22417  0.23562  1.0000
  H   H58       1.0  0.02114  0.23351  0.16167  1.0000
  C   C88       1.0  0.49513  0.98669  0.28107  1.0000
  C   C89       1.0  0.51168  0.98665  0.27613  1.0000
  C   C90       1.0  0.52086  0.00383  0.33669  1.0000
  O   O30       1.0  0.51837  0.96982  0.21047  1.0000
  H   H59       1.0  0.48900  0.97420  0.23551  1.0000
  H   H60       1.0  0.52117  0.98359  0.16169  1.0000
  C   C91       1.0  0.30218  0.06663  0.34204  1.0000
  C   C92       1.0  0.31563  0.08455  0.33950  1.0000
  C   C93       1.0  0.31431  0.11582  0.33920  1.0000
  C   C94       1.0  0.29920  0.12896  0.34144  1.0000
  C   C95       1.0  0.28554  0.11094  0.34534  1.0000
  C   C96       1.0  0.28726  0.07973  0.34503  1.0000
  H   H61       1.0  0.29816  0.15163  0.34133  1.0000
  H   H62       1.0  0.27755  0.06628  0.34566  1.0000
  H   H63       1.0  0.32646  0.07465  0.33799  1.0000
  C   C97       1.0  0.70547  0.44228  0.34296  1.0000
  C   C98       1.0  0.69196  0.42470  0.33536  1.0000
  C   C99       1.0  0.69307  0.39341  0.33186  1.0000
  C   C100      1.0  0.70808  0.37993  0.33712  1.0000
  C   C101      1.0  0.72183  0.39756  0.34530  1.0000
  C   C102      1.0  0.72028  0.42880  0.34766  1.0000
  H   H64       1.0  0.70900  0.35725  0.33454  1.0000
  H   H65       1.0  0.73006  0.44205  0.35073  1.0000
  H   H66       1.0  0.68122  0.43491  0.33258  1.0000
  C   C103      1.0  0.70570  0.06667  0.34067  1.0000
  C   C104      1.0  0.69225  0.08458  0.34344  1.0000
  C   C105      1.0  0.69356  0.11585  0.34392  1.0000
  C   C106      1.0  0.70867  0.12900  0.34156  1.0000
  C   C107      1.0  0.72234  0.11099  0.33745  1.0000
  C   C108      1.0  0.72062  0.07978  0.33761  1.0000
  H   H67       1.0  0.70971  0.15167  0.34175  1.0000
  H   H68       1.0  0.73033  0.06633  0.33684  1.0000
  H   H69       1.0  0.68142  0.07467  0.34501  1.0000
  C   C109      1.0  0.30244  0.44223  0.33947  1.0000
  C   C110      1.0  0.31595  0.42467  0.34675  1.0000
  C   C111      1.0  0.31486  0.39337  0.35016  1.0000
  C   C112      1.0  0.29984  0.37988  0.34509  1.0000
  C   C113      1.0  0.28609  0.39751  0.33724  1.0000
  C   C114      1.0  0.28763  0.42875  0.33498  1.0000
  H   H70       1.0  0.29893  0.35720  0.34756  1.0000
  H   H71       1.0  0.27785  0.44199  0.33205  1.0000
  H   H72       1.0  0.32669  0.43488  0.34939  1.0000
  C   C115      1.0  0.80221  0.31657  0.33573  1.0000
  C   C116      1.0  0.81565  0.33449  0.33954  1.0000
  C   C117      1.0  0.81434  0.36576  0.34080  1.0000
  C   C118      1.0  0.79923  0.37890  0.33789  1.0000
  C   C119      1.0  0.78557  0.36089  0.33310  1.0000
  C   C120      1.0  0.78730  0.32969  0.33265  1.0000
  H   H73       1.0  0.79818  0.40157  0.33895  1.0000
  H   H74       1.0  0.77758  0.31623  0.33200  1.0000
  H   H75       1.0  0.82648  0.32458  0.34179  1.0000
  C   C121      1.0  0.20545  0.19225  0.33794  1.0000
  C   C122      1.0  0.19192  0.17460  0.33481  1.0000
  C   C123      1.0  0.19305  0.14330  0.33165  1.0000
  C   C124      1.0  0.20809  0.12988  0.33299  1.0000
  C   C125      1.0  0.22185  0.14766  0.33389  1.0000
  C   C126      1.0  0.22031  0.17887  0.33726  1.0000
  H   H76       1.0  0.20904  0.10720  0.33071  1.0000
  H   H77       1.0  0.23009  0.19211  0.33991  1.0000
  H   H78       1.0  0.18114  0.18473  0.33525  1.0000
  C   C127      1.0  0.20569  0.31661  0.34673  1.0000
  C   C128      1.0  0.19225  0.33452  0.34310  1.0000
  C   C129      1.0  0.19355  0.36580  0.34201  1.0000
  C   C130      1.0  0.20866  0.37895  0.34493  1.0000
  C   C131      1.0  0.22232  0.36094  0.34953  1.0000
  C   C132      1.0  0.22060  0.32973  0.34981  1.0000
  H   H79       1.0  0.20970  0.40161  0.34403  1.0000
  H   H80       1.0  0.23032  0.31629  0.35036  1.0000
  H   H81       1.0  0.18142  0.32460  0.34091  1.0000
  C   C133      1.0  0.80245  0.19220  0.34419  1.0000
  C   C134      1.0  0.81599  0.17455  0.34711  1.0000
  C   C135      1.0  0.81486  0.14325  0.35021  1.0000
  C   C136      1.0  0.79981  0.12983  0.34907  1.0000
  C   C137      1.0  0.78605  0.14760  0.34837  1.0000
  C   C138      1.0  0.78760  0.17882  0.34503  1.0000
  H   H82       1.0  0.79887  0.10715  0.35134  1.0000
  H   H83       1.0  0.77781  0.19206  0.34254  1.0000
  H   H84       1.0  0.82677  0.18468  0.34659  1.0000
  C   C139      1.0  0.12999  0.10453  0.33602  1.0000
  C   C140      1.0  0.11832  0.12630  0.32410  1.0000
  C   C141      1.0  0.10196  0.11989  0.32670  1.0000
  C   C142      1.0  0.09790  0.08938  0.34157  1.0000
  C   C143      1.0  0.10924  0.06672  0.35821  1.0000
  C   C144      1.0  0.12521  0.07525  0.35332  1.0000
  H   H85       1.0  0.08638  0.08335  0.34150  1.0000
  H   H86       1.0  0.13381  0.05938  0.35660  1.0000
  H   H87       1.0  0.12212  0.14780  0.31898  1.0000
  C   C145      1.0  0.87737  0.40330  0.33747  1.0000
  C   C146      1.0  0.88880  0.38087  0.34380  1.0000
  C   C147      1.0  0.90519  0.38677  0.33973  1.0000
  C   C148      1.0  0.90960  0.41748  0.33607  1.0000
  C   C149      1.0  0.89845  0.44078  0.32363  1.0000
  C   C150      1.0  0.88237  0.43268  0.32502  1.0000
  H   H88       1.0  0.92116  0.42280  0.32885  1.0000
  H   H89       1.0  0.87389  0.44880  0.32199  1.0000
  H   H90       1.0  0.88485  0.35961  0.35357  1.0000
  C   C151      1.0  0.87794  0.10463  0.34548  1.0000
  C   C152      1.0  0.88962  0.12639  0.35757  1.0000
  C   C153      1.0  0.90597  0.11998  0.35497  1.0000
  C   C154      1.0  0.91003  0.08946  0.34011  1.0000
  C   C155      1.0  0.89869  0.06680  0.32354  1.0000
  C   C156      1.0  0.88271  0.07535  0.32827  1.0000
  H   H91       1.0  0.92155  0.08343  0.34019  1.0000
  H   H92       1.0  0.87412  0.05949  0.32502  1.0000
  H   H93       1.0  0.88582  0.14790  0.36262  1.0000
  C   C157      1.0  0.13046  0.40315  0.34621  1.0000
  C   C158      1.0  0.11903  0.38073  0.33998  1.0000
  C   C159      1.0  0.10263  0.38666  0.34388  1.0000
  C   C160      1.0  0.09824  0.41739  0.34753  1.0000
  C   C161      1.0  0.10940  0.44069  0.35967  1.0000
  C   C162      1.0  0.12547  0.43256  0.35834  1.0000
  H   H94       1.0  0.08668  0.42270  0.35443  1.0000
  H   H95       1.0  0.13396  0.44866  0.36119  1.0000
  H   H96       1.0  0.12296  0.35947  0.33022  1.0000
  C   C163      1.0  0.63000  0.35445  0.33254  1.0000
  C   C164      1.0  0.61831  0.37626  0.32144  1.0000
  C   C165      1.0  0.60195  0.36990  0.32466  1.0000
  C   C166      1.0  0.59789  0.33939  0.33954  1.0000
  C   C167      1.0  0.60924  0.31672  0.35565  1.0000
  C   C168      1.0  0.62521  0.32518  0.34983  1.0000
  H   H97       1.0  0.58637  0.33338  0.34007  1.0000
  H   H98       1.0  0.63379  0.30928  0.35279  1.0000
  H   H99       1.0  0.62211  0.39778  0.31683  1.0000
  C   C169      1.0  0.37735  0.15320  0.33449  1.0000
  C   C170      1.0  0.38877  0.13073  0.33955  1.0000
  C   C171      1.0  0.40517  0.13669  0.33689  1.0000
  C   C172      1.0  0.40956  0.16742  0.33436  1.0000
  C   C173      1.0  0.39841  0.19079  0.32293  1.0000
  C   C174      1.0  0.38233  0.18268  0.32412  1.0000
  H   H100      1.0  0.42112  0.17280  0.32797  1.0000
  H   H101      1.0  0.37383  0.19878  0.32166  1.0000
  H   H102      1.0  0.38481  0.10944  0.34837  1.0000
  C   C175      1.0  0.37795  0.35455  0.34885  1.0000
  C   C176      1.0  0.38964  0.37634  0.36004  1.0000
  C   C177      1.0  0.40600  0.36998  0.35687  1.0000
  C   C178      1.0  0.41006  0.33947  0.34195  1.0000
  C   C179      1.0  0.39871  0.31679  0.32586  1.0000
  C   C180      1.0  0.38274  0.32528  0.33159  1.0000
  H   H103      1.0  0.42159  0.33345  0.34147  1.0000
  H   H104      1.0  0.37416  0.30938  0.32867  1.0000
  H   H105      1.0  0.38584  0.39786  0.36474  1.0000
  C   C181      1.0  0.63049  0.15306  0.34896  1.0000
  C   C182      1.0  0.61906  0.13060  0.34421  1.0000
  C   C183      1.0  0.60266  0.13659  0.34672  1.0000
  C   C184      1.0  0.59829  0.16734  0.34891  1.0000
  C   C185      1.0  0.60945  0.19070  0.36004  1.0000
  C   C186      1.0  0.62552  0.18256  0.35880  1.0000
  H   H106      1.0  0.58673  0.17275  0.35522  1.0000
  H   H107      1.0  0.63403  0.19866  0.36109  1.0000
  H   H108      1.0  0.62302  0.10930  0.33568  1.0000
  C   C187      1.0  0.06289  0.22543  0.32461  1.0000
  C   C188      1.0  0.07070  0.25332  0.32919  1.0000
  C   C189      1.0  0.06314  0.28139  0.33805  1.0000
  C   C190      1.0  0.04650  0.28064  0.33636  1.0000
  C   C191      1.0  0.03779  0.25369  0.33458  1.0000
  C   C192      1.0  0.04632  0.22655  0.33194  1.0000
  H   H109      1.0  0.04046  0.30021  0.34121  1.0000
  H   H110      1.0  0.04015  0.20706  0.33022  1.0000
  H   H111      1.0  0.08260  0.25316  0.32666  1.0000
  C   C193      1.0  0.94466  0.28152  0.34480  1.0000
  C   C194      1.0  0.93714  0.25340  0.35351  1.0000
  C   C195      1.0  0.94500  0.22555  0.35791  1.0000
  C   C196      1.0  0.96158  0.22674  0.35028  1.0000
  C   C197      1.0  0.97001  0.25397  0.34736  1.0000
  C   C198      1.0  0.96130  0.28089  0.34622  1.0000
  H   H112      1.0  0.96782  0.20739  0.35480  1.0000
  H   H113      1.0  0.96731  0.30040  0.33843  1.0000
  H   H114      1.0  0.92524  0.25317  0.35611  1.0000
  C   C199      1.0  0.56290  0.47547  0.32473  1.0000
  C   C200      1.0  0.57071  0.00336  0.32981  1.0000
  C   C201      1.0  0.56314  0.03139  0.33885  1.0000
  C   C202      1.0  0.54650  0.03067  0.33675  1.0000
  C   C203      1.0  0.53780  0.50371  0.33474  1.0000
  C   C204      1.0  0.54632  0.47657  0.33194  1.0000
  H   H115      1.0  0.54046  0.05023  0.34183  1.0000
  H   H116      1.0  0.54017  0.45708  0.32998  1.0000
  H   H117      1.0  0.58262  0.00320  0.32756  1.0000
  C   C205      1.0  0.44468  0.03151  0.34404  1.0000
  C   C206      1.0  0.43715  0.50342  0.35296  1.0000
  C   C207      1.0  0.44502  0.47558  0.35783  1.0000
  C   C208      1.0  0.46159  0.47676  0.35040  1.0000
  C   C209      1.0  0.47003  0.00399  0.34721  1.0000
  C   C210      1.0  0.46131  0.03090  0.34566  1.0000
  H   H118      1.0  0.46783  0.45740  0.35508  1.0000
  H   H119      1.0  0.46732  0.05041  0.33787  1.0000
  H   H120      1.0  0.42525  0.50320  0.35535  1.0000
  C   C211      1.0  0.25950  0.11420  0.41481  1.0000
  C   C212      1.0  0.24342  0.12128  0.41044  1.0000
  C   C213      1.0  0.23734  0.13600  0.33401  1.0000
  H   H121      1.0  0.26356  0.10294  0.46994  1.0000
  O   O31       1.0  0.23405  0.11370  0.48084  1.0000
  H   H122      1.0  0.23412  0.13082  0.52198  1.0000
  C   C214      1.0  0.74781  0.39361  0.41532  1.0000
  C   C215      1.0  0.76389  0.38660  0.41075  1.0000
  C   C216      1.0  0.77002  0.37227  0.33372  1.0000
  H   H123      1.0  0.74373  0.40462  0.47088  1.0000
  O   O32       1.0  0.77320  0.39390  0.48166  1.0000
  H   H124      1.0  0.77325  0.37650  0.52167  1.0000
  C   C217      1.0  0.76010  0.14412  0.41806  1.0000
  C   C218      1.0  0.74402  0.13709  0.41382  1.0000
  C   C219      1.0  0.73790  0.12238  0.33742  1.0000
  O   O33       1.0  0.73471  0.14469  0.48447  1.0000
  H   H125      1.0  0.76419  0.15541  0.47309  1.0000
  H   H126      1.0  0.73471  0.12749  0.52530  1.0000
  C   C220      1.0  0.24836  0.36445  0.41886  1.0000
  C   C221      1.0  0.26444  0.37145  0.41428  1.0000
  C   C222      1.0  0.27058  0.38581  0.33731  1.0000
  O   O34       1.0  0.27372  0.36424  0.48539  1.0000
  H   H127      1.0  0.24426  0.35349  0.47449  1.0000
  H   H128      1.0  0.27369  0.38163  0.52547  1.0000
  C   C223      1.0  0.30393  0.48853  0.42198  1.0000
  C   C224      1.0  0.30399  0.01974  0.42377  1.0000
  C   C225      1.0  0.30355  0.03562  0.34183  1.0000
  O   O35       1.0  0.30345  0.03379  0.50477  1.0000
  H   H129      1.0  0.30371  0.47703  0.48147  1.0000
  H   H130      1.0  0.31431  0.03937  0.51905  1.0000
  C   C226      1.0  0.70461  0.02039  0.42361  1.0000
  C   C227      1.0  0.70447  0.48917  0.42534  1.0000
  C   C228      1.0  0.70428  0.47331  0.34333  1.0000
  O   O36       1.0  0.70544  0.47510  0.50615  1.0000
  H   H131      1.0  0.70527  0.03188  0.48300  1.0000
  H   H132      1.0  0.69468  0.46935  0.52207  1.0000
  C   C229      1.0  0.80415  0.23928  0.42245  1.0000
  C   C230      1.0  0.80425  0.27050  0.42138  1.0000
  C   C231      1.0  0.80357  0.28557  0.33808  1.0000
  O   O37       1.0  0.80385  0.28536  0.50106  1.0000
  H   H133      1.0  0.80406  0.22838  0.48296  1.0000
  H   H134      1.0  0.81478  0.29024  0.51561  1.0000
  C   C232      1.0  0.20476  0.26952  0.42561  1.0000
  C   C233      1.0  0.20455  0.23830  0.42451  1.0000
  C   C234      1.0  0.20422  0.22326  0.34111  1.0000
  O   O38       1.0  0.20565  0.22342  0.50394  1.0000
  H   H135      1.0  0.20553  0.28041  0.48597  1.0000
  H   H136      1.0  0.19489  0.21782  0.52038  1.0000
  C   C235      1.0  0.35294  0.14433  0.41739  1.0000
  C   C236      1.0  0.33693  0.13650  0.41939  1.0000
  C   C237      1.0  0.32856  0.13208  0.33825  1.0000
  H   H137      1.0  0.35880  0.14718  0.47685  1.0000
  O   O39       1.0  0.32983  0.13253  0.50049  1.0000
  H   H138      1.0  0.33240  0.11220  0.51993  1.0000
  C   C238      1.0  0.65606  0.35613  0.40377  1.0000
  C   C239      1.0  0.67198  0.36463  0.40366  1.0000
  C   C240      1.0  0.67872  0.37745  0.32582  1.0000
  H   H139      1.0  0.65138  0.34748  0.46154  1.0000
  O   O40       1.0  0.68044  0.36142  0.48068  1.0000
  H   H140      1.0  0.67868  0.37959  0.51607  1.0000
  C   C241      1.0  0.67114  0.13461  0.42748  1.0000
  C   C242      1.0  0.65505  0.14168  0.42955  1.0000
  C   C243      1.0  0.64676  0.14640  0.34836  1.0000
  O   O41       1.0  0.64770  0.14322  0.51062  1.0000
  H   H141      1.0  0.67666  0.12951  0.48667  1.0000
  H   H142      1.0  0.64344  0.12326  0.52229  1.0000
  C   C244      1.0  0.33885  0.38170  0.43228  1.0000
  C   C245      1.0  0.35490  0.37433  0.43084  1.0000
  C   C246      1.0  0.36165  0.36162  0.35285  1.0000
  O   O42       1.0  0.36363  0.37903  0.50619  1.0000
  H   H143      1.0  0.33441  0.39205  0.48813  1.0000
  H   H144      1.0  0.36570  0.40052  0.50902  1.0000
  C   C247      1.0  0.85356  0.39035  0.42138  1.0000
  C   C248      1.0  0.83756  0.38252  0.42384  1.0000
  C   C249      1.0  0.82859  0.38202  0.34370  1.0000
  H   H145      1.0  0.85985  0.39039  0.48002  1.0000
  O   O43       1.0  0.83097  0.37498  0.50406  1.0000
  H   H146      1.0  0.83419  0.35440  0.51668  1.0000
  C   C250      1.0  0.15594  0.10739  0.40821  1.0000
  C   C251      1.0  0.17186  0.11588  0.40740  1.0000
  C   C252      1.0  0.17871  0.12731  0.32792  1.0000
  H   H147      1.0  0.15118  0.09965  0.46695  1.0000
  O   O44       1.0  0.18026  0.11388  0.48499  1.0000
  H   H148      1.0  0.17844  0.13256  0.51780  1.0000
  C   C253      1.0  0.17181  0.38895  0.42151  1.0000
  C   C254      1.0  0.15573  0.39618  0.42447  1.0000
  C   C255      1.0  0.14675  0.39652  0.34443  1.0000
  O   O45       1.0  0.14905  0.40170  0.50587  1.0000
  H   H149      1.0  0.17781  0.38691  0.48085  1.0000
  H   H150      1.0  0.14461  0.38271  0.52649  1.0000
  C   C256      1.0  0.83875  0.13034  0.43104  1.0000
  C   C257      1.0  0.85481  0.12306  0.42912  1.0000
  C   C258      1.0  0.86166  0.11169  0.34956  1.0000
  O   O46       1.0  0.86345  0.12657  0.50537  1.0000
  H   H151      1.0  0.83424  0.13975  0.48819  1.0000
  H   H152      1.0  0.86573  0.14794  0.51044  1.0000
  C   C259      1.0  0.06659  0.17131  0.35887  1.0000
  C   C260      1.0  0.07599  0.14523  0.36133  1.0000
  C   C261      1.0  0.09094  0.14403  0.31860  1.0000
  O   O47       1.0  0.07070  0.12275  0.41448  1.0000
  H   H153      1.0  0.05658  0.17134  0.39669  1.0000
  H   H154      1.0  0.07572  0.12540  0.47344  1.0000
  C   C262      1.0  0.94101  0.33630  0.37157  1.0000
  C   C263      1.0  0.93152  0.36230  0.37234  1.0000
  C   C264      1.0  0.91597  0.36216  0.33731  1.0000
  O   O48       1.0  0.93742  0.38640  0.41603  1.0000
  H   H155      1.0  0.95156  0.33735  0.40410  1.0000
  H   H156      1.0  0.93305  0.38592  0.47718  1.0000
  C   C265      1.0  0.91304  0.16983  0.41391  1.0000
  C   C266      1.0  0.92206  0.19615  0.41429  1.0000
  C   C267      1.0  0.93639  0.19817  0.36585  1.0000
  H   H157      1.0  0.90337  0.16956  0.45458  1.0000
  O   O49       1.0  0.91775  0.21787  0.47359  1.0000
  H   H158      1.0  0.90733  0.22514  0.45556  1.0000
  C   C268      1.0  0.09641  0.33492  0.38751  1.0000
  C   C269      1.0  0.08698  0.30921  0.38872  1.0000
  C   C270      1.0  0.07207  0.30843  0.34585  1.0000
  H   H159      1.0  0.10668  0.33387  0.42284  1.0000
  O   O50       1.0  0.09258  0.28634  0.43969  1.0000
  H   H160      1.0  0.08634  0.28609  0.49525  1.0000
  C   C271      1.0  0.56662  0.42132  0.35834  1.0000
  C   C272      1.0  0.57602  0.39524  0.36032  1.0000
  C   C273      1.0  0.59094  0.39408  0.31728  1.0000
  O   O51       1.0  0.57074  0.37270  0.41331  1.0000
  H   H161      1.0  0.55662  0.42130  0.39630  1.0000
  H   H162      1.0  0.57581  0.37525  0.47219  1.0000
  C   C274      1.0  0.44098  0.08629  0.37045  1.0000
  C   C275      1.0  0.43146  0.11226  0.37073  1.0000
  C   C276      1.0  0.41598  0.11210  0.33477  1.0000
  O   O52       1.0  0.43728  0.13635  0.41489  1.0000
  H   H163      1.0  0.45146  0.08734  0.40356  1.0000
  H   H164      1.0  0.43281  0.13582  0.47580  1.0000
  C   C277      1.0  0.41309  0.41993  0.41495  1.0000
  C   C278      1.0  0.42210  0.44627  0.41479  1.0000
  C   C279      1.0  0.43641  0.44821  0.36611  1.0000
  H   H165      1.0  0.40345  0.41971  0.45582  1.0000
  O   O53       1.0  0.41780  0.46808  0.47379  1.0000
  H   H166      1.0  0.40738  0.47533  0.45574  1.0000
  C   C280      1.0  0.59631  0.08489  0.39050  1.0000
  C   C281      1.0  0.58689  0.05916  0.39099  1.0000
  C   C282      1.0  0.57206  0.05843  0.34722  1.0000
  H   H167      1.0  0.60651  0.08382  0.42652  1.0000
  O   O54       1.0  0.59240  0.03624  0.44201  1.0000
  H   H168      1.0  0.58608  0.03595  0.49728  1.0000
  C   C283      1.0  0.11495  0.48803  0.43441  1.0000
  C   C284      1.0  0.11527  0.01929  0.43488  1.0000
  C   C285      1.0  0.10589  0.03598  0.37412  1.0000
  O   O55       1.0  0.12405  0.03320  0.49933  1.0000
  H   H169      1.0  0.12212  0.47720  0.47889  1.0000
  H   H170      1.0  0.13503  0.02692  0.49210  1.0000
  C   C286      1.0  0.91322  0.01980  0.35879  1.0000
  C   C287      1.0  0.91318  0.48813  0.36104  1.0000
  C   C288      1.0  0.90206  0.47156  0.31033  1.0000
  O   O56       1.0  0.92253  0.47446  0.42256  1.0000
  H   H171      1.0  0.92007  0.03084  0.40435  1.0000
  H   H172      1.0  0.91634  0.47275  0.47807  1.0000
  C   C289      1.0  0.61502  0.23825  0.43340  1.0000
  C   C290      1.0  0.61533  0.26950  0.43320  1.0000
  C   C291      1.0  0.60590  0.28601  0.37227  1.0000
  O   O57       1.0  0.62415  0.28359  0.49710  1.0000
  H   H173      1.0  0.62223  0.22755  0.47801  1.0000
  H   H174      1.0  0.63513  0.27735  0.48963  1.0000
  C   C292      1.0  0.41325  0.26969  0.35983  1.0000
  C   C293      1.0  0.41318  0.23802  0.36137  1.0000
  C   C294      1.0  0.40202  0.22160  0.31049  1.0000
  O   O58       1.0  0.42255  0.22417  0.42240  1.0000
  H   H175      1.0  0.42013  0.28061  0.40550  1.0000
  H   H176      1.0  0.41638  0.22230  0.47795  1.0000
  C   C295      1.0  0.01261  0.27137  0.40004  1.0000
  C   C296      1.0  0.99606  0.27159  0.40463  1.0000
  C   C297      1.0  0.98691  0.25421  0.34461  1.0000
  H   H177      1.0  0.01873  0.28381  0.44582  1.0000
  O   O59       1.0  0.98927  0.28871  0.46927  1.0000
  H   H178      1.0  0.98675  0.27527  0.51936  1.0000
  C   C298      1.0  0.51261  0.02137  0.40013  1.0000
  C   C299      1.0  0.49606  0.02159  0.40463  1.0000
  C   C300      1.0  0.48692  0.00421  0.34455  1.0000
  H   H179      1.0  0.51872  0.03380  0.44596  1.0000
  O   O60       1.0  0.48926  0.03871  0.46922  1.0000
  H   H180      1.0  0.48674  0.02528  0.51932  1.0000
  C   C301      1.0  0.24782  0.64416  0.26447  1.0000
  C   C302      1.0  0.26389  0.63709  0.26884  1.0000
  C   C303      1.0  0.26999  0.62234  0.34524  1.0000
  O   O61       1.0  0.27323  0.64470  0.19830  1.0000
  H   H181      1.0  0.24376  0.65548  0.20943  1.0000
  H   H182      1.0  0.27324  0.62751  0.15742  1.0000
  C   C304      1.0  0.75954  0.86440  0.26384  1.0000
  C   C305      1.0  0.74347  0.87144  0.26834  1.0000
  C   C306      1.0  0.73734  0.88588  0.34521  1.0000
  O   O62       1.0  0.73418  0.86421  0.19724  1.0000
  H   H183      1.0  0.76363  0.85341  0.20826  1.0000
  H   H184      1.0  0.73421  0.88159  0.15714  1.0000
  C   C307      1.0  0.74836  0.61425  0.26771  1.0000
  C   C308      1.0  0.76444  0.62129  0.27195  1.0000
  C   C309      1.0  0.77056  0.63596  0.34839  1.0000
  H   H185      1.0  0.74427  0.60303  0.21257  1.0000
  O   O63       1.0  0.77379  0.61372  0.20144  1.0000
  H   H186      1.0  0.77371  0.63085  0.16035  1.0000
  C   C310      1.0  0.26010  0.89356  0.26725  1.0000
  C   C311      1.0  0.24402  0.88659  0.27186  1.0000
  C   C312      1.0  0.23788  0.87231  0.34896  1.0000
  H   H187      1.0  0.26418  0.90455  0.21165  1.0000
  O   O64       1.0  0.23470  0.89389  0.20095  1.0000
  H   H188      1.0  0.23465  0.87648  0.16095  1.0000
  C   C313      1.0  0.30338  0.52037  0.25903  1.0000
  C   C314      1.0  0.30353  0.98915  0.25723  1.0000
  C   C315      1.0  0.30362  0.97327  0.33920  1.0000
  H   H189      1.0  0.30279  0.53187  0.19964  1.0000
  O   O65       1.0  0.30266  0.97509  0.17635  1.0000
  H   H190      1.0  0.31345  0.96940  0.16080  1.0000
  C   C316      1.0  0.70386  0.98859  0.26060  1.0000
  C   C317      1.0  0.70379  0.51981  0.25889  1.0000
  C   C318      1.0  0.70434  0.53566  0.34085  1.0000
  H   H191      1.0  0.70401  0.97711  0.20108  1.0000
  O   O66       1.0  0.70423  0.53388  0.17791  1.0000
  H   H192      1.0  0.69335  0.53943  0.16402  1.0000
  C   C319      1.0  0.80320  0.76950  0.25674  1.0000
  C   C320      1.0  0.80340  0.73828  0.25776  1.0000
  C   C321      1.0  0.80368  0.72321  0.34112  1.0000
  H   H193      1.0  0.80247  0.78041  0.19638  1.0000
  O   O67       1.0  0.80236  0.72342  0.17828  1.0000
  H   H194      1.0  0.81313  0.71785  0.16201  1.0000
  C   C322      1.0  0.20371  0.73935  0.25983  1.0000
  C   C323      1.0  0.20361  0.77057  0.26099  1.0000
  C   C324      1.0  0.20434  0.78561  0.34431  1.0000
  H   H195      1.0  0.20375  0.72846  0.19929  1.0000
  O   O68       1.0  0.20395  0.78546  0.18134  1.0000
  H   H196      1.0  0.19301  0.79031  0.16699  1.0000
  C   C325      1.0  0.33669  0.63491  0.25590  1.0000
  C   C326      1.0  0.35277  0.64206  0.25385  1.0000
  C   C327      1.0  0.36108  0.64654  0.33508  1.0000
  O   O69       1.0  0.36009  0.64387  0.17274  1.0000
  H   H197      1.0  0.33115  0.62998  0.19664  1.0000
  H   H198      1.0  0.36439  0.62398  0.16056  1.0000
  C   C328      1.0  0.66910  0.88172  0.24948  1.0000
  C   C329      1.0  0.65305  0.87430  0.25074  1.0000
  C   C330      1.0  0.64629  0.86153  0.32863  1.0000
  O   O70       1.0  0.64434  0.87901  0.17536  1.0000
  H   H199      1.0  0.67354  0.89211  0.19370  1.0000
  H   H200      1.0  0.64226  0.90050  0.17257  1.0000
  C   C331      1.0  0.65494  0.64453  0.26610  1.0000
  C   C332      1.0  0.67096  0.63676  0.26406  1.0000
  C   C333      1.0  0.67931  0.63209  0.34516  1.0000
  H   H201      1.0  0.64910  0.64756  0.20666  1.0000
  O   O71       1.0  0.67809  0.63308  0.18294  1.0000
  H   H202      1.0  0.67558  0.61279  0.16294  1.0000
  C   C334      1.0  0.35187  0.85622  0.27778  1.0000
  C   C335      1.0  0.33594  0.86466  0.27803  1.0000
  C   C336      1.0  0.32921  0.87743  0.35597  1.0000
  H   H203      1.0  0.35654  0.84760  0.21995  1.0000
  O   O72       1.0  0.32747  0.86146  0.20108  1.0000
  H   H204      1.0  0.32920  0.87964  0.16571  1.0000
  C   C337      1.0  0.83608  0.88891  0.26160  1.0000
  C   C338      1.0  0.85214  0.89620  0.25887  1.0000
  C   C339      1.0  0.86109  0.89666  0.33907  1.0000
  O   O73       1.0  0.85886  0.90166  0.17754  1.0000
  H   H205      1.0  0.83010  0.88678  0.20219  1.0000
  H   H206      1.0  0.86333  0.88266  0.15714  1.0000
  C   C340      1.0  0.16916  0.63046  0.25079  1.0000
  C   C341      1.0  0.15311  0.62311  0.25259  1.0000
  C   C342      1.0  0.14627  0.61160  0.33198  1.0000
  O   O74       1.0  0.14447  0.62671  0.17638  1.0000
  H   H207      1.0  0.17366  0.63995  0.19374  1.0000
  H   H208      1.0  0.14219  0.64809  0.17146  1.0000
  C   C343      1.0  0.15425  0.89020  0.26207  1.0000
  C   C344      1.0  0.17026  0.88244  0.25945  1.0000
  C   C345      1.0  0.17929  0.88202  0.33942  1.0000
  H   H209      1.0  0.14794  0.89019  0.20350  1.0000
  O   O75       1.0  0.17682  0.87490  0.17914  1.0000
  H   H210      1.0  0.17360  0.85431  0.16658  1.0000
  C   C346      1.0  0.85199  0.60755  0.27329  1.0000
  C   C347      1.0  0.83606  0.61598  0.27419  1.0000
  C   C348      1.0  0.82921  0.62728  0.35386  1.0000
  H   H211      1.0  0.85675  0.59989  0.21447  1.0000
  O   O76       1.0  0.82766  0.61406  0.19659  1.0000
  H   H212      1.0  0.82948  0.63277  0.16395  1.0000
  C   C349      1.0  0.09490  0.66982  0.26828  1.0000
  C   C350      1.0  0.08587  0.69615  0.26823  1.0000
  C   C351      1.0  0.07154  0.69809  0.31670  1.0000
  H   H213      1.0  0.10456  0.66961  0.22759  1.0000
  O   O77       1.0  0.09019  0.71793  0.20918  1.0000
  H   H214      1.0  0.10059  0.72522  0.22738  1.0000
  C   C352      1.0  0.91138  0.83505  0.29590  1.0000
  C   C353      1.0  0.92079  0.80932  0.29448  1.0000
  C   C354      1.0  0.93572  0.80854  0.33715  1.0000
  H   H215      1.0  0.90109  0.83402  0.26065  1.0000
  O   O78       1.0  0.91517  0.78647  0.24353  1.0000
  H   H216      1.0  0.92139  0.78625  0.18788  1.0000
  C   C355      1.0  0.94135  0.67145  0.32341  1.0000
  C   C356      1.0  0.93195  0.64536  0.32062  1.0000
  C   C357      1.0  0.91700  0.64410  0.36328  1.0000
  O   O79       1.0  0.93724  0.62295  0.26721  1.0000
  H   H217      1.0  0.95137  0.67154  0.28566  1.0000
  H   H218      1.0  0.93221  0.62566  0.20829  1.0000
  C   C358      1.0  0.06679  0.83623  0.31164  1.0000
  C   C359      1.0  0.07629  0.86223  0.31111  1.0000
  C   C360      1.0  0.09183  0.86206  0.34618  1.0000
  O   O80       1.0  0.07039  0.88637  0.26761  1.0000
  H   H219      1.0  0.05626  0.83732  0.27902  1.0000
  H   H220      1.0  0.07476  0.88594  0.20646  1.0000
  C   C361      1.0  0.59487  0.91995  0.26723  1.0000
  C   C362      1.0  0.58586  0.94629  0.26778  1.0000
  C   C363      1.0  0.57155  0.94815  0.31648  1.0000
  H   H221      1.0  0.60451  0.91979  0.22632  1.0000
  O   O81       1.0  0.59016  0.96818  0.20905  1.0000
  H   H222      1.0  0.60057  0.97544  0.22731  1.0000
  C   C364      1.0  0.41147  0.58498  0.29307  1.0000
  C   C365      1.0  0.42089  0.55925  0.29237  1.0000
  C   C366      1.0  0.43575  0.55852  0.33584  1.0000
  H   H223      1.0  0.40126  0.58393  0.25719  1.0000
  O   O82       1.0  0.41536  0.53633  0.24141  1.0000
  H   H224      1.0  0.42165  0.53607  0.18602  1.0000
  C   C367      1.0  0.44135  0.92145  0.32393  1.0000
  C   C368      1.0  0.43195  0.89536  0.32157  1.0000
  C   C369      1.0  0.41703  0.89414  0.36455  1.0000
  O   O83       1.0  0.43722  0.87289  0.26829  1.0000
  H   H225      1.0  0.45136  0.92150  0.28603  1.0000
  H   H226      1.0  0.43215  0.87553  0.20945  1.0000
  C   C370      1.0  0.56684  0.58623  0.31275  1.0000
  C   C371      1.0  0.57636  0.61220  0.31271  1.0000
  C   C372      1.0  0.59183  0.61202  0.34880  1.0000
  O   O84       1.0  0.57055  0.63631  0.26864  1.0000
  H   H227      1.0  0.55637  0.58731  0.27949  1.0000
  H   H228      1.0  0.57502  0.63580  0.20774  1.0000
  C   C373      1.0  0.09471  0.51969  0.32338  1.0000
  C   C374      1.0  0.09470  0.98803  0.32166  1.0000
  C   C375      1.0  0.10580  0.97149  0.37265  1.0000
  H   H229      1.0  0.08784  0.53070  0.27783  1.0000
  O   O85       1.0  0.08534  0.97429  0.26034  1.0000
  H   H230      1.0  0.09153  0.97247  0.20484  1.0000
  C   C376      1.0  0.89294  0.98803  0.24827  1.0000
  C   C377      1.0  0.89265  0.51928  0.24733  1.0000
  C   C378      1.0  0.90203  0.53603  0.30794  1.0000
  H   H231      1.0  0.88576  0.97715  0.20390  1.0000
  O   O86       1.0  0.88388  0.53313  0.18267  1.0000
  H   H232      1.0  0.87290  0.52687  0.18989  1.0000
  C   C379      1.0  0.59469  0.76960  0.32211  1.0000
  C   C380      1.0  0.59471  0.73792  0.32107  1.0000
  C   C381      1.0  0.60586  0.72154  0.37213  1.0000
  H   H233      1.0  0.58779  0.78048  0.27650  1.0000
  O   O87       1.0  0.58532  0.72402  0.26028  1.0000
  H   H234      1.0  0.59147  0.72205  0.20471  1.0000
  C   C382      1.0  0.39288  0.73826  0.24896  1.0000
  C   C383      1.0  0.39261  0.76951  0.24874  1.0000
  C   C384      1.0  0.40204  0.78607  0.30951  1.0000
  H   H235      1.0  0.38567  0.72751  0.20444  1.0000
  O   O88       1.0  0.38380  0.78355  0.18465  1.0000
  H   H236      1.0  0.37282  0.77733  0.19212  1.0000
  C   C385      1.0  0.99512  0.73667  0.28111  1.0000
  C   C386      1.0  0.01167  0.73662  0.27614  1.0000
  C   C387      1.0  0.02086  0.75382  0.33661  1.0000
  O   O89       1.0  0.01835  0.71976  0.21052  1.0000
  H   H237      1.0  0.98898  0.72417  0.23562  1.0000
  H   H238      1.0  0.02114  0.73351  0.16167  1.0000
  C   C388      1.0  0.49513  0.48669  0.28107  1.0000
  C   C389      1.0  0.51168  0.48665  0.27613  1.0000
  C   C390      1.0  0.52086  0.50383  0.33669  1.0000
  O   O90       1.0  0.51837  0.46982  0.21047  1.0000
  H   H239      1.0  0.48900  0.47420  0.23551  1.0000
  H   H240      1.0  0.52117  0.48359  0.16169  1.0000
  C   C391      1.0  0.30218  0.56663  0.34204  1.0000
  C   C392      1.0  0.31563  0.58455  0.33950  1.0000
  C   C393      1.0  0.31431  0.61582  0.33920  1.0000
  C   C394      1.0  0.29920  0.62896  0.34144  1.0000
  C   C395      1.0  0.28554  0.61094  0.34534  1.0000
  C   C396      1.0  0.28726  0.57973  0.34503  1.0000
  H   H241      1.0  0.29816  0.65163  0.34133  1.0000
  H   H242      1.0  0.27755  0.56628  0.34566  1.0000
  H   H243      1.0  0.32646  0.57465  0.33799  1.0000
  C   C397      1.0  0.70547  0.94228  0.34296  1.0000
  C   C398      1.0  0.69196  0.92470  0.33536  1.0000
  C   C399      1.0  0.69307  0.89340  0.33186  1.0000
  C   C400      1.0  0.70808  0.87993  0.33712  1.0000
  C   C401      1.0  0.72183  0.89756  0.34530  1.0000
  C   C402      1.0  0.72028  0.92880  0.34766  1.0000
  H   H244      1.0  0.70900  0.85725  0.33454  1.0000
  H   H245      1.0  0.73006  0.94205  0.35073  1.0000
  H   H246      1.0  0.68122  0.93491  0.33258  1.0000
  C   C403      1.0  0.70570  0.56667  0.34067  1.0000
  C   C404      1.0  0.69225  0.58458  0.34344  1.0000
  C   C405      1.0  0.69356  0.61585  0.34392  1.0000
  C   C406      1.0  0.70867  0.62900  0.34156  1.0000
  C   C407      1.0  0.72234  0.61099  0.33745  1.0000
  C   C408      1.0  0.72062  0.57978  0.33761  1.0000
  H   H247      1.0  0.70971  0.65167  0.34175  1.0000
  H   H248      1.0  0.73033  0.56633  0.33684  1.0000
  H   H249      1.0  0.68142  0.57467  0.34501  1.0000
  C   C409      1.0  0.30244  0.94223  0.33947  1.0000
  C   C410      1.0  0.31595  0.92466  0.34675  1.0000
  C   C411      1.0  0.31486  0.89337  0.35016  1.0000
  C   C412      1.0  0.29984  0.87988  0.34509  1.0000
  C   C413      1.0  0.28609  0.89751  0.33724  1.0000
  C   C414      1.0  0.28763  0.92875  0.33498  1.0000
  H   H250      1.0  0.29893  0.85721  0.34756  1.0000
  H   H251      1.0  0.27785  0.94199  0.33205  1.0000
  H   H252      1.0  0.32669  0.93488  0.34939  1.0000
  C   C415      1.0  0.80221  0.81657  0.33573  1.0000
  C   C416      1.0  0.81565  0.83449  0.33954  1.0000
  C   C417      1.0  0.81434  0.86577  0.34080  1.0000
  C   C418      1.0  0.79923  0.87890  0.33789  1.0000
  C   C419      1.0  0.78557  0.86089  0.33310  1.0000
  C   C420      1.0  0.78730  0.82968  0.33265  1.0000
  H   H253      1.0  0.79818  0.90157  0.33895  1.0000
  H   H254      1.0  0.77758  0.81623  0.33200  1.0000
  H   H255      1.0  0.82648  0.82458  0.34179  1.0000
  C   C421      1.0  0.20545  0.69225  0.33794  1.0000
  C   C422      1.0  0.19192  0.67460  0.33481  1.0000
  C   C423      1.0  0.19305  0.64330  0.33165  1.0000
  C   C424      1.0  0.20809  0.62988  0.33299  1.0000
  C   C425      1.0  0.22185  0.64766  0.33389  1.0000
  C   C426      1.0  0.22031  0.67887  0.33726  1.0000
  H   H256      1.0  0.20904  0.60720  0.33071  1.0000
  H   H257      1.0  0.23009  0.69211  0.33991  1.0000
  H   H258      1.0  0.18114  0.68473  0.33525  1.0000
  C   C427      1.0  0.20569  0.81661  0.34673  1.0000
  C   C428      1.0  0.19225  0.83452  0.34310  1.0000
  C   C429      1.0  0.19355  0.86580  0.34201  1.0000
  C   C430      1.0  0.20866  0.87895  0.34493  1.0000
  C   C431      1.0  0.22232  0.86095  0.34953  1.0000
  C   C432      1.0  0.22060  0.82974  0.34981  1.0000
  H   H259      1.0  0.20970  0.90162  0.34403  1.0000
  H   H260      1.0  0.23032  0.81629  0.35036  1.0000
  H   H261      1.0  0.18142  0.82460  0.34091  1.0000
  C   C433      1.0  0.80245  0.69220  0.34419  1.0000
  C   C434      1.0  0.81599  0.67455  0.34711  1.0000
  C   C435      1.0  0.81486  0.64325  0.35021  1.0000
  C   C436      1.0  0.79981  0.62983  0.34907  1.0000
  C   C437      1.0  0.78605  0.64760  0.34837  1.0000
  C   C438      1.0  0.78760  0.67882  0.34503  1.0000
  H   H262      1.0  0.79887  0.60715  0.35134  1.0000
  H   H263      1.0  0.77781  0.69206  0.34254  1.0000
  H   H264      1.0  0.82677  0.68468  0.34659  1.0000
  C   C439      1.0  0.12999  0.60453  0.33602  1.0000
  C   C440      1.0  0.11832  0.62630  0.32410  1.0000
  C   C441      1.0  0.10196  0.61989  0.32670  1.0000
  C   C442      1.0  0.09790  0.58938  0.34157  1.0000
  C   C443      1.0  0.10924  0.56672  0.35821  1.0000
  C   C444      1.0  0.12521  0.57525  0.35332  1.0000
  H   H265      1.0  0.08638  0.58335  0.34150  1.0000
  H   H266      1.0  0.13381  0.55938  0.35660  1.0000
  H   H267      1.0  0.12212  0.64780  0.31898  1.0000
  C   C445      1.0  0.87737  0.90330  0.33747  1.0000
  C   C446      1.0  0.88880  0.88087  0.34380  1.0000
  C   C447      1.0  0.90519  0.88678  0.33973  1.0000
  C   C448      1.0  0.90960  0.91748  0.33607  1.0000
  C   C449      1.0  0.89845  0.94078  0.32363  1.0000
  C   C450      1.0  0.88237  0.93268  0.32502  1.0000
  H   H268      1.0  0.92116  0.92280  0.32885  1.0000
  H   H269      1.0  0.87389  0.94880  0.32199  1.0000
  H   H270      1.0  0.88485  0.85961  0.35357  1.0000
  C   C451      1.0  0.87794  0.60463  0.34548  1.0000
  C   C452      1.0  0.88962  0.62639  0.35757  1.0000
  C   C453      1.0  0.90597  0.61998  0.35497  1.0000
  C   C454      1.0  0.91003  0.58947  0.34011  1.0000
  C   C455      1.0  0.89869  0.56680  0.32354  1.0000
  C   C456      1.0  0.88271  0.57535  0.32827  1.0000
  H   H271      1.0  0.92155  0.58343  0.34019  1.0000
  H   H272      1.0  0.87412  0.55949  0.32502  1.0000
  H   H273      1.0  0.88582  0.64790  0.36262  1.0000
  C   C457      1.0  0.13046  0.90315  0.34621  1.0000
  C   C458      1.0  0.11903  0.88073  0.33998  1.0000
  C   C459      1.0  0.10263  0.88666  0.34388  1.0000
  C   C460      1.0  0.09824  0.91739  0.34753  1.0000
  C   C461      1.0  0.10940  0.94069  0.35967  1.0000
  C   C462      1.0  0.12547  0.93256  0.35834  1.0000
  H   H274      1.0  0.08668  0.92270  0.35443  1.0000
  H   H275      1.0  0.13396  0.94866  0.36119  1.0000
  H   H276      1.0  0.12296  0.85947  0.33022  1.0000
  C   C463      1.0  0.63000  0.85445  0.33254  1.0000
  C   C464      1.0  0.61831  0.87626  0.32144  1.0000
  C   C465      1.0  0.60195  0.86990  0.32466  1.0000
  C   C466      1.0  0.59789  0.83939  0.33954  1.0000
  C   C467      1.0  0.60924  0.81672  0.35565  1.0000
  C   C468      1.0  0.62521  0.82518  0.34983  1.0000
  H   H277      1.0  0.58637  0.83338  0.34007  1.0000
  H   H278      1.0  0.63379  0.80927  0.35279  1.0000
  H   H279      1.0  0.62211  0.89778  0.31683  1.0000
  C   C469      1.0  0.37735  0.65320  0.33449  1.0000
  C   C470      1.0  0.38877  0.63073  0.33955  1.0000
  C   C471      1.0  0.40517  0.63669  0.33689  1.0000
  C   C472      1.0  0.40956  0.66742  0.33436  1.0000
  C   C473      1.0  0.39841  0.69079  0.32293  1.0000
  C   C474      1.0  0.38233  0.68268  0.32412  1.0000
  H   H280      1.0  0.42112  0.67280  0.32797  1.0000
  H   H281      1.0  0.37383  0.69878  0.32166  1.0000
  H   H282      1.0  0.38481  0.60944  0.34837  1.0000
  C   C475      1.0  0.37795  0.85455  0.34885  1.0000
  C   C476      1.0  0.38964  0.87635  0.36004  1.0000
  C   C477      1.0  0.40600  0.86998  0.35687  1.0000
  C   C478      1.0  0.41006  0.83947  0.34195  1.0000
  C   C479      1.0  0.39871  0.81680  0.32586  1.0000
  C   C480      1.0  0.38274  0.82527  0.33159  1.0000
  H   H283      1.0  0.42159  0.83345  0.34147  1.0000
  H   H284      1.0  0.37416  0.80937  0.32867  1.0000
  H   H285      1.0  0.38584  0.89786  0.36474  1.0000
  C   C481      1.0  0.63049  0.65306  0.34896  1.0000
  C   C482      1.0  0.61906  0.63060  0.34421  1.0000
  C   C483      1.0  0.60266  0.63658  0.34672  1.0000
  C   C484      1.0  0.59829  0.66734  0.34891  1.0000
  C   C485      1.0  0.60945  0.69070  0.36004  1.0000
  C   C486      1.0  0.62552  0.68256  0.35880  1.0000
  H   H286      1.0  0.58673  0.67275  0.35522  1.0000
  H   H287      1.0  0.63403  0.69866  0.36109  1.0000
  H   H288      1.0  0.62302  0.60930  0.33568  1.0000
  C   C487      1.0  0.06289  0.72543  0.32461  1.0000
  C   C488      1.0  0.07070  0.75332  0.32919  1.0000
  C   C489      1.0  0.06314  0.78139  0.33805  1.0000
  C   C490      1.0  0.04650  0.78064  0.33636  1.0000
  C   C491      1.0  0.03779  0.75369  0.33458  1.0000
  C   C492      1.0  0.04632  0.72654  0.33194  1.0000
  H   H289      1.0  0.04046  0.80021  0.34121  1.0000
  H   H290      1.0  0.04015  0.70706  0.33022  1.0000
  H   H291      1.0  0.08260  0.75316  0.32666  1.0000
  C   C493      1.0  0.94466  0.78152  0.34480  1.0000
  C   C494      1.0  0.93714  0.75340  0.35351  1.0000
  C   C495      1.0  0.94500  0.72555  0.35791  1.0000
  C   C496      1.0  0.96158  0.72675  0.35028  1.0000
  C   C497      1.0  0.97001  0.75397  0.34736  1.0000
  C   C498      1.0  0.96130  0.78089  0.34622  1.0000
  H   H292      1.0  0.96782  0.70739  0.35480  1.0000
  H   H293      1.0  0.96731  0.80040  0.33843  1.0000
  H   H294      1.0  0.92524  0.75318  0.35611  1.0000
  C   C499      1.0  0.56290  0.97548  0.32473  1.0000
  C   C500      1.0  0.57071  0.50335  0.32981  1.0000
  C   C501      1.0  0.56314  0.53139  0.33885  1.0000
  C   C502      1.0  0.54650  0.53067  0.33675  1.0000
  C   C503      1.0  0.53780  0.00371  0.33474  1.0000
  C   C504      1.0  0.54632  0.97657  0.33194  1.0000
  H   H295      1.0  0.54046  0.55023  0.34183  1.0000
  H   H296      1.0  0.54017  0.95708  0.32998  1.0000
  H   H297      1.0  0.58262  0.50319  0.32756  1.0000
  C   C505      1.0  0.44468  0.53151  0.34404  1.0000
  C   C506      1.0  0.43715  0.00342  0.35296  1.0000
  C   C507      1.0  0.44502  0.97558  0.35783  1.0000
  C   C508      1.0  0.46159  0.97676  0.35040  1.0000
  C   C509      1.0  0.47003  0.50399  0.34721  1.0000
  C   C510      1.0  0.46131  0.53090  0.34566  1.0000
  H   H298      1.0  0.46783  0.95740  0.35508  1.0000
  H   H299      1.0  0.46732  0.55041  0.33787  1.0000
  H   H300      1.0  0.42525  0.00320  0.35535  1.0000
  C   C511      1.0  0.25950  0.61420  0.41481  1.0000
  C   C512      1.0  0.24342  0.62128  0.41044  1.0000
  C   C513      1.0  0.23734  0.63600  0.33401  1.0000
  H   H301      1.0  0.26356  0.60294  0.46994  1.0000
  O   O91       1.0  0.23405  0.61370  0.48084  1.0000
  H   H302      1.0  0.23412  0.63082  0.52198  1.0000
  C   C514      1.0  0.74781  0.89361  0.41532  1.0000
  C   C515      1.0  0.76389  0.88660  0.41075  1.0000
  C   C516      1.0  0.77002  0.87227  0.33372  1.0000
  H   H303      1.0  0.74373  0.90462  0.47088  1.0000
  O   O92       1.0  0.77320  0.89390  0.48166  1.0000
  H   H304      1.0  0.77325  0.87650  0.52167  1.0000
  C   C517      1.0  0.76010  0.64412  0.41806  1.0000
  C   C518      1.0  0.74402  0.63709  0.41382  1.0000
  C   C519      1.0  0.73790  0.62238  0.33742  1.0000
  O   O93       1.0  0.73471  0.64469  0.48447  1.0000
  H   H305      1.0  0.76419  0.65541  0.47309  1.0000
  H   H306      1.0  0.73471  0.62749  0.52530  1.0000
  C   C520      1.0  0.24836  0.86445  0.41886  1.0000
  C   C521      1.0  0.26444  0.87145  0.41428  1.0000
  C   C522      1.0  0.27058  0.88581  0.33731  1.0000
  O   O94       1.0  0.27372  0.86423  0.48539  1.0000
  H   H307      1.0  0.24426  0.85349  0.47449  1.0000
  H   H308      1.0  0.27369  0.88162  0.52547  1.0000
  C   C523      1.0  0.30393  0.98853  0.42198  1.0000
  C   C524      1.0  0.30399  0.51974  0.42377  1.0000
  C   C525      1.0  0.30355  0.53562  0.34183  1.0000
  O   O95       1.0  0.30345  0.53379  0.50477  1.0000
  H   H309      1.0  0.30371  0.97703  0.48147  1.0000
  H   H310      1.0  0.31431  0.53937  0.51905  1.0000
  C   C526      1.0  0.70461  0.52039  0.42361  1.0000
  C   C527      1.0  0.70447  0.98918  0.42534  1.0000
  C   C528      1.0  0.70428  0.97331  0.34333  1.0000
  O   O96       1.0  0.70544  0.97510  0.50615  1.0000
  H   H311      1.0  0.70527  0.53187  0.48300  1.0000
  H   H312      1.0  0.69468  0.96935  0.52207  1.0000
  C   C529      1.0  0.80415  0.73928  0.42245  1.0000
  C   C530      1.0  0.80425  0.77050  0.42138  1.0000
  C   C531      1.0  0.80357  0.78557  0.33808  1.0000
  O   O97       1.0  0.80385  0.78536  0.50106  1.0000
  H   H313      1.0  0.80406  0.72838  0.48296  1.0000
  H   H314      1.0  0.81478  0.79024  0.51561  1.0000
  C   C532      1.0  0.20476  0.76952  0.42561  1.0000
  C   C533      1.0  0.20455  0.73830  0.42451  1.0000
  C   C534      1.0  0.20422  0.72326  0.34111  1.0000
  O   O98       1.0  0.20565  0.72342  0.50394  1.0000
  H   H315      1.0  0.20553  0.78041  0.48597  1.0000
  H   H316      1.0  0.19489  0.71782  0.52038  1.0000
  C   C535      1.0  0.35294  0.64433  0.41739  1.0000
  C   C536      1.0  0.33693  0.63650  0.41939  1.0000
  C   C537      1.0  0.32856  0.63208  0.33825  1.0000
  H   H317      1.0  0.35880  0.64718  0.47685  1.0000
  O   O99       1.0  0.32983  0.63253  0.50049  1.0000
  H   H318      1.0  0.33240  0.61220  0.51993  1.0000
  C   C538      1.0  0.65606  0.85613  0.40377  1.0000
  C   C539      1.0  0.67198  0.86463  0.40366  1.0000
  C   C540      1.0  0.67872  0.87745  0.32582  1.0000
  H   H319      1.0  0.65138  0.84748  0.46154  1.0000
  O   O100      1.0  0.68044  0.86142  0.48068  1.0000
  H   H320      1.0  0.67868  0.87959  0.51607  1.0000
  C   C541      1.0  0.67114  0.63461  0.42748  1.0000
  C   C542      1.0  0.65505  0.64168  0.42955  1.0000
  C   C543      1.0  0.64676  0.64640  0.34836  1.0000
  O   O101      1.0  0.64770  0.64322  0.51062  1.0000
  H   H321      1.0  0.67666  0.62952  0.48667  1.0000
  H   H322      1.0  0.64344  0.62326  0.52229  1.0000
  C   C544      1.0  0.33885  0.88170  0.43228  1.0000
  C   C545      1.0  0.35490  0.87433  0.43084  1.0000
  C   C546      1.0  0.36165  0.86162  0.35285  1.0000
  O   O102      1.0  0.36363  0.87902  0.50619  1.0000
  H   H323      1.0  0.33441  0.89205  0.48813  1.0000
  H   H324      1.0  0.36570  0.90053  0.50902  1.0000
  C   C547      1.0  0.85356  0.89035  0.42138  1.0000
  C   C548      1.0  0.83756  0.88252  0.42384  1.0000
  C   C549      1.0  0.82859  0.88202  0.34370  1.0000
  H   H325      1.0  0.85985  0.89040  0.48002  1.0000
  O   O103      1.0  0.83097  0.87498  0.50406  1.0000
  H   H326      1.0  0.83419  0.85440  0.51668  1.0000
  C   C550      1.0  0.15594  0.60739  0.40821  1.0000
  C   C551      1.0  0.17186  0.61587  0.40740  1.0000
  C   C552      1.0  0.17871  0.62731  0.32792  1.0000
  H   H327      1.0  0.15118  0.59965  0.46694  1.0000
  O   O104      1.0  0.18026  0.61388  0.48499  1.0000
  H   H328      1.0  0.17844  0.63255  0.51780  1.0000
  C   C553      1.0  0.17181  0.88896  0.42151  1.0000
  C   C554      1.0  0.15573  0.89618  0.42447  1.0000
  C   C555      1.0  0.14675  0.89652  0.34443  1.0000
  O   O105      1.0  0.14905  0.90170  0.50587  1.0000
  H   H329      1.0  0.17781  0.88690  0.48085  1.0000
  H   H330      1.0  0.14461  0.88271  0.52649  1.0000
  C   C556      1.0  0.83875  0.63034  0.43104  1.0000
  C   C557      1.0  0.85481  0.62306  0.42912  1.0000
  C   C558      1.0  0.86166  0.61169  0.34956  1.0000
  O   O106      1.0  0.86345  0.62657  0.50537  1.0000
  H   H331      1.0  0.83424  0.63975  0.48819  1.0000
  H   H332      1.0  0.86573  0.64794  0.51044  1.0000
  C   C559      1.0  0.06659  0.67131  0.35887  1.0000
  C   C560      1.0  0.07599  0.64523  0.36133  1.0000
  C   C561      1.0  0.09094  0.64403  0.31860  1.0000
  O   O107      1.0  0.07070  0.62275  0.41448  1.0000
  H   H333      1.0  0.05658  0.67134  0.39669  1.0000
  H   H334      1.0  0.07572  0.62540  0.47344  1.0000
  C   C562      1.0  0.94101  0.83630  0.37157  1.0000
  C   C563      1.0  0.93152  0.86230  0.37234  1.0000
  C   C564      1.0  0.91597  0.86216  0.33731  1.0000
  O   O108      1.0  0.93742  0.88641  0.41603  1.0000
  H   H335      1.0  0.95156  0.83735  0.40410  1.0000
  H   H336      1.0  0.93305  0.88592  0.47718  1.0000
  C   C565      1.0  0.91304  0.66983  0.41391  1.0000
  C   C566      1.0  0.92206  0.69615  0.41429  1.0000
  C   C567      1.0  0.93639  0.69817  0.36585  1.0000
  H   H337      1.0  0.90337  0.66956  0.45458  1.0000
  O   O109      1.0  0.91775  0.71787  0.47359  1.0000
  H   H338      1.0  0.90733  0.72514  0.45556  1.0000
  C   C568      1.0  0.09641  0.83492  0.38751  1.0000
  C   C569      1.0  0.08698  0.80920  0.38872  1.0000
  C   C570      1.0  0.07207  0.80843  0.34585  1.0000
  H   H339      1.0  0.10668  0.83387  0.42284  1.0000
  O   O110      1.0  0.09258  0.78634  0.43969  1.0000
  H   H340      1.0  0.08634  0.78609  0.49525  1.0000
  C   C571      1.0  0.56662  0.92132  0.35834  1.0000
  C   C572      1.0  0.57602  0.89524  0.36032  1.0000
  C   C573      1.0  0.59094  0.89408  0.31728  1.0000
  O   O111      1.0  0.57074  0.87270  0.41331  1.0000
  H   H341      1.0  0.55662  0.92130  0.39630  1.0000
  H   H342      1.0  0.57581  0.87525  0.47219  1.0000
  C   C574      1.0  0.44098  0.58629  0.37045  1.0000
  C   C575      1.0  0.43146  0.61226  0.37073  1.0000
  C   C576      1.0  0.41598  0.61211  0.33477  1.0000
  O   O112      1.0  0.43728  0.63635  0.41489  1.0000
  H   H343      1.0  0.45146  0.58735  0.40356  1.0000
  H   H344      1.0  0.43281  0.63582  0.47580  1.0000
  C   C577      1.0  0.41309  0.91993  0.41495  1.0000
  C   C578      1.0  0.42210  0.94627  0.41479  1.0000
  C   C579      1.0  0.43641  0.94822  0.36611  1.0000
  H   H345      1.0  0.40345  0.91971  0.45582  1.0000
  O   O113      1.0  0.41780  0.96809  0.47379  1.0000
  H   H346      1.0  0.40738  0.97533  0.45574  1.0000
  C   C580      1.0  0.59631  0.58489  0.39050  1.0000
  C   C581      1.0  0.58689  0.55916  0.39099  1.0000
  C   C582      1.0  0.57206  0.55842  0.34722  1.0000
  H   H347      1.0  0.60651  0.58382  0.42652  1.0000
  O   O114      1.0  0.59240  0.53624  0.44201  1.0000
  H   H348      1.0  0.58608  0.53595  0.49728  1.0000
  C   C583      1.0  0.11495  0.98803  0.43441  1.0000
  C   C584      1.0  0.11527  0.51929  0.43488  1.0000
  C   C585      1.0  0.10589  0.53598  0.37412  1.0000
  O   O115      1.0  0.12405  0.53320  0.49933  1.0000
  H   H349      1.0  0.12212  0.97720  0.47888  1.0000
  H   H350      1.0  0.13503  0.52692  0.49210  1.0000
  C   C586      1.0  0.91322  0.51980  0.35879  1.0000
  C   C587      1.0  0.91318  0.98813  0.36104  1.0000
  C   C588      1.0  0.90206  0.97156  0.31033  1.0000
  O   O116      1.0  0.92253  0.97446  0.42256  1.0000
  H   H351      1.0  0.92007  0.53084  0.40435  1.0000
  H   H352      1.0  0.91634  0.97275  0.47807  1.0000
  C   C589      1.0  0.61502  0.73825  0.43340  1.0000
  C   C590      1.0  0.61533  0.76950  0.43320  1.0000
  C   C591      1.0  0.60590  0.78601  0.37227  1.0000
  O   O117      1.0  0.62415  0.78359  0.49710  1.0000
  H   H353      1.0  0.62223  0.72755  0.47801  1.0000
  H   H354      1.0  0.63513  0.77735  0.48963  1.0000
  C   C592      1.0  0.41325  0.76969  0.35983  1.0000
  C   C593      1.0  0.41318  0.73802  0.36137  1.0000
  C   C594      1.0  0.40202  0.72160  0.31049  1.0000
  O   O118      1.0  0.42255  0.72417  0.42240  1.0000
  H   H355      1.0  0.42013  0.78061  0.40550  1.0000
  H   H356      1.0  0.41638  0.72230  0.47795  1.0000
  C   C595      1.0  0.01261  0.77137  0.40004  1.0000
  C   C596      1.0  0.99606  0.77159  0.40463  1.0000
  C   C597      1.0  0.98691  0.75421  0.34461  1.0000
  H   H357      1.0  0.01873  0.78381  0.44582  1.0000
  O   O119      1.0  0.98927  0.78871  0.46926  1.0000
  H   H358      1.0  0.98675  0.77527  0.51936  1.0000
  C   C598      1.0  0.51261  0.52137  0.40013  1.0000
  C   C599      1.0  0.49606  0.52159  0.40463  1.0000
  C   C600      1.0  0.48692  0.50421  0.34455  1.0000
  H   H359      1.0  0.51872  0.53380  0.44596  1.0000
  O   O120      1.0  0.48926  0.53871  0.46922  1.0000
  H   H360      1.0  0.48674  0.52528  0.51932  1.0000
