data_image0
_chemical_formula_structural       C3HCH3C3HCH3C3HCH3C3HCH3C3HCH3C3HCH3C3HCH3C3HCH3C3HCH3C3HCH3C3HCH3C3HCH3C3HCH3C3HCH3C3HCH3C3HCH3C3HCH3C3HCH3NC18H12NC18H12NC18H12NC18H12NC18H12NC18H12NC18H12NC18H12NC18H12NC18H12NC18H12NC18H12C3HCH3C3HCH3C3HCH3C3HCH3C3HCH3C3HCH3C3HCH3C3HCH3C3HCH3C3HCH3C3HCH3C3HCH3C3HCH3C3HCH3C3HCH3C3HCH3C3HCH3C3HCH3
_chemical_formula_sum              "C360 H288 N12"
_cell_length_a       64.2495
_cell_length_b       64.2495
_cell_length_c       14.7339
_cell_angle_alpha    90
_cell_angle_beta     90
_cell_angle_gamma    120

_space_group_name_H-M_alt    "P 1"
_space_group_IT_number       1

loop_
  _space_group_symop_operation_xyz
  'x, y, z'

loop_
  _atom_site_type_symbol
  _atom_site_label
  _atom_site_symmetry_multiplicity
  _atom_site_fract_x
  _atom_site_fract_y
  _atom_site_fract_z
  _atom_site_occupancy
  C   C1        1.0  0.21775  0.41794  0.34978  1.0000
  C   C2        1.0  0.21069  0.37878  0.28703  1.0000
  C   C3        1.0  0.22290  0.40435  0.28737  1.0000
  H   H1        1.0  0.23659  0.41339  0.24193  1.0000
  C   C4        1.0  0.21899  0.36744  0.21843  1.0000
  H   H2        1.0  0.21023  0.34797  0.22397  1.0000
  H   H3        1.0  0.23827  0.37444  0.22610  1.0000
  H   H4        1.0  0.21560  0.37176  0.15033  1.0000
  C   C5        1.0  0.59195  0.79164  0.34974  1.0000
  C   C6        1.0  0.63111  0.82372  0.28694  1.0000
  C   C7        1.0  0.60554  0.81036  0.28728  1.0000
  H   H5        1.0  0.59649  0.81499  0.24179  1.0000
  C   C8        1.0  0.64245  0.84334  0.21828  1.0000
  H   H6        1.0  0.66192  0.85406  0.22384  1.0000
  H   H7        1.0  0.63544  0.85562  0.22587  1.0000
  H   H8        1.0  0.63813  0.83561  0.15020  1.0000
  C   C9        1.0  0.21825  0.79215  0.34974  1.0000
  C   C10       1.0  0.18616  0.79922  0.28698  1.0000
  C   C11       1.0  0.19952  0.78701  0.28731  1.0000
  H   H9        1.0  0.19488  0.77333  0.24184  1.0000
  C   C12       1.0  0.16653  0.79093  0.21835  1.0000
  H   H10       1.0  0.15581  0.79969  0.22389  1.0000
  H   H11       1.0  0.15425  0.77165  0.22597  1.0000
  H   H12       1.0  0.17425  0.79434  0.15025  1.0000
  C   C13       1.0  0.80089  0.58322  0.34978  1.0000
  C   C14       1.0  0.80796  0.62238  0.28700  1.0000
  C   C15       1.0  0.79576  0.59681  0.28733  1.0000
  H   H13       1.0  0.78208  0.58777  0.24184  1.0000
  C   C16       1.0  0.79968  0.63372  0.21834  1.0000
  H   H14       1.0  0.80844  0.65319  0.22388  1.0000
  H   H15       1.0  0.78040  0.62671  0.22592  1.0000
  H   H16       1.0  0.80310  0.62940  0.15025  1.0000
  C   C17       1.0  0.42669  0.20951  0.34978  1.0000
  C   C18       1.0  0.38753  0.17741  0.28702  1.0000
  C   C19       1.0  0.41310  0.19077  0.28736  1.0000
  H   H17       1.0  0.42214  0.18613  0.24191  1.0000
  C   C20       1.0  0.37619  0.15778  0.21841  1.0000
  H   H18       1.0  0.35672  0.14707  0.22395  1.0000
  H   H19       1.0  0.38319  0.14550  0.22604  1.0000
  H   H20       1.0  0.38051  0.16550  0.15031  1.0000
  C   C21       1.0  0.80038  0.20900  0.34978  1.0000
  C   C22       1.0  0.83249  0.20195  0.28708  1.0000
  C   C23       1.0  0.81912  0.21416  0.28742  1.0000
  H   H21       1.0  0.82377  0.22786  0.24200  1.0000
  C   C24       1.0  0.85213  0.21026  0.21852  1.0000
  H   H22       1.0  0.86285  0.20150  0.22405  1.0000
  H   H23       1.0  0.86441  0.22954  0.22623  1.0000
  H   H24       1.0  0.84443  0.20688  0.15039  1.0000
  C   C25       1.0  0.21252  0.21581  0.30255  1.0000
  C   C26       1.0  0.22544  0.20315  0.30143  1.0000
  C   C27       1.0  0.21815  0.18269  0.35868  1.0000
  H   H25       1.0  0.21848  0.23072  0.26248  1.0000
  C   C28       1.0  0.24681  0.21200  0.24087  1.0000
  H   H26       1.0  0.25074  0.22833  0.20411  1.0000
  H   H27       1.0  0.24380  0.19832  0.19056  1.0000
  H   H28       1.0  0.26267  0.21600  0.28094  1.0000
  C   C29       1.0  0.79409  0.98855  0.30253  1.0000
  C   C30       1.0  0.80675  0.01413  0.30141  1.0000
  C   C31       1.0  0.82721  0.02730  0.35868  1.0000
  H   H29       1.0  0.77918  0.97960  0.26246  1.0000
  C   C32       1.0  0.79790  0.02665  0.24085  1.0000
  H   H30       1.0  0.78157  0.01426  0.20410  1.0000
  H   H31       1.0  0.81158  0.03732  0.19055  1.0000
  H   H32       1.0  0.79390  0.03852  0.28092  1.0000
  C   C33       1.0  0.02135  0.79738  0.30257  1.0000
  C   C34       1.0  0.99577  0.78447  0.30145  1.0000
  C   C35       1.0  0.98260  0.79176  0.35869  1.0000
  H   H33       1.0  0.03030  0.79142  0.26251  1.0000
  C   C36       1.0  0.98325  0.76309  0.24091  1.0000
  H   H34       1.0  0.99565  0.75916  0.20417  1.0000
  H   H35       1.0  0.97258  0.76610  0.19059  1.0000
  H   H36       1.0  0.97139  0.74723  0.28099  1.0000
  C   C37       1.0  0.80611  0.78535  0.30257  1.0000
  C   C38       1.0  0.79320  0.79801  0.30145  1.0000
  C   C39       1.0  0.80049  0.81847  0.35869  1.0000
  H   H37       1.0  0.80015  0.77044  0.26251  1.0000
  C   C40       1.0  0.77182  0.78915  0.24091  1.0000
  H   H38       1.0  0.76789  0.77282  0.20417  1.0000
  H   H39       1.0  0.77483  0.80283  0.19059  1.0000
  H   H40       1.0  0.75596  0.78515  0.28099  1.0000
  C   C41       1.0  0.22456  0.01261  0.30257  1.0000
  C   C42       1.0  0.21190  0.98704  0.30145  1.0000
  C   C43       1.0  0.19143  0.97387  0.35870  1.0000
  H   H41       1.0  0.23947  0.02156  0.26252  1.0000
  C   C44       1.0  0.22075  0.97451  0.24092  1.0000
  H   H42       1.0  0.23708  0.98691  0.20417  1.0000
  H   H43       1.0  0.20708  0.96385  0.19060  1.0000
  H   H44       1.0  0.22475  0.96265  0.28100  1.0000
  C   C45       1.0  0.99729  0.20378  0.30256  1.0000
  C   C46       1.0  0.02286  0.21670  0.30143  1.0000
  C   C47       1.0  0.03604  0.20940  0.35869  1.0000
  H   H45       1.0  0.98834  0.20974  0.26249  1.0000
  C   C48       1.0  0.03539  0.23807  0.24088  1.0000
  H   H46       1.0  0.02299  0.24200  0.20413  1.0000
  H   H47       1.0  0.04606  0.23506  0.19057  1.0000
  H   H48       1.0  0.04725  0.25393  0.28095  1.0000
  C   C49       1.0  0.25216  0.63091  0.25974  1.0000
  C   C50       1.0  0.25258  0.60908  0.26683  1.0000
  C   C51       1.0  0.24476  0.59536  0.34882  1.0000
  H   H49       1.0  0.25680  0.63959  0.19879  1.0000
  C   C52       1.0  0.26260  0.60208  0.18860  1.0000
  H   H50       1.0  0.27053  0.61599  0.13646  1.0000
  H   H51       1.0  0.24845  0.58597  0.15613  1.0000
  H   H52       1.0  0.27673  0.59865  0.21202  1.0000
  C   C53       1.0  0.37899  0.61307  0.25973  1.0000
  C   C54       1.0  0.40083  0.63531  0.26682  1.0000
  C   C55       1.0  0.41454  0.64121  0.34885  1.0000
  H   H53       1.0  0.37032  0.60902  0.19877  1.0000
  C   C56       1.0  0.40784  0.65232  0.18857  1.0000
  H   H54       1.0  0.39394  0.64634  0.13641  1.0000
  H   H55       1.0  0.42396  0.65427  0.15613  1.0000
  H   H56       1.0  0.41128  0.66988  0.21195  1.0000
  C   C57       1.0  0.39680  0.75774  0.25979  1.0000
  C   C58       1.0  0.37456  0.75733  0.26689  1.0000
  C   C59       1.0  0.36866  0.76513  0.34892  1.0000
  H   H57       1.0  0.40085  0.75311  0.19884  1.0000
  C   C60       1.0  0.35754  0.74731  0.18867  1.0000
  H   H58       1.0  0.36351  0.73938  0.13652  1.0000
  H   H59       1.0  0.35558  0.76147  0.15620  1.0000
  H   H60       1.0  0.33998  0.73319  0.21209  1.0000
  C   C61       1.0  0.76649  0.37025  0.25971  1.0000
  C   C62       1.0  0.76607  0.39208  0.26681  1.0000
  C   C63       1.0  0.77389  0.40580  0.34881  1.0000
  H   H61       1.0  0.76184  0.36157  0.19877  1.0000
  C   C64       1.0  0.75603  0.39907  0.18863  1.0000
  H   H62       1.0  0.74809  0.38515  0.13651  1.0000
  H   H63       1.0  0.77018  0.41518  0.15610  1.0000
  H   H64       1.0  0.74191  0.40250  0.21209  1.0000
  C   C65       1.0  0.63964  0.38806  0.25977  1.0000
  C   C66       1.0  0.61781  0.36582  0.26684  1.0000
  C   C67       1.0  0.60408  0.35992  0.34881  1.0000
  H   H65       1.0  0.64833  0.39210  0.19885  1.0000
  C   C68       1.0  0.61083  0.34880  0.18865  1.0000
  H   H66       1.0  0.62475  0.35477  0.13655  1.0000
  H   H67       1.0  0.59472  0.34682  0.15610  1.0000
  H   H68       1.0  0.60739  0.33124  0.21212  1.0000
  C   C69       1.0  0.62181  0.24336  0.25979  1.0000
  C   C70       1.0  0.64405  0.24378  0.26689  1.0000
  C   C71       1.0  0.64996  0.23597  0.34890  1.0000
  H   H69       1.0  0.61776  0.24799  0.19885  1.0000
  C   C72       1.0  0.66107  0.25380  0.18867  1.0000
  H   H70       1.0  0.65509  0.26173  0.13652  1.0000
  H   H71       1.0  0.66304  0.23965  0.15619  1.0000
  H   H72       1.0  0.67863  0.26793  0.21208  1.0000
  N   N1        1.0  0.13999  0.26144  0.35613  1.0000
  C   C73       1.0  0.11411  0.24835  0.35776  1.0000
  C   C74       1.0  0.15303  0.28733  0.35418  1.0000
  C   C75       1.0  0.15290  0.24849  0.35653  1.0000
  C   C76       1.0  0.16367  0.24587  0.27701  1.0000
  C   C77       1.0  0.17629  0.23305  0.27764  1.0000
  C   C78       1.0  0.17911  0.22236  0.35782  1.0000
  C   C79       1.0  0.16828  0.22530  0.43733  1.0000
  C   C80       1.0  0.15542  0.23789  0.43671  1.0000
  C   C81       1.0  0.10095  0.25066  0.43024  1.0000
  C   C82       1.0  0.07549  0.23808  0.43042  1.0000
  C   C83       1.0  0.06208  0.22244  0.35849  1.0000
  C   C84       1.0  0.07529  0.21999  0.28641  1.0000
  C   C85       1.0  0.10072  0.23282  0.28574  1.0000
  C   C86       1.0  0.14994  0.30040  0.28324  1.0000
  C   C87       1.0  0.16244  0.32586  0.28271  1.0000
  C   C88       1.0  0.17896  0.33941  0.35226  1.0000
  C   C89       1.0  0.18226  0.32627  0.42255  1.0000
  C   C90       1.0  0.16936  0.30084  0.42403  1.0000
  H   H73       1.0  0.06672  0.24040  0.48399  1.0000
  H   H74       1.0  0.10996  0.26176  0.48343  1.0000
  H   H75       1.0  0.10955  0.23070  0.23195  1.0000
  H   H76       1.0  0.06640  0.20880  0.23320  1.0000
  H   H77       1.0  0.16206  0.25312  0.21744  1.0000
  H   H78       1.0  0.18308  0.23121  0.21735  1.0000
  H   H79       1.0  0.13825  0.29132  0.23159  1.0000
  H   H80       1.0  0.15946  0.33453  0.23043  1.0000
  H   H81       1.0  0.19414  0.33523  0.47389  1.0000
  H   H82       1.0  0.17213  0.29212  0.47659  1.0000
  H   H83       1.0  0.14808  0.23958  0.49586  1.0000
  H   H84       1.0  0.17002  0.21860  0.49802  1.0000
  N   N2        1.0  0.74845  0.87039  0.35612  1.0000
  C   C91       1.0  0.76154  0.85759  0.35775  1.0000
  C   C92       1.0  0.72256  0.85753  0.35417  1.0000
  C   C93       1.0  0.76141  0.89625  0.35652  1.0000
  C   C94       1.0  0.76403  0.90963  0.27700  1.0000
  C   C95       1.0  0.77685  0.93508  0.27762  1.0000
  C   C96       1.0  0.78753  0.94859  0.35781  1.0000
  C   C97       1.0  0.78459  0.93482  0.43732  1.0000
  C   C98       1.0  0.77201  0.90938  0.43669  1.0000
  C   C99       1.0  0.75924  0.84213  0.43024  1.0000
  C   C100      1.0  0.77182  0.82925  0.43042  1.0000
  C   C101      1.0  0.78746  0.83148  0.35849  1.0000
  C   C102      1.0  0.78990  0.84714  0.28640  1.0000
  C   C103      1.0  0.77707  0.85974  0.28573  1.0000
  C   C104      1.0  0.70949  0.84137  0.28324  1.0000
  C   C105      1.0  0.68404  0.82841  0.28273  1.0000
  C   C106      1.0  0.67048  0.83139  0.35225  1.0000
  C   C107      1.0  0.68362  0.84783  0.42251  1.0000
  C   C108      1.0  0.70905  0.86036  0.42400  1.0000
  H   H85       1.0  0.76950  0.81816  0.48400  1.0000
  H   H86       1.0  0.74813  0.84004  0.48343  1.0000
  H   H87       1.0  0.77919  0.87068  0.23194  1.0000
  H   H88       1.0  0.80109  0.84944  0.23318  1.0000
  H   H89       1.0  0.75677  0.90078  0.21743  1.0000
  H   H90       1.0  0.77868  0.94371  0.21734  1.0000
  H   H91       1.0  0.71857  0.83874  0.23163  1.0000
  H   H92       1.0  0.67536  0.81675  0.23048  1.0000
  H   H93       1.0  0.67466  0.85077  0.47382  1.0000
  H   H94       1.0  0.71777  0.87186  0.47653  1.0000
  H   H95       1.0  0.77031  0.90033  0.49586  1.0000
  H   H96       1.0  0.79129  0.94325  0.49801  1.0000
  N   N3        1.0  0.13951  0.86991  0.35614  1.0000
  C   C109      1.0  0.15231  0.89580  0.35776  1.0000
  C   C110      1.0  0.15237  0.85688  0.35418  1.0000
  C   C111      1.0  0.11365  0.85701  0.35654  1.0000
  C   C112      1.0  0.10027  0.84624  0.27701  1.0000
  C   C113      1.0  0.07482  0.83362  0.27764  1.0000
  C   C114      1.0  0.06131  0.83080  0.35782  1.0000
  C   C115      1.0  0.07508  0.84164  0.43733  1.0000
  C   C116      1.0  0.10052  0.85449  0.43670  1.0000
  C   C117      1.0  0.16777  0.90896  0.43025  1.0000
  C   C118      1.0  0.18065  0.93441  0.43043  1.0000
  C   C119      1.0  0.17842  0.94783  0.35850  1.0000
  C   C120      1.0  0.16276  0.93461  0.28641  1.0000
  C   C121      1.0  0.15016  0.90918  0.28574  1.0000
  C   C122      1.0  0.16852  0.85996  0.28324  1.0000
  C   C123      1.0  0.18148  0.84747  0.28273  1.0000
  C   C124      1.0  0.17850  0.83094  0.35225  1.0000
  C   C125      1.0  0.16207  0.82764  0.42253  1.0000
  C   C126      1.0  0.14954  0.84053  0.42402  1.0000
  H   H97       1.0  0.19174  0.94319  0.48401  1.0000
  H   H98       1.0  0.16986  0.89994  0.48344  1.0000
  H   H99       1.0  0.13922  0.90036  0.23195  1.0000
  H   H100      1.0  0.16047  0.94350  0.23320  1.0000
  H   H101      1.0  0.10912  0.84784  0.21746  1.0000
  H   H102      1.0  0.06619  0.82681  0.21736  1.0000
  H   H103      1.0  0.17115  0.87167  0.23163  1.0000
  H   H104      1.0  0.19314  0.85045  0.23046  1.0000
  H   H105      1.0  0.15913  0.81574  0.47385  1.0000
  H   H106      1.0  0.13804  0.83776  0.47656  1.0000
  H   H107      1.0  0.10957  0.86183  0.49586  1.0000
  H   H108      1.0  0.06665  0.83990  0.49802  1.0000
  N   N4        1.0  0.87865  0.73972  0.35613  1.0000
  C   C127      1.0  0.90453  0.75281  0.35776  1.0000
  C   C128      1.0  0.86561  0.71383  0.35420  1.0000
  C   C129      1.0  0.86574  0.75268  0.35654  1.0000
  C   C130      1.0  0.85498  0.75529  0.27701  1.0000
  C   C131      1.0  0.84236  0.76812  0.27763  1.0000
  C   C132      1.0  0.83953  0.77880  0.35781  1.0000
  C   C133      1.0  0.85037  0.77588  0.43732  1.0000
  C   C134      1.0  0.86323  0.76329  0.43670  1.0000
  C   C135      1.0  0.91769  0.75051  0.43025  1.0000
  C   C136      1.0  0.94315  0.76309  0.43043  1.0000
  C   C137      1.0  0.95656  0.77873  0.35850  1.0000
  C   C138      1.0  0.94334  0.78117  0.28641  1.0000
  C   C139      1.0  0.91792  0.76834  0.28574  1.0000
  C   C140      1.0  0.86870  0.70076  0.28328  1.0000
  C   C141      1.0  0.85621  0.67530  0.28276  1.0000
  C   C142      1.0  0.83967  0.66175  0.35228  1.0000
  C   C143      1.0  0.83637  0.67489  0.42254  1.0000
  C   C144      1.0  0.84927  0.70032  0.42403  1.0000
  H   H109      1.0  0.95192  0.76077  0.48401  1.0000
  H   H110      1.0  0.90868  0.73940  0.48344  1.0000
  H   H111      1.0  0.90909  0.77046  0.23195  1.0000
  H   H112      1.0  0.95224  0.79236  0.23319  1.0000
  H   H113      1.0  0.85657  0.74803  0.21746  1.0000
  H   H114      1.0  0.83554  0.76994  0.21736  1.0000
  H   H115      1.0  0.88040  0.70983  0.23165  1.0000
  H   H116      1.0  0.85919  0.66663  0.23050  1.0000
  H   H117      1.0  0.82448  0.66593  0.47386  1.0000
  H   H118      1.0  0.84649  0.70904  0.47655  1.0000
  H   H119      1.0  0.87057  0.76158  0.49586  1.0000
  H   H120      1.0  0.84863  0.78256  0.49802  1.0000
  N   N5        1.0  0.27019  0.13077  0.35614  1.0000
  C   C145      1.0  0.25710  0.14357  0.35776  1.0000
  C   C146      1.0  0.29609  0.14363  0.35420  1.0000
  C   C147      1.0  0.25723  0.10491  0.35654  1.0000
  C   C148      1.0  0.25462  0.09153  0.27702  1.0000
  C   C149      1.0  0.24179  0.06609  0.27764  1.0000
  C   C150      1.0  0.23111  0.05258  0.35782  1.0000
  C   C151      1.0  0.23404  0.06635  0.43733  1.0000
  C   C152      1.0  0.24662  0.09179  0.43671  1.0000
  C   C153      1.0  0.25940  0.15903  0.43024  1.0000
  C   C154      1.0  0.24683  0.17191  0.43042  1.0000
  C   C155      1.0  0.23118  0.16968  0.35849  1.0000
  C   C156      1.0  0.22874  0.15402  0.28641  1.0000
  C   C157      1.0  0.24157  0.14142  0.28574  1.0000
  C   C158      1.0  0.30916  0.15979  0.28326  1.0000
  C   C159      1.0  0.33461  0.17274  0.28274  1.0000
  C   C160      1.0  0.34816  0.16976  0.35227  1.0000
  C   C161      1.0  0.33502  0.15333  0.42255  1.0000
  C   C162      1.0  0.30960  0.14081  0.42405  1.0000
  H   H121      1.0  0.24915  0.18301  0.48399  1.0000
  H   H122      1.0  0.27051  0.16113  0.48343  1.0000
  H   H123      1.0  0.23945  0.13048  0.23195  1.0000
  H   H124      1.0  0.21755  0.15172  0.23320  1.0000
  H   H125      1.0  0.26188  0.10039  0.21746  1.0000
  H   H126      1.0  0.23997  0.05745  0.21737  1.0000
  H   H127      1.0  0.30008  0.16241  0.23163  1.0000
  H   H128      1.0  0.34329  0.18440  0.23047  1.0000
  H   H129      1.0  0.34398  0.15040  0.47389  1.0000
  H   H130      1.0  0.30087  0.12930  0.47657  1.0000
  H   H131      1.0  0.24833  0.10083  0.49587  1.0000
  H   H132      1.0  0.22734  0.05792  0.49803  1.0000
  N   N6        1.0  0.87913  0.13126  0.35613  1.0000
  C   C163      1.0  0.86633  0.10537  0.35775  1.0000
  C   C164      1.0  0.86627  0.14429  0.35419  1.0000
  C   C165      1.0  0.90499  0.14416  0.35654  1.0000
  C   C166      1.0  0.91837  0.15493  0.27702  1.0000
  C   C167      1.0  0.94382  0.16754  0.27764  1.0000
  C   C168      1.0  0.95732  0.17037  0.35782  1.0000
  C   C169      1.0  0.94356  0.15954  0.43734  1.0000
  C   C170      1.0  0.91811  0.14668  0.43671  1.0000
  C   C171      1.0  0.85087  0.09221  0.43024  1.0000
  C   C172      1.0  0.83799  0.06675  0.43041  1.0000
  C   C173      1.0  0.84022  0.05334  0.35849  1.0000
  C   C174      1.0  0.85588  0.06656  0.28641  1.0000
  C   C175      1.0  0.86848  0.09198  0.28574  1.0000
  C   C176      1.0  0.85012  0.14121  0.28323  1.0000
  C   C177      1.0  0.83716  0.15370  0.28271  1.0000
  C   C178      1.0  0.84013  0.17022  0.35227  1.0000
  C   C179      1.0  0.85655  0.17351  0.42258  1.0000
  C   C180      1.0  0.86908  0.16062  0.42407  1.0000
  H   H133      1.0  0.82689  0.05798  0.48398  1.0000
  H   H134      1.0  0.84877  0.10122  0.48342  1.0000
  H   H135      1.0  0.87943  0.10081  0.23195  1.0000
  H   H136      1.0  0.85818  0.05766  0.23320  1.0000
  H   H137      1.0  0.90951  0.15333  0.21746  1.0000
  H   H138      1.0  0.95245  0.17435  0.21736  1.0000
  H   H139      1.0  0.84751  0.12952  0.23158  1.0000
  H   H140      1.0  0.82551  0.15073  0.23043  1.0000
  H   H141      1.0  0.85948  0.18539  0.47393  1.0000
  H   H142      1.0  0.88058  0.16338  0.47661  1.0000
  H   H143      1.0  0.90907  0.13934  0.49587  1.0000
  H   H144      1.0  0.95199  0.16127  0.49803  1.0000
  N   N7        1.0  0.26981  0.52225  0.34936  1.0000
  C   C181      1.0  0.29505  0.53617  0.32959  1.0000
  C   C182      1.0  0.25694  0.49644  0.34935  1.0000
  C   C183      1.0  0.25827  0.53614  0.36577  1.0000
  C   C184      1.0  0.26801  0.55500  0.43034  1.0000
  C   C185      1.0  0.26310  0.57404  0.42572  1.0000
  C   C186      1.0  0.24702  0.57423  0.36036  1.0000
  C   C187      1.0  0.23521  0.55392  0.30275  1.0000
  C   C188      1.0  0.24118  0.53553  0.30380  1.0000
  C   C189      1.0  0.31213  0.53694  0.39168  1.0000
  C   C190      1.0  0.33636  0.55563  0.38861  1.0000
  C   C191      1.0  0.34464  0.57519  0.32648  1.0000
  C   C192      1.0  0.32734  0.57318  0.26138  1.0000
  C   C193      1.0  0.30346  0.55389  0.26095  1.0000
  C   C194      1.0  0.24909  0.48324  0.43103  1.0000
  C   C195      1.0  0.23645  0.45779  0.43105  1.0000
  C   C196      1.0  0.23079  0.44415  0.34956  1.0000
  C   C197      1.0  0.23875  0.45774  0.26795  1.0000
  C   C198      1.0  0.25154  0.48318  0.26777  1.0000
  H   H145      1.0  0.34762  0.55517  0.43636  1.0000
  H   H146      1.0  0.30664  0.52477  0.44362  1.0000
  H   H147      1.0  0.29143  0.55463  0.21746  1.0000
  H   H148      1.0  0.33118  0.58671  0.21646  1.0000
  H   H149      1.0  0.28114  0.55655  0.47376  1.0000
  H   H150      1.0  0.27245  0.58852  0.46759  1.0000
  H   H151      1.0  0.25284  0.49221  0.49153  1.0000
  H   H152      1.0  0.23177  0.44924  0.49247  1.0000
  H   H153      1.0  0.23488  0.44915  0.20662  1.0000
  H   H154      1.0  0.25675  0.49212  0.20719  1.0000
  H   H155      1.0  0.23436  0.52264  0.25437  1.0000
  H   H156      1.0  0.22335  0.55319  0.25482  1.0000
  N   N8        1.0  0.48764  0.73936  0.34923  1.0000
  C   C199      1.0  0.47372  0.75070  0.32969  1.0000
  C   C200      1.0  0.51345  0.75231  0.34925  1.0000
  C   C201      1.0  0.47376  0.71393  0.36571  1.0000
  C   C202      1.0  0.45493  0.70483  0.43039  1.0000
  C   C203      1.0  0.43586  0.68088  0.42565  1.0000
  C   C204      1.0  0.43567  0.66459  0.36039  1.0000
  C   C205      1.0  0.45599  0.67308  0.30282  1.0000
  C   C206      1.0  0.47434  0.69746  0.30367  1.0000
  C   C207      1.0  0.47293  0.76701  0.39175  1.0000
  C   C208      1.0  0.45424  0.77254  0.38872  1.0000
  C   C209      1.0  0.43469  0.76128  0.32654  1.0000
  C   C210      1.0  0.43671  0.74602  0.26133  1.0000
  C   C211      1.0  0.45595  0.74134  0.26125  1.0000
  C   C212      1.0  0.52665  0.75768  0.43094  1.0000
  C   C213      1.0  0.55210  0.77049  0.43099  1.0000
  C   C214      1.0  0.56574  0.77846  0.34950  1.0000
  C   C215      1.0  0.55216  0.77282  0.26788  1.0000
  C   C216      1.0  0.52671  0.76016  0.26767  1.0000
  H   H157      1.0  0.45471  0.78426  0.43645  1.0000
  H   H158      1.0  0.48512  0.77370  0.44365  1.0000
  H   H159      1.0  0.45526  0.72865  0.21746  1.0000
  H   H160      1.0  0.42319  0.73631  0.21645  1.0000
  H   H161      1.0  0.45331  0.71639  0.47364  1.0000
  H   H162      1.0  0.42138  0.67577  0.46746  1.0000
  H   H163      1.0  0.51767  0.75247  0.49144  1.0000
  H   H164      1.0  0.56064  0.77436  0.49241  1.0000
  H   H165      1.0  0.56075  0.77753  0.20656  1.0000
  H   H166      1.0  0.51778  0.75642  0.20709  1.0000
  H   H167      1.0  0.48726  0.70352  0.25435  1.0000
  H   H168      1.0  0.45672  0.66196  0.25485  1.0000
  N   N9        1.0  0.27052  0.74012  0.34917  1.0000
  C   C217      1.0  0.25919  0.71486  0.32965  1.0000
  C   C218      1.0  0.25758  0.75297  0.34923  1.0000
  C   C219      1.0  0.29594  0.75165  0.36578  1.0000
  C   C220      1.0  0.30506  0.74194  0.43049  1.0000
  C   C221      1.0  0.32901  0.74683  0.42578  1.0000
  C   C222      1.0  0.34528  0.76290  0.36044  1.0000
  C   C223      1.0  0.33679  0.77473  0.30284  1.0000
  C   C224      1.0  0.31242  0.76870  0.30372  1.0000
  C   C225      1.0  0.24289  0.69776  0.39171  1.0000
  C   C226      1.0  0.23734  0.67353  0.38863  1.0000
  C   C227      1.0  0.24863  0.66526  0.32652  1.0000
  C   C228      1.0  0.26391  0.68256  0.26139  1.0000
  C   C229      1.0  0.26855  0.70645  0.26120  1.0000
  C   C230      1.0  0.25221  0.76081  0.43092  1.0000
  C   C231      1.0  0.23941  0.77345  0.43098  1.0000
  C   C232      1.0  0.23142  0.77911  0.34950  1.0000
  C   C233      1.0  0.23706  0.77117  0.26786  1.0000
  C   C234      1.0  0.24972  0.75838  0.26765  1.0000
  H   H169      1.0  0.22564  0.66228  0.43643  1.0000
  H   H170      1.0  0.23619  0.70325  0.44362  1.0000
  H   H171      1.0  0.28123  0.71846  0.21738  1.0000
  H   H172      1.0  0.27358  0.67872  0.21636  1.0000
  H   H173      1.0  0.29349  0.72876  0.47372  1.0000
  H   H174      1.0  0.33412  0.73744  0.46755  1.0000
  H   H175      1.0  0.25743  0.75705  0.49140  1.0000
  H   H176      1.0  0.23553  0.77811  0.49240  1.0000
  H   H177      1.0  0.23234  0.77504  0.20655  1.0000
  H   H178      1.0  0.25346  0.75319  0.20707  1.0000
  H   H179      1.0  0.30636  0.77556  0.25439  1.0000
  H   H180      1.0  0.34793  0.78657  0.25490  1.0000
  N   N10       1.0  0.74884  0.47891  0.34929  1.0000
  C   C235      1.0  0.72358  0.46500  0.32974  1.0000
  C   C236      1.0  0.76171  0.50472  0.34931  1.0000
  C   C237      1.0  0.76038  0.46502  0.36570  1.0000
  C   C238      1.0  0.75064  0.44616  0.43022  1.0000
  C   C239      1.0  0.75558  0.42713  0.42574  1.0000
  C   C240      1.0  0.77164  0.42693  0.36034  1.0000
  C   C241      1.0  0.78345  0.44724  0.30270  1.0000
  C   C242      1.0  0.77745  0.46561  0.30367  1.0000
  C   C243      1.0  0.70649  0.46419  0.39184  1.0000
  C   C244      1.0  0.68226  0.44549  0.38880  1.0000
  C   C245      1.0  0.67397  0.42596  0.32658  1.0000
  C   C246      1.0  0.69127  0.42799  0.26140  1.0000
  C   C247      1.0  0.71517  0.44724  0.26124  1.0000
  C   C248      1.0  0.76954  0.51792  0.43100  1.0000
  C   C249      1.0  0.78218  0.54336  0.43105  1.0000
  C   C250      1.0  0.78785  0.55700  0.34955  1.0000
  C   C251      1.0  0.77991  0.54343  0.26793  1.0000
  C   C252      1.0  0.76712  0.51798  0.26774  1.0000
  H   H181      1.0  0.67101  0.44596  0.43654  1.0000
  H   H182      1.0  0.71198  0.47637  0.44378  1.0000
  H   H183      1.0  0.72717  0.44658  0.21738  1.0000
  H   H184      1.0  0.68744  0.41450  0.21630  1.0000
  H   H185      1.0  0.73754  0.44460  0.47380  1.0000
  H   H186      1.0  0.74623  0.41265  0.46760  1.0000
  H   H187      1.0  0.76577  0.50894  0.49149  1.0000
  H   H188      1.0  0.78684  0.55191  0.49246  1.0000
  H   H189      1.0  0.78379  0.55202  0.20661  1.0000
  H   H190      1.0  0.76193  0.50904  0.20715  1.0000
  H   H191      1.0  0.78428  0.47851  0.25426  1.0000
  H   H192      1.0  0.79529  0.44795  0.25472  1.0000
  N   N11       1.0  0.53100  0.26177  0.34928  1.0000
  C   C253      1.0  0.54492  0.25042  0.32980  1.0000
  C   C254      1.0  0.50520  0.24882  0.34931  1.0000
  C   C255      1.0  0.54490  0.28720  0.36565  1.0000
  C   C256      1.0  0.56373  0.29631  0.43028  1.0000
  C   C257      1.0  0.58276  0.32027  0.42569  1.0000
  C   C258      1.0  0.58295  0.33653  0.36033  1.0000
  C   C259      1.0  0.56264  0.32803  0.30266  1.0000
  C   C260      1.0  0.54428  0.30365  0.30358  1.0000
  C   C261      1.0  0.54570  0.23412  0.39192  1.0000
  C   C262      1.0  0.56439  0.22859  0.38884  1.0000
  C   C263      1.0  0.58393  0.23983  0.32661  1.0000
  C   C264      1.0  0.58190  0.25509  0.26139  1.0000
  C   C265      1.0  0.56265  0.25975  0.26121  1.0000
  C   C266      1.0  0.49199  0.24347  0.43099  1.0000
  C   C267      1.0  0.46655  0.23067  0.43103  1.0000
  C   C268      1.0  0.45291  0.22268  0.34955  1.0000
  C   C269      1.0  0.46648  0.22830  0.26793  1.0000
  C   C270      1.0  0.49193  0.24095  0.26774  1.0000
  H   H193      1.0  0.56392  0.21686  0.43659  1.0000
  H   H194      1.0  0.53352  0.22745  0.44385  1.0000
  H   H195      1.0  0.56331  0.27241  0.21734  1.0000
  H   H196      1.0  0.59538  0.26473  0.21626  1.0000
  H   H197      1.0  0.56527  0.28477  0.47390  1.0000
  H   H198      1.0  0.59722  0.32542  0.46772  1.0000
  H   H199      1.0  0.50097  0.24869  0.49148  1.0000
  H   H200      1.0  0.45800  0.22680  0.49245  1.0000
  H   H201      1.0  0.45790  0.22358  0.20661  1.0000
  H   H202      1.0  0.50087  0.24468  0.20716  1.0000
  H   H203      1.0  0.53139  0.29758  0.25415  1.0000
  H   H204      1.0  0.56193  0.33914  0.25464  1.0000
  N   N12       1.0  0.74812  0.26106  0.34930  1.0000
  C   C271      1.0  0.75945  0.28631  0.32957  1.0000
  C   C272      1.0  0.76106  0.24819  0.34932  1.0000
  C   C273      1.0  0.72269  0.24954  0.36576  1.0000
  C   C274      1.0  0.71359  0.25929  0.43033  1.0000
  C   C275      1.0  0.68962  0.25434  0.42573  1.0000
  C   C276      1.0  0.67335  0.23824  0.36044  1.0000
  C   C277      1.0  0.68186  0.22642  0.30288  1.0000
  C   C278      1.0  0.70623  0.23245  0.30375  1.0000
  C   C279      1.0  0.77575  0.30338  0.39169  1.0000
  C   C280      1.0  0.78130  0.32762  0.38863  1.0000
  C   C281      1.0  0.77004  0.33591  0.32646  1.0000
  C   C282      1.0  0.75478  0.31862  0.26123  1.0000
  C   C283      1.0  0.75015  0.29473  0.26095  1.0000
  C   C284      1.0  0.76641  0.24033  0.43100  1.0000
  C   C285      1.0  0.77920  0.22768  0.43104  1.0000
  C   C286      1.0  0.78720  0.22204  0.34955  1.0000
  C   C287      1.0  0.78159  0.23001  0.26794  1.0000
  C   C288      1.0  0.76894  0.24280  0.26774  1.0000
  H   H205      1.0  0.79298  0.33885  0.43652  1.0000
  H   H206      1.0  0.78239  0.29787  0.44373  1.0000
  H   H207      1.0  0.73745  0.28269  0.21726  1.0000
  H   H208      1.0  0.74512  0.32246  0.21617  1.0000
  H   H209      1.0  0.72513  0.27239  0.47389  1.0000
  H   H210      1.0  0.68448  0.26367  0.46768  1.0000
  H   H211      1.0  0.76117  0.24407  0.49148  1.0000
  H   H212      1.0  0.78306  0.22300  0.49245  1.0000
  H   H213      1.0  0.78632  0.22615  0.20662  1.0000
  H   H214      1.0  0.76521  0.24801  0.20717  1.0000
  H   H215      1.0  0.71231  0.22562  0.25436  1.0000
  H   H216      1.0  0.67074  0.21459  0.25484  1.0000
  C   C289      1.0  0.19913  0.40435  0.41262  1.0000
  C   C290      1.0  0.18629  0.37878  0.41461  1.0000
  C   C291      1.0  0.19199  0.36547  0.35141  1.0000
  H   H217      1.0  0.19437  0.41342  0.45739  1.0000
  C   C292      1.0  0.16656  0.36645  0.48234  1.0000
  H   H218      1.0  0.16345  0.37894  0.52233  1.0000
  H   H219      1.0  0.17093  0.35615  0.52965  1.0000
  H   H220      1.0  0.14978  0.35428  0.44767  1.0000
  C   C293      1.0  0.60554  0.78662  0.41265  1.0000
  C   C294      1.0  0.63111  0.79935  0.41465  1.0000
  C   C295      1.0  0.64442  0.81836  0.35139  1.0000
  H   H221      1.0  0.59647  0.77280  0.45746  1.0000
  C   C296      1.0  0.64344  0.79198  0.48245  1.0000
  H   H222      1.0  0.63094  0.77638  0.52248  1.0000
  H   H223      1.0  0.65374  0.80666  0.52973  1.0000
  H   H224      1.0  0.65562  0.78737  0.44785  1.0000
  C   C297      1.0  0.22327  0.81076  0.41263  1.0000
  C   C298      1.0  0.21054  0.82360  0.41463  1.0000
  C   C299      1.0  0.19154  0.81791  0.35139  1.0000
  H   H225      1.0  0.23709  0.81552  0.45743  1.0000
  C   C300      1.0  0.21793  0.84332  0.48240  1.0000
  H   H226      1.0  0.23353  0.84642  0.52242  1.0000
  H   H227      1.0  0.20325  0.83894  0.52970  1.0000
  H   H228      1.0  0.22254  0.86010  0.44778  1.0000
  C   C301      1.0  0.81949  0.59681  0.41269  1.0000
  C   C302      1.0  0.83233  0.62238  0.41470  1.0000
  C   C303      1.0  0.82664  0.63569  0.35143  1.0000
  H   H229      1.0  0.82424  0.58774  0.45751  1.0000
  C   C304      1.0  0.85204  0.63471  0.48249  1.0000
  H   H230      1.0  0.85515  0.62221  0.52252  1.0000
  H   H231      1.0  0.84766  0.64501  0.52977  1.0000
  H   H232      1.0  0.86883  0.64688  0.44788  1.0000
  C   C305      1.0  0.41311  0.21453  0.41265  1.0000
  C   C306      1.0  0.38753  0.20181  0.41465  1.0000
  C   C307      1.0  0.37422  0.18280  0.35142  1.0000
  H   H233      1.0  0.42217  0.22836  0.45743  1.0000
  C   C308      1.0  0.37520  0.20919  0.48240  1.0000
  H   H234      1.0  0.38770  0.22480  0.52241  1.0000
  H   H235      1.0  0.36490  0.19452  0.52970  1.0000
  H   H236      1.0  0.36303  0.21381  0.44776  1.0000
  C   C309      1.0  0.79534  0.19037  0.41260  1.0000
  C   C310      1.0  0.80807  0.17753  0.41459  1.0000
  C   C311      1.0  0.82709  0.18325  0.35142  1.0000
  H   H237      1.0  0.78150  0.18561  0.45735  1.0000
  C   C312      1.0  0.80066  0.15780  0.48229  1.0000
  H   H238      1.0  0.78505  0.15468  0.52226  1.0000
  H   H239      1.0  0.81533  0.16217  0.52962  1.0000
  H   H240      1.0  0.79606  0.14103  0.44760  1.0000
  C   C313      1.0  0.19220  0.20921  0.35840  1.0000
  C   C314      1.0  0.19776  0.17570  0.41609  1.0000
  C   C315      1.0  0.18544  0.18894  0.41474  1.0000
  H   H241      1.0  0.17053  0.18312  0.45481  1.0000
  C   C316      1.0  0.18788  0.15455  0.47818  1.0000
  H   H242      1.0  0.19719  0.14433  0.47420  1.0000
  H   H243      1.0  0.16904  0.14224  0.46182  1.0000
  H   H244      1.0  0.18905  0.16060  0.54821  1.0000
  C   C317      1.0  0.80068  0.97483  0.35839  1.0000
  C   C318      1.0  0.83420  0.01390  0.41608  1.0000
  C   C319      1.0  0.82095  0.98833  0.41473  1.0000
  H   H245      1.0  0.82678  0.97925  0.45481  1.0000
  C   C320      1.0  0.85535  0.02517  0.47818  1.0000
  H   H246      1.0  0.86557  0.04470  0.47420  1.0000
  H   H247      1.0  0.86765  0.01863  0.46182  1.0000
  H   H248      1.0  0.84930  0.02028  0.54821  1.0000
  C   C321      1.0  0.03507  0.81771  0.35841  1.0000
  C   C322      1.0  0.99600  0.81215  0.41608  1.0000
  C   C323      1.0  0.02157  0.82447  0.41473  1.0000
  H   H249      1.0  0.03065  0.83939  0.45479  1.0000
  C   C324      1.0  0.98473  0.82203  0.47815  1.0000
  H   H250      1.0  0.96520  0.81273  0.47418  1.0000
  H   H251      1.0  0.99127  0.84088  0.46178  1.0000
  H   H252      1.0  0.98962  0.82088  0.54819  1.0000
  C   C325      1.0  0.82644  0.79195  0.35840  1.0000
  C   C326      1.0  0.82088  0.82546  0.41607  1.0000
  C   C327      1.0  0.83321  0.81222  0.41472  1.0000
  H   H253      1.0  0.84812  0.81805  0.45479  1.0000
  C   C328      1.0  0.83076  0.84662  0.47815  1.0000
  H   H254      1.0  0.82145  0.85684  0.47416  1.0000
  H   H255      1.0  0.84961  0.85893  0.46176  1.0000
  H   H256      1.0  0.82961  0.84058  0.54818  1.0000
  C   C329      1.0  0.21796  0.02634  0.35841  1.0000
  C   C330      1.0  0.18444  0.98726  0.41608  1.0000
  C   C331      1.0  0.19768  0.01283  0.41473  1.0000
  H   H257      1.0  0.19186  0.02192  0.45479  1.0000
  C   C332      1.0  0.16328  0.97599  0.47815  1.0000
  H   H258      1.0  0.15306  0.95646  0.47417  1.0000
  H   H259      1.0  0.15098  0.98254  0.46177  1.0000
  H   H260      1.0  0.16933  0.98088  0.54819  1.0000
  C   C333      1.0  0.98357  0.18346  0.35841  1.0000
  C   C334      1.0  0.02264  0.18902  0.41609  1.0000
  C   C335      1.0  0.99707  0.17669  0.41474  1.0000
  H   H261      1.0  0.98798  0.16178  0.45481  1.0000
  C   C336      1.0  0.03391  0.17914  0.47817  1.0000
  H   H262      1.0  0.05344  0.18844  0.47419  1.0000
  H   H263      1.0  0.02736  0.16029  0.46181  1.0000
  H   H264      1.0  0.02902  0.18030  0.54821  1.0000
  C   C337      1.0  0.24614  0.64136  0.33258  1.0000
  C   C338      1.0  0.23731  0.60471  0.42204  1.0000
  C   C339      1.0  0.23885  0.62745  0.41327  1.0000
  H   H265      1.0  0.23479  0.63410  0.46924  1.0000
  C   C340      1.0  0.22759  0.59184  0.50977  1.0000
  H   H266      1.0  0.22425  0.57347  0.50965  1.0000
  H   H267      1.0  0.21045  0.59081  0.52475  1.0000
  H   H268      1.0  0.24019  0.60165  0.56448  1.0000
  C   C341      1.0  0.36853  0.59661  0.33259  1.0000
  C   C342      1.0  0.40517  0.62442  0.42209  1.0000
  C   C343      1.0  0.38243  0.60323  0.41331  1.0000
  H   H269      1.0  0.37577  0.59252  0.46928  1.0000
  C   C344      1.0  0.41802  0.62757  0.50986  1.0000
  H   H270      1.0  0.43640  0.64260  0.50976  1.0000
  H   H271      1.0  0.41905  0.61146  0.52489  1.0000
  H   H272      1.0  0.40821  0.63037  0.56452  1.0000
  C   C345      1.0  0.41327  0.76376  0.33263  1.0000
  C   C346      1.0  0.38546  0.77259  0.42212  1.0000
  C   C347      1.0  0.40666  0.77105  0.41334  1.0000
  H   H273      1.0  0.41738  0.77511  0.46930  1.0000
  C   C348      1.0  0.38232  0.78231  0.50986  1.0000
  H   H274      1.0  0.36729  0.78565  0.50976  1.0000
  H   H275      1.0  0.39843  0.79945  0.52484  1.0000
  H   H276      1.0  0.37953  0.76971  0.56457  1.0000
  C   C349      1.0  0.77252  0.35981  0.33252  1.0000
  C   C350      1.0  0.78136  0.39646  0.42200  1.0000
  C   C351      1.0  0.77982  0.37372  0.41322  1.0000
  H   H277      1.0  0.78389  0.36707  0.46917  1.0000
  C   C352      1.0  0.79109  0.40933  0.50971  1.0000
  H   H278      1.0  0.79443  0.42770  0.50960  1.0000
  H   H279      1.0  0.80823  0.41036  0.52466  1.0000
  H   H280      1.0  0.77850  0.39952  0.56445  1.0000
  C   C353      1.0  0.65007  0.40454  0.33260  1.0000
  C   C354      1.0  0.61340  0.37673  0.42201  1.0000
  C   C355      1.0  0.63614  0.39793  0.41326  1.0000
  H   H281      1.0  0.64279  0.40865  0.46922  1.0000
  C   C356      1.0  0.60052  0.37359  0.50969  1.0000
  H   H282      1.0  0.58215  0.35855  0.50955  1.0000
  H   H283      1.0  0.59948  0.38970  0.52460  1.0000
  H   H284      1.0  0.61033  0.37082  0.56445  1.0000
  C   C357      1.0  0.60533  0.23733  0.33263  1.0000
  C   C358      1.0  0.63316  0.22852  0.42212  1.0000
  C   C359      1.0  0.61196  0.23005  0.41334  1.0000
  H   H285      1.0  0.60125  0.22599  0.46932  1.0000
  C   C360      1.0  0.63632  0.21881  0.50987  1.0000
  H   H286      1.0  0.65136  0.21548  0.50976  1.0000
  H   H287      1.0  0.62021  0.20167  0.52486  1.0000
  H   H288      1.0  0.63910  0.23142  0.56456  1.0000
