data_image0
_chemical_formula_structural       C3NC3NC5NC5NC20H18N4C3NC3NC5NC5NC20H18N4C3NC3NC5NC5NC20H18N4C3NC3NC5NC5NC20H18N4C3NC3NC5NC5NC20H18N4C3NC3NC5NC5NC20H18N4C2HC6H3CHC2HC6H3CHC2HC6H3CHC2HC6H3CHC2HC6H3CHC2HC6H3CHC2HC6H3CHC2HC6H3CHC2HC6H3CHC2HC6H3CHC2HC6H3CHC2HC6H3CHC8H8C8H8C8H8C8H8C8H8C8H8C2NC2NHCH3CHC2NC2NHCH3CHC2NC2NHCH3CHC2NC2NHCH3CHC2NC2NHCH3CHC2NC2NHCH3CHC2NC2NHCH3CHC2NC2NHCH3CHC2NC2NHCH3CHC2NC2NHCH3CHC2NC2NHCH3CHC2NC2NHCH3CH
_chemical_formula_sum              "C444 N72 H276"
_cell_length_a       79.5117
_cell_length_b       79.5116
_cell_length_c       14.9872
_cell_angle_alpha    90.004
_cell_angle_beta     89.9208
_cell_angle_gamma    120

_space_group_name_H-M_alt    "P 1"
_space_group_IT_number       1

loop_
  _space_group_symop_operation_xyz
  'x, y, z'

loop_
  _atom_site_type_symbol
  _atom_site_label
  _atom_site_symmetry_multiplicity
  _atom_site_fract_x
  _atom_site_fract_y
  _atom_site_fract_z
  _atom_site_occupancy
  C   C1        1.0  0.20748  0.38024  0.32258  1.0000
  C   C2        1.0  0.22469  0.37994  0.32253  1.0000
  C   C3        1.0  0.24003  0.39911  0.32463  1.0000
  N   N1        1.0  0.23155  0.41026  0.32664  1.0000
  C   C4        1.0  0.21188  0.39959  0.32532  1.0000
  C   C5        1.0  0.19793  0.40584  0.32605  1.0000
  C   C6        1.0  0.20249  0.42554  0.32559  1.0000
  N   N2        1.0  0.22026  0.44162  0.32270  1.0000
  C   C7        1.0  0.21919  0.45806  0.32247  1.0000
  C   C8        1.0  0.19945  0.45217  0.32539  1.0000
  C   C9        1.0  0.18916  0.43214  0.32781  1.0000
  C   C10       1.0  0.23475  0.47752  0.31992  1.0000
  C   C11       1.0  0.25478  0.48316  0.31903  1.0000
  N   N3        1.0  0.26323  0.47199  0.31976  1.0000
  C   C12       1.0  0.28289  0.48267  0.32004  1.0000
  C   C13       1.0  0.28732  0.50204  0.31890  1.0000
  C   C14       1.0  0.27012  0.50234  0.31813  1.0000
  C   C15       1.0  0.29683  0.47644  0.32145  1.0000
  C   C16       1.0  0.29233  0.45678  0.32269  1.0000
  N   N4        1.0  0.27456  0.44068  0.32380  1.0000
  C   C17       1.0  0.27566  0.42427  0.32441  1.0000
  C   C18       1.0  0.29545  0.43026  0.32315  1.0000
  C   C19       1.0  0.30572  0.45030  0.32249  1.0000
  C   C20       1.0  0.26007  0.40477  0.32473  1.0000
  C   C21       1.0  0.26509  0.38990  0.32231  1.0000
  C   C22       1.0  0.27866  0.36290  0.31429  1.0000
  C   C23       1.0  0.27240  0.36819  0.23618  1.0000
  C   C24       1.0  0.26580  0.38162  0.24004  1.0000
  C   C25       1.0  0.31680  0.49103  0.32319  1.0000
  C   C26       1.0  0.35581  0.52214  0.32767  1.0000
  C   C27       1.0  0.34617  0.51499  0.24556  1.0000
  C   C28       1.0  0.32689  0.49950  0.24311  1.0000
  C   C29       1.0  0.22994  0.49252  0.31814  1.0000
  C   C30       1.0  0.22826  0.50021  0.23589  1.0000
  C   C31       1.0  0.22448  0.51570  0.23397  1.0000
  C   C32       1.0  0.22223  0.52378  0.31421  1.0000
  C   C33       1.0  0.17787  0.39136  0.32584  1.0000
  C   C34       1.0  0.16682  0.38726  0.24683  1.0000
  C   C35       1.0  0.13737  0.36421  0.32719  1.0000
  C   C36       1.0  0.14674  0.37398  0.24788  1.0000
  H   H1        1.0  0.13897  0.37159  0.19024  1.0000
  H   H2        1.0  0.17322  0.39431  0.18860  1.0000
  H   H3        1.0  0.19401  0.36811  0.32058  1.0000
  H   H4        1.0  0.22560  0.36757  0.32074  1.0000
  H   H5        1.0  0.23869  0.42418  0.32978  1.0000
  H   H6        1.0  0.25608  0.45805  0.32044  1.0000
  H   H7        1.0  0.17437  0.42394  0.33082  1.0000
  H   H8        1.0  0.19333  0.46082  0.32645  1.0000
  H   H9        1.0  0.23014  0.49484  0.17697  1.0000
  H   H10       1.0  0.22387  0.52132  0.17352  1.0000
  H   H11       1.0  0.26924  0.51473  0.31783  1.0000
  H   H12       1.0  0.30078  0.51419  0.31907  1.0000
  H   H13       1.0  0.30164  0.42167  0.32228  1.0000
  H   H14       1.0  0.32053  0.45857  0.32090  1.0000
  H   H15       1.0  0.32012  0.49480  0.18277  1.0000
  H   H16       1.0  0.35307  0.52119  0.18677  1.0000
  H   H17       1.0  0.26193  0.38564  0.18215  1.0000
  H   H18       1.0  0.27292  0.36265  0.17542  1.0000
  N   N5        1.0  0.37352  0.53761  0.32541  1.0000
  N   N6        1.0  0.21956  0.53900  0.31738  1.0000
  N   N7        1.0  0.11824  0.35273  0.32450  1.0000
  N   N8        1.0  0.28618  0.35121  0.31538  1.0000
  C   C37       1.0  0.67414  0.82742  0.32425  1.0000
  C   C38       1.0  0.67444  0.84493  0.32428  1.0000
  C   C39       1.0  0.65527  0.84110  0.32623  1.0000
  N   N9        1.0  0.64412  0.82147  0.32812  1.0000
  C   C40       1.0  0.65479  0.81247  0.32684  1.0000
  C   C41       1.0  0.64855  0.79228  0.32741  1.0000
  C   C42       1.0  0.62884  0.77713  0.32685  1.0000
  N   N10       1.0  0.61277  0.77882  0.32402  1.0000
  C   C43       1.0  0.59633  0.76131  0.32366  1.0000
  C   C44       1.0  0.60222  0.74746  0.32641  1.0000
  C   C45       1.0  0.62225  0.75721  0.32890  1.0000
  C   C46       1.0  0.57687  0.75741  0.32117  1.0000
  C   C47       1.0  0.57123  0.77180  0.32037  1.0000
  N   N11       1.0  0.58239  0.79142  0.32101  1.0000
  C   C48       1.0  0.57171  0.80039  0.32142  1.0000
  C   C49       1.0  0.55234  0.78545  0.32056  1.0000
  C   C50       1.0  0.55204  0.76795  0.31971  1.0000
  C   C51       1.0  0.57794  0.82056  0.32271  1.0000
  C   C52       1.0  0.59760  0.83572  0.32391  1.0000
  N   N12       1.0  0.61369  0.83405  0.32515  1.0000
  C   C53       1.0  0.63010  0.85156  0.32571  1.0000
  C   C54       1.0  0.62411  0.86536  0.32430  1.0000
  C   C55       1.0  0.60408  0.85560  0.32360  1.0000
  C   C56       1.0  0.64960  0.85548  0.32625  1.0000
  C   C57       1.0  0.66448  0.87537  0.32377  1.0000
  C   C58       1.0  0.69148  0.91594  0.31563  1.0000
  C   C59       1.0  0.68624  0.90436  0.23758  1.0000
  C   C60       1.0  0.67282  0.88434  0.24150  1.0000
  C   C61       1.0  0.56334  0.82594  0.32442  1.0000
  C   C62       1.0  0.53222  0.83382  0.32885  1.0000
  C   C63       1.0  0.53940  0.83131  0.24676  1.0000
  C   C64       1.0  0.55489  0.82753  0.24434  1.0000
  C   C65       1.0  0.56187  0.73760  0.31937  1.0000
  C   C66       1.0  0.55419  0.72824  0.23711  1.0000
  C   C67       1.0  0.53870  0.70897  0.23519  1.0000
  C   C68       1.0  0.53063  0.69862  0.31540  1.0000
  C   C69       1.0  0.66303  0.78670  0.32717  1.0000
  C   C70       1.0  0.66719  0.77979  0.24811  1.0000
  C   C71       1.0  0.69021  0.77339  0.32839  1.0000
  C   C72       1.0  0.68048  0.77299  0.24911  1.0000
  H   H19       1.0  0.68291  0.76763  0.19143  1.0000
  H   H20       1.0  0.66017  0.77914  0.18988  1.0000
  H   H21       1.0  0.68627  0.82608  0.32229  1.0000
  H   H22       1.0  0.68681  0.85821  0.32253  1.0000
  H   H23       1.0  0.63019  0.81469  0.33110  1.0000
  H   H24       1.0  0.59633  0.79820  0.32133  1.0000
  H   H25       1.0  0.63045  0.75061  0.33184  1.0000
  H   H26       1.0  0.59357  0.73269  0.32741  1.0000
  H   H27       1.0  0.55956  0.73552  0.17821  1.0000
  H   H28       1.0  0.53309  0.70276  0.17474  1.0000
  H   H29       1.0  0.53965  0.75468  0.31965  1.0000
  H   H30       1.0  0.54019  0.78676  0.32089  1.0000
  H   H31       1.0  0.63270  0.88014  0.32350  1.0000
  H   H32       1.0  0.59580  0.86213  0.32197  1.0000
  H   H33       1.0  0.55962  0.82543  0.18400  1.0000
  H   H34       1.0  0.53322  0.83198  0.18796  1.0000
  H   H35       1.0  0.66884  0.87644  0.18365  1.0000
  H   H36       1.0  0.69185  0.91041  0.17683  1.0000
  N   N13       1.0  0.51675  0.83607  0.32655  1.0000
  N   N14       1.0  0.51540  0.68074  0.31858  1.0000
  N   N15       1.0  0.70168  0.76572  0.32567  1.0000
  N   N16       1.0  0.70318  0.93514  0.31664  1.0000
  C   C73       1.0  0.22699  0.84693  0.32123  1.0000
  C   C74       1.0  0.20948  0.82972  0.32120  1.0000
  C   C75       1.0  0.21330  0.81437  0.32331  1.0000
  N   N17       1.0  0.23293  0.82285  0.32537  1.0000
  C   C76       1.0  0.24194  0.84252  0.32408  1.0000
  C   C77       1.0  0.26213  0.85646  0.32489  1.0000
  C   C78       1.0  0.27728  0.85190  0.32454  1.0000
  N   N18       1.0  0.27558  0.83413  0.32169  1.0000
  C   C79       1.0  0.29308  0.83519  0.32160  1.0000
  C   C80       1.0  0.30693  0.85493  0.32456  1.0000
  C   C81       1.0  0.29719  0.86522  0.32685  1.0000
  C   C82       1.0  0.29697  0.81962  0.31918  1.0000
  C   C83       1.0  0.28258  0.79960  0.31817  1.0000
  N   N19       1.0  0.26296  0.79115  0.31863  1.0000
  C   C84       1.0  0.25399  0.77149  0.31895  1.0000
  C   C85       1.0  0.26892  0.76706  0.31816  1.0000
  C   C86       1.0  0.28642  0.78425  0.31749  1.0000
  C   C87       1.0  0.23381  0.75756  0.32012  1.0000
  C   C88       1.0  0.21866  0.76206  0.32119  1.0000
  N   N20       1.0  0.22034  0.77983  0.32235  1.0000
  C   C89       1.0  0.20283  0.77874  0.32288  1.0000
  C   C90       1.0  0.18902  0.75896  0.32156  1.0000
  C   C91       1.0  0.19878  0.74867  0.32086  1.0000
  C   C92       1.0  0.19891  0.79433  0.32336  1.0000
  C   C93       1.0  0.17903  0.78932  0.32094  1.0000
  C   C94       1.0  0.13847  0.77577  0.31303  1.0000
  C   C95       1.0  0.15005  0.78204  0.23487  1.0000
  C   C96       1.0  0.17007  0.78864  0.23868  1.0000
  C   C97       1.0  0.22842  0.73758  0.32186  1.0000
  C   C98       1.0  0.22051  0.69856  0.32639  1.0000
  C   C99       1.0  0.22308  0.70825  0.24427  1.0000
  C   C100      1.0  0.22687  0.72753  0.24180  1.0000
  C   C101      1.0  0.31679  0.82443  0.31774  1.0000
  C   C102      1.0  0.32627  0.82616  0.23566  1.0000
  C   C103      1.0  0.34555  0.82997  0.23411  1.0000
  C   C104      1.0  0.35578  0.83219  0.31453  1.0000
  C   C105      1.0  0.26771  0.87652  0.32468  1.0000
  C   C106      1.0  0.27473  0.88762  0.24569  1.0000
  C   C107      1.0  0.28105  0.91702  0.32601  1.0000
  C   C108      1.0  0.28151  0.90770  0.24674  1.0000
  H   H37       1.0  0.28693  0.91550  0.18911  1.0000
  H   H38       1.0  0.27541  0.88125  0.18747  1.0000
  H   H39       1.0  0.22834  0.86040  0.31919  1.0000
  H   H40       1.0  0.19620  0.82881  0.31924  1.0000
  H   H41       1.0  0.23970  0.81570  0.32865  1.0000
  H   H42       1.0  0.25618  0.79830  0.31898  1.0000
  H   H43       1.0  0.30380  0.88001  0.32987  1.0000
  H   H44       1.0  0.32170  0.86104  0.32573  1.0000
  H   H45       1.0  0.31909  0.82433  0.17662  1.0000
  H   H46       1.0  0.35186  0.83062  0.17378  1.0000
  H   H47       1.0  0.29969  0.78513  0.31753  1.0000
  H   H48       1.0  0.26760  0.75360  0.31846  1.0000
  H   H49       1.0  0.17425  0.75277  0.32083  1.0000
  H   H50       1.0  0.19225  0.73387  0.31945  1.0000
  H   H51       1.0  0.22902  0.73435  0.18146  1.0000
  H   H52       1.0  0.22246  0.70140  0.18550  1.0000
  H   H53       1.0  0.17798  0.79252  0.18077  1.0000
  H   H54       1.0  0.14401  0.78155  0.17414  1.0000
  N   N21       1.0  0.21828  0.68086  0.32414  1.0000
  N   N22       1.0  0.37366  0.83485  0.31803  1.0000
  N   N23       1.0  0.28872  0.93616  0.32336  1.0000
  N   N24       1.0  0.11926  0.76824  0.31417  1.0000
  C   C109      1.0  0.86495  0.65615  0.32379  1.0000
  C   C110      1.0  0.84774  0.65645  0.32396  1.0000
  C   C111      1.0  0.83240  0.63728  0.32639  1.0000
  N   N25       1.0  0.84087  0.62613  0.32841  1.0000
  C   C112      1.0  0.86054  0.63679  0.32681  1.0000
  C   C113      1.0  0.87448  0.63054  0.32745  1.0000
  C   C114      1.0  0.86992  0.61083  0.32714  1.0000
  N   N26       1.0  0.85215  0.59476  0.32436  1.0000
  C   C115      1.0  0.85322  0.57832  0.32418  1.0000
  C   C116      1.0  0.87295  0.58421  0.32702  1.0000
  C   C117      1.0  0.88324  0.60424  0.32932  1.0000
  C   C118      1.0  0.83764  0.55886  0.32174  1.0000
  C   C119      1.0  0.81762  0.55323  0.32089  1.0000
  N   N27       1.0  0.80917  0.56440  0.32156  1.0000
  C   C120      1.0  0.78952  0.55372  0.32196  1.0000
  C   C121      1.0  0.78508  0.53435  0.32097  1.0000
  C   C122      1.0  0.80227  0.53405  0.32006  1.0000
  C   C123      1.0  0.77558  0.55996  0.32338  1.0000
  C   C124      1.0  0.78009  0.57962  0.32463  1.0000
  N   N28       1.0  0.79786  0.59571  0.32569  1.0000
  C   C125      1.0  0.79677  0.61213  0.32641  1.0000
  C   C126      1.0  0.77698  0.60615  0.32531  1.0000
  C   C127      1.0  0.76670  0.58611  0.32456  1.0000
  C   C128      1.0  0.81235  0.63163  0.32671  1.0000
  C   C129      1.0  0.80735  0.64651  0.32430  1.0000
  C   C130      1.0  0.79379  0.67351  0.31638  1.0000
  C   C131      1.0  0.80006  0.66822  0.23823  1.0000
  C   C132      1.0  0.80667  0.65480  0.24204  1.0000
  C   C133      1.0  0.75560  0.54537  0.32515  1.0000
  C   C134      1.0  0.71660  0.51425  0.32967  1.0000
  C   C135      1.0  0.72628  0.52142  0.24755  1.0000
  C   C136      1.0  0.74557  0.53691  0.24509  1.0000
  C   C137      1.0  0.84245  0.54386  0.31998  1.0000
  C   C138      1.0  0.84418  0.53618  0.23775  1.0000
  C   C139      1.0  0.84796  0.52069  0.23587  1.0000
  C   C140      1.0  0.85018  0.51261  0.31612  1.0000
  C   C141      1.0  0.89454  0.64502  0.32690  1.0000
  C   C142      1.0  0.90560  0.64908  0.24775  1.0000
  C   C143      1.0  0.93504  0.67219  0.32752  1.0000
  C   C144      1.0  0.92567  0.66237  0.24843  1.0000
  H   H55       1.0  0.93345  0.66474  0.19069  1.0000
  H   H56       1.0  0.89919  0.64200  0.18966  1.0000
  H   H57       1.0  0.87842  0.66827  0.32144  1.0000
  H   H58       1.0  0.84683  0.66882  0.32191  1.0000
  H   H59       1.0  0.83372  0.61221  0.33206  1.0000
  H   H60       1.0  0.81633  0.57834  0.32208  1.0000
  H   H61       1.0  0.89804  0.61243  0.33224  1.0000
  H   H62       1.0  0.87906  0.57555  0.32807  1.0000
  H   H63       1.0  0.84233  0.54157  0.17882  1.0000
  H   H64       1.0  0.84862  0.51509  0.17542  1.0000
  H   H65       1.0  0.80315  0.52166  0.32002  1.0000
  H   H66       1.0  0.77162  0.52221  0.32128  1.0000
  H   H67       1.0  0.77079  0.61474  0.32468  1.0000
  H   H68       1.0  0.75189  0.57784  0.32324  1.0000
  H   H69       1.0  0.75238  0.54163  0.18473  1.0000
  H   H70       1.0  0.71943  0.51523  0.18877  1.0000
  H   H71       1.0  0.81053  0.65077  0.18412  1.0000
  H   H72       1.0  0.79957  0.67378  0.17748  1.0000
  N   N29       1.0  0.69889  0.49879  0.32742  1.0000
  N   N30       1.0  0.85284  0.49739  0.31932  1.0000
  N   N31       1.0  0.95418  0.68367  0.32450  1.0000
  N   N32       1.0  0.78626  0.68520  0.31748  1.0000
  C   C145      1.0  0.39826  0.20898  0.32522  1.0000
  C   C146      1.0  0.39796  0.19147  0.32522  1.0000
  C   C147      1.0  0.41713  0.19530  0.32738  1.0000
  N   N33       1.0  0.42828  0.21493  0.32943  1.0000
  C   C148      1.0  0.41761  0.22393  0.32801  1.0000
  C   C149      1.0  0.42386  0.24412  0.32865  1.0000
  C   C150      1.0  0.44357  0.25927  0.32835  1.0000
  N   N34       1.0  0.45964  0.25758  0.32573  1.0000
  C   C151      1.0  0.47608  0.27509  0.32556  1.0000
  C   C152      1.0  0.47018  0.28894  0.32825  1.0000
  C   C153      1.0  0.45015  0.27919  0.33045  1.0000
  C   C154      1.0  0.49554  0.27899  0.32326  1.0000
  C   C155      1.0  0.50118  0.26460  0.32254  1.0000
  N   N35       1.0  0.49001  0.24498  0.32322  1.0000
  C   C156      1.0  0.50070  0.23600  0.32361  1.0000
  C   C157      1.0  0.52007  0.25095  0.32268  1.0000
  C   C158      1.0  0.52037  0.26844  0.32186  1.0000
  C   C159      1.0  0.49446  0.21583  0.32489  1.0000
  C   C160      1.0  0.47480  0.20067  0.32591  1.0000
  N   N36       1.0  0.45871  0.20234  0.32697  1.0000
  C   C161      1.0  0.44229  0.18483  0.32731  1.0000
  C   C162      1.0  0.44828  0.17103  0.32593  1.0000
  C   C163      1.0  0.46832  0.18079  0.32548  1.0000
  C   C164      1.0  0.42279  0.18091  0.32746  1.0000
  C   C165      1.0  0.40792  0.16103  0.32466  1.0000
  C   C166      1.0  0.38091  0.12046  0.31576  1.0000
  C   C167      1.0  0.38622  0.13214  0.23795  1.0000
  C   C168      1.0  0.39966  0.15216  0.24224  1.0000
  C   C169      1.0  0.50906  0.21045  0.32659  1.0000
  C   C170      1.0  0.54018  0.20257  0.33096  1.0000
  C   C171      1.0  0.53304  0.20509  0.24887  1.0000
  C   C172      1.0  0.51755  0.20888  0.24648  1.0000
  C   C173      1.0  0.51054  0.29880  0.32146  1.0000
  C   C174      1.0  0.51826  0.30819  0.23920  1.0000
  C   C175      1.0  0.53376  0.32746  0.23726  1.0000
  C   C176      1.0  0.54180  0.33777  0.31748  1.0000
  C   C177      1.0  0.40938  0.24970  0.32811  1.0000
  C   C178      1.0  0.40533  0.25666  0.24892  1.0000
  C   C179      1.0  0.38223  0.26305  0.32875  1.0000
  C   C180      1.0  0.39205  0.26345  0.24961  1.0000
  H   H73       1.0  0.38969  0.26883  0.19184  1.0000
  H   H74       1.0  0.41241  0.25730  0.19080  1.0000
  H   H75       1.0  0.38614  0.21032  0.32315  1.0000
  H   H76       1.0  0.38560  0.17819  0.32339  1.0000
  H   H77       1.0  0.44220  0.22171  0.33253  1.0000
  H   H78       1.0  0.47608  0.23819  0.32370  1.0000
  H   H79       1.0  0.44195  0.28579  0.33327  1.0000
  H   H80       1.0  0.47884  0.30370  0.32928  1.0000
  H   H81       1.0  0.51291  0.30094  0.18029  1.0000
  H   H82       1.0  0.53939  0.33370  0.17680  1.0000
  H   H83       1.0  0.53276  0.28171  0.32164  1.0000
  H   H84       1.0  0.53221  0.24963  0.32294  1.0000
  H   H85       1.0  0.43970  0.15626  0.32482  1.0000
  H   H86       1.0  0.47660  0.17427  0.32383  1.0000
  H   H87       1.0  0.51285  0.21098  0.18616  1.0000
  H   H88       1.0  0.53925  0.20442  0.19006  1.0000
  H   H89       1.0  0.40369  0.16013  0.18454  1.0000
  H   H90       1.0  0.38070  0.12617  0.17707  1.0000
  N   N37       1.0  0.55564  0.20032  0.32861  1.0000
  N   N38       1.0  0.55702  0.35566  0.32063  1.0000
  N   N39       1.0  0.37074  0.27070  0.32573  1.0000
  N   N40       1.0  0.36923  0.10125  0.31643  1.0000
  C   C181      1.0  0.84542  0.18947  0.32355  1.0000
  C   C182      1.0  0.86293  0.20668  0.32354  1.0000
  C   C183      1.0  0.85910  0.22202  0.32553  1.0000
  N   N41       1.0  0.83947  0.21354  0.32750  1.0000
  C   C184      1.0  0.83047  0.19387  0.32623  1.0000
  C   C185      1.0  0.81028  0.17993  0.32690  1.0000
  C   C186      1.0  0.79513  0.18448  0.32650  1.0000
  N   N42       1.0  0.79682  0.20225  0.32369  1.0000
  C   C187      1.0  0.77931  0.20118  0.32354  1.0000
  C   C188      1.0  0.76546  0.18144  0.32639  1.0000
  C   C189      1.0  0.77521  0.17116  0.32872  1.0000
  C   C190      1.0  0.77542  0.21675  0.32115  1.0000
  C   C191      1.0  0.78981  0.23678  0.32017  1.0000
  N   N43       1.0  0.80943  0.24523  0.32059  1.0000
  C   C192      1.0  0.81840  0.26488  0.32093  1.0000
  C   C193      1.0  0.80346  0.26931  0.32021  1.0000
  C   C194      1.0  0.78597  0.25212  0.31955  1.0000
  C   C195      1.0  0.83858  0.27882  0.32208  1.0000
  C   C196      1.0  0.85373  0.27432  0.32321  1.0000
  N   N44       1.0  0.85206  0.25655  0.32446  1.0000
  C   C197      1.0  0.86957  0.25765  0.32498  1.0000
  C   C198      1.0  0.88337  0.27744  0.32353  1.0000
  C   C199      1.0  0.87361  0.28771  0.32284  1.0000
  C   C200      1.0  0.87348  0.24207  0.32555  1.0000
  C   C201      1.0  0.89337  0.24708  0.32310  1.0000
  C   C202      1.0  0.93394  0.26065  0.31507  1.0000
  C   C203      1.0  0.92239  0.25435  0.23698  1.0000
  C   C204      1.0  0.90237  0.24775  0.24085  1.0000
  C   C205      1.0  0.84396  0.29880  0.32380  1.0000
  C   C206      1.0  0.85182  0.33780  0.32831  1.0000
  C   C207      1.0  0.84931  0.32814  0.24620  1.0000
  C   C208      1.0  0.84553  0.30886  0.24375  1.0000
  C   C209      1.0  0.75560  0.21194  0.31969  1.0000
  C   C210      1.0  0.74619  0.21024  0.23760  1.0000
  C   C211      1.0  0.72691  0.20645  0.23603  1.0000
  C   C212      1.0  0.71662  0.20419  0.31644  1.0000
  C   C213      1.0  0.80470  0.15987  0.32664  1.0000
  C   C214      1.0  0.79777  0.14882  0.24759  1.0000
  C   C215      1.0  0.79137  0.11937  0.32784  1.0000
  C   C216      1.0  0.79097  0.12874  0.24858  1.0000
  H   H91       1.0  0.78561  0.12096  0.19092  1.0000
  H   H92       1.0  0.79713  0.15521  0.18939  1.0000
  H   H93       1.0  0.84408  0.17600  0.32158  1.0000
  H   H94       1.0  0.87621  0.20759  0.32174  1.0000
  H   H95       1.0  0.83269  0.22069  0.33054  1.0000
  H   H96       1.0  0.81621  0.23808  0.32086  1.0000
  H   H97       1.0  0.76861  0.15636  0.33170  1.0000
  H   H98       1.0  0.75070  0.17533  0.32755  1.0000
  H   H99       1.0  0.75342  0.21213  0.17857  1.0000
  H   H100      1.0  0.72065  0.20583  0.17570  1.0000
  H   H101      1.0  0.77269  0.25123  0.31964  1.0000
  H   H102      1.0  0.80478  0.28278  0.32055  1.0000
  H   H103      1.0  0.89815  0.28363  0.32270  1.0000
  H   H104      1.0  0.88014  0.30252  0.32119  1.0000
  H   H105      1.0  0.84343  0.30206  0.18340  1.0000
  H   H106      1.0  0.84997  0.33501  0.18743  1.0000
  H   H107      1.0  0.89448  0.24386  0.18297  1.0000
  H   H108      1.0  0.92846  0.25482  0.17624  1.0000
  N   N45       1.0  0.85408  0.35551  0.32609  1.0000
  N   N46       1.0  0.69874  0.20153  0.31993  1.0000
  N   N47       1.0  0.78369  0.10023  0.32511  1.0000
  N   N48       1.0  0.95315  0.26816  0.31612  1.0000
  C   C217      1.0  0.20467  0.62317  0.25793  1.0000
  C   C218      1.0  0.20471  0.64057  0.27707  1.0000
  H   H109      1.0  0.20063  0.64683  0.22824  1.0000
  C   C219      1.0  0.21047  0.59724  0.30959  1.0000
  C   C220      1.0  0.21169  0.56283  0.27773  1.0000
  C   C221      1.0  0.20593  0.57120  0.20939  1.0000
  C   C222      1.0  0.20526  0.58840  0.22413  1.0000
  C   C223      1.0  0.19972  0.59701  0.15647  1.0000
  C   C224      1.0  0.19941  0.61425  0.17326  1.0000
  H   H110      1.0  0.19595  0.59084  0.09446  1.0000
  H   H111      1.0  0.19543  0.62028  0.12310  1.0000
  H   H112      1.0  0.20233  0.56481  0.14767  1.0000
  C   C225      1.0  0.21264  0.54610  0.26071  1.0000
  H   H113      1.0  0.20793  0.53949  0.20220  1.0000
  C   C226      1.0  0.43123  0.58168  0.25917  1.0000
  C   C227      1.0  0.41383  0.56433  0.27834  1.0000
  H   H114      1.0  0.40759  0.55398  0.22951  1.0000
  C   C228      1.0  0.45714  0.61342  0.31079  1.0000
  C   C229      1.0  0.49157  0.64905  0.27889  1.0000
  C   C230      1.0  0.48323  0.63492  0.21056  1.0000
  C   C231      1.0  0.46602  0.61705  0.22532  1.0000
  C   C232      1.0  0.45745  0.60289  0.15768  1.0000
  C   C233      1.0  0.44020  0.58534  0.17450  1.0000
  H   H115      1.0  0.46364  0.60527  0.09567  1.0000
  H   H116      1.0  0.43419  0.57532  0.12435  1.0000
  H   H117      1.0  0.48964  0.63770  0.14884  1.0000
  C   C234      1.0  0.50830  0.66673  0.26185  1.0000
  H   H118      1.0  0.51493  0.66864  0.20331  1.0000
  C   C235      1.0  0.47278  0.84977  0.25993  1.0000
  C   C236      1.0  0.49010  0.84969  0.27928  1.0000
  H   H119      1.0  0.50050  0.85380  0.23056  1.0000
  C   C237      1.0  0.44100  0.84396  0.31121  1.0000
  C   C238      1.0  0.40542  0.84279  0.27890  1.0000
  C   C239      1.0  0.41962  0.84859  0.21074  1.0000
  C   C240      1.0  0.43747  0.84923  0.22570  1.0000
  C   C241      1.0  0.45169  0.85481  0.15821  1.0000
  C   C242      1.0  0.46921  0.85510  0.17521  1.0000
  H   H120      1.0  0.44937  0.85864  0.09616  1.0000
  H   H121      1.0  0.47928  0.85911  0.12517  1.0000
  H   H122      1.0  0.41691  0.85224  0.14897  1.0000
  C   C243      1.0  0.38777  0.84186  0.26166  1.0000
  H   H123      1.0  0.38595  0.84667  0.20322  1.0000
  C   C244      1.0  0.86776  0.41322  0.25986  1.0000
  C   C245      1.0  0.86771  0.39582  0.27901  1.0000
  H   H124      1.0  0.87181  0.38957  0.23016  1.0000
  C   C246      1.0  0.86193  0.43915  0.31154  1.0000
  C   C247      1.0  0.86075  0.47358  0.27969  1.0000
  C   C248      1.0  0.86655  0.46522  0.21135  1.0000
  C   C249      1.0  0.86720  0.44802  0.22608  1.0000
  C   C250      1.0  0.87278  0.43943  0.15842  1.0000
  C   C251      1.0  0.87308  0.42217  0.17520  1.0000
  H   H125      1.0  0.87660  0.44561  0.09640  1.0000
  H   H126      1.0  0.87709  0.41616  0.12503  1.0000
  H   H127      1.0  0.87019  0.47163  0.14963  1.0000
  C   C252      1.0  0.85982  0.49031  0.26268  1.0000
  H   H128      1.0  0.86457  0.49695  0.20420  1.0000
  C   C253      1.0  0.64121  0.45475  0.26120  1.0000
  C   C254      1.0  0.65860  0.47209  0.28035  1.0000
  H   H129      1.0  0.66488  0.48245  0.23151  1.0000
  C   C255      1.0  0.61526  0.42299  0.31285  1.0000
  C   C256      1.0  0.58087  0.38737  0.28095  1.0000
  C   C257      1.0  0.58925  0.40152  0.21262  1.0000
  C   C258      1.0  0.60644  0.41939  0.22737  1.0000
  C   C259      1.0  0.61506  0.43356  0.15972  1.0000
  C   C260      1.0  0.63230  0.45111  0.17652  1.0000
  H   H130      1.0  0.60892  0.43120  0.09770  1.0000
  H   H131      1.0  0.63834  0.46114  0.12636  1.0000
  H   H132      1.0  0.58288  0.39876  0.15089  1.0000
  C   C261      1.0  0.56415  0.36969  0.26391  1.0000
  H   H133      1.0  0.55756  0.36780  0.20537  1.0000
  C   C262      1.0  0.59965  0.18664  0.26191  1.0000
  C   C263      1.0  0.58232  0.18670  0.28129  1.0000
  H   H134      1.0  0.57195  0.18261  0.23259  1.0000
  C   C264      1.0  0.63141  0.19244  0.31314  1.0000
  C   C265      1.0  0.66701  0.19362  0.28078  1.0000
  C   C266      1.0  0.65285  0.18785  0.21264  1.0000
  C   C267      1.0  0.63499  0.18719  0.22762  1.0000
  C   C268      1.0  0.62081  0.18162  0.16016  1.0000
  C   C269      1.0  0.60327  0.18133  0.17719  1.0000
  H   H135      1.0  0.62317  0.17782  0.09811  1.0000
  H   H136      1.0  0.59324  0.17733  0.12717  1.0000
  H   H137      1.0  0.65560  0.18421  0.15088  1.0000
  C   C270      1.0  0.68468  0.19456  0.26352  1.0000
  H   H138      1.0  0.68654  0.18979  0.20504  1.0000
  C   C271      1.0  0.05975  0.31671  0.24475  1.0000
  C   C272      1.0  0.07978  0.32587  0.26371  1.0000
  H   H139      1.0  0.08947  0.33116  0.21173  1.0000
  C   C273      1.0  0.02624  0.30027  0.30052  1.0000
  C   C274      1.0  0.98585  0.28288  0.26998  1.0000
  C   C275      1.0  0.99914  0.28997  0.19779  1.0000
  C   C276      1.0  0.01935  0.29870  0.21181  1.0000
  C   C277      1.0  0.03271  0.30601  0.14038  1.0000
  C   C278      1.0  0.05277  0.31492  0.15671  1.0000
  H   H140      1.0  0.02798  0.30502  0.07609  1.0000
  H   H141      1.0  0.06220  0.32024  0.10396  1.0000
  H   H142      1.0  0.99411  0.28897  0.13396  1.0000
  C   C279      1.0  0.96606  0.27498  0.25394  1.0000
  H   H143      1.0  0.96181  0.27528  0.19188  1.0000
  C   C280      1.0  0.73772  0.74322  0.24599  1.0000
  C   C281      1.0  0.72856  0.75410  0.26491  1.0000
  H   H144      1.0  0.72330  0.75850  0.21293  1.0000
  C   C282      1.0  0.75411  0.72614  0.30182  1.0000
  C   C283      1.0  0.77149  0.70311  0.27137  1.0000
  C   C284      1.0  0.76445  0.70932  0.19915  1.0000
  C   C285      1.0  0.75573  0.72081  0.21313  1.0000
  C   C286      1.0  0.74845  0.72686  0.14167  1.0000
  C   C287      1.0  0.73955  0.73802  0.15796  1.0000
  H   H145      1.0  0.74947  0.72311  0.07739  1.0000
  H   H146      1.0  0.73426  0.74213  0.10520  1.0000
  H   H147      1.0  0.76548  0.70527  0.13533  1.0000
  C   C288      1.0  0.77937  0.69119  0.25537  1.0000
  H   H148      1.0  0.77900  0.68655  0.19340  1.0000
  C   C289      1.0  0.31125  0.99473  0.24401  1.0000
  C   C290      1.0  0.30039  0.97468  0.26279  1.0000
  H   H149      1.0  0.29606  0.96504  0.21075  1.0000
  C   C291      1.0  0.32818  0.02819  0.30005  1.0000
  C   C292      1.0  0.35107  0.06863  0.26984  1.0000
  C   C293      1.0  0.34499  0.05539  0.19756  1.0000
  C   C294      1.0  0.33357  0.03517  0.21141  1.0000
  C   C295      1.0  0.32763  0.02186  0.13989  1.0000
  C   C296      1.0  0.31652  0.00179  0.15605  1.0000
  H   H150      1.0  0.33143  0.02666  0.07565  1.0000
  H   H151      1.0  0.31248  0.99241  0.10322  1.0000
  H   H152      1.0  0.34907  0.06049  0.13377  1.0000
  C   C297      1.0  0.36288  0.08845  0.25392  1.0000
  H   H153      1.0  0.36716  0.09279  0.19164  1.0000
  C   C298      1.0  0.01267  0.71969  0.24390  1.0000
  C   C299      1.0  0.99264  0.71053  0.26309  1.0000
  H   H154      1.0  0.98296  0.70522  0.21123  1.0000
  C   C300      1.0  0.04617  0.73616  0.29929  1.0000
  C   C301      1.0  0.08658  0.75358  0.26831  1.0000
  C   C302      1.0  0.07329  0.74646  0.19627  1.0000
  C   C303      1.0  0.05308  0.73772  0.21051  1.0000
  C   C304      1.0  0.03972  0.73038  0.13925  1.0000
  C   C305      1.0  0.01967  0.72147  0.15579  1.0000
  H   H155      1.0  0.04447  0.73136  0.07491  1.0000
  H   H156      1.0  0.01024  0.71613  0.10316  1.0000
  H   H157      1.0  0.07834  0.74746  0.13240  1.0000
  C   C306      1.0  0.10637  0.76151  0.25206  1.0000
  H   H158      1.0  0.11064  0.76131  0.18989  1.0000
  C   C307      1.0  0.33476  0.29317  0.24514  1.0000
  C   C308      1.0  0.34392  0.28231  0.26434  1.0000
  H   H159      1.0  0.34926  0.27794  0.21250  1.0000
  C   C309      1.0  0.31824  0.31018  0.30051  1.0000
  C   C310      1.0  0.30081  0.33314  0.26950  1.0000
  C   C311      1.0  0.30798  0.32698  0.19748  1.0000
  C   C312      1.0  0.31673  0.31553  0.21173  1.0000
  C   C313      1.0  0.32411  0.30952  0.14047  1.0000
  C   C314      1.0  0.33303  0.29839  0.15703  1.0000
  H   H160      1.0  0.32317  0.31328  0.07614  1.0000
  H   H161      1.0  0.33840  0.29430  0.10441  1.0000
  H   H162      1.0  0.30702  0.33103  0.13360  1.0000
  C   C315      1.0  0.29287  0.34499  0.25322  1.0000
  H   H163      1.0  0.29305  0.34942  0.19102  1.0000
  C   C316      1.0  0.76122  0.04173  0.24529  1.0000
  C   C317      1.0  0.77208  0.06176  0.26426  1.0000
  H   H164      1.0  0.77648  0.07144  0.21230  1.0000
  C   C318      1.0  0.74417  0.00823  0.30104  1.0000
  C   C319      1.0  0.72120  0.96782  0.27047  1.0000
  C   C320      1.0  0.72740  0.98111  0.19829  1.0000
  C   C321      1.0  0.73886  0.00132  0.21233  1.0000
  C   C322      1.0  0.74490  0.01468  0.14091  1.0000
  C   C323      1.0  0.75603  0.03473  0.15725  1.0000
  H   H165      1.0  0.74117  0.00993  0.07662  1.0000
  H   H166      1.0  0.76015  0.04416  0.10451  1.0000
  H   H167      1.0  0.72338  0.97606  0.13446  1.0000
  C   C324      1.0  0.70933  0.94803  0.25440  1.0000
  H   H168      1.0  0.70484  0.94377  0.19231  1.0000
  C   C325      1.0  0.27076  0.38422  0.40080  1.0000
  C   C326      1.0  0.27742  0.37083  0.39665  1.0000
  C   C327      1.0  0.32636  0.49817  0.40555  1.0000
  C   C328      1.0  0.34567  0.51360  0.40776  1.0000
  C   C329      1.0  0.22404  0.51610  0.39621  1.0000
  C   C330      1.0  0.22778  0.50057  0.39836  1.0000
  C   C331      1.0  0.16851  0.38166  0.40548  1.0000
  C   C332      1.0  0.14846  0.36817  0.40611  1.0000
  H   H169      1.0  0.14191  0.36176  0.46508  1.0000
  H   H170      1.0  0.17614  0.38465  0.46387  1.0000
  H   H171      1.0  0.22922  0.49540  0.45872  1.0000
  H   H172      1.0  0.22278  0.52187  0.45522  1.0000
  H   H173      1.0  0.31917  0.49254  0.46442  1.0000
  H   H174      1.0  0.35202  0.51891  0.46830  1.0000
  H   H175      1.0  0.28194  0.36736  0.45417  1.0000
  H   H176      1.0  0.27061  0.39022  0.46102  1.0000
  C   C333      1.0  0.67010  0.88673  0.40222  1.0000
  C   C334      1.0  0.68349  0.90678  0.39800  1.0000
  C   C335      1.0  0.55618  0.82840  0.40677  1.0000
  C   C336      1.0  0.54076  0.83228  0.40894  1.0000
  C   C337      1.0  0.53829  0.70810  0.39741  1.0000
  C   C338      1.0  0.55381  0.72736  0.39958  1.0000
  C   C339      1.0  0.67268  0.78701  0.40682  1.0000
  C   C340      1.0  0.68617  0.78046  0.40739  1.0000
  H   H177      1.0  0.69254  0.78030  0.46637  1.0000
  H   H178      1.0  0.66963  0.79162  0.46525  1.0000
  H   H179      1.0  0.55897  0.73397  0.45995  1.0000
  H   H180      1.0  0.53251  0.70106  0.45642  1.0000
  H   H181      1.0  0.56178  0.82685  0.46564  1.0000
  H   H182      1.0  0.53541  0.83333  0.46948  1.0000
  H   H183      1.0  0.68693  0.91478  0.45549  1.0000
  H   H184      1.0  0.66405  0.88059  0.46244  1.0000
  C   C341      1.0  0.16766  0.78363  0.39947  1.0000
  C   C342      1.0  0.14761  0.77698  0.39537  1.0000
  C   C343      1.0  0.22592  0.72797  0.40423  1.0000
  C   C344      1.0  0.22201  0.70866  0.40645  1.0000
  C   C345      1.0  0.34617  0.83030  0.39635  1.0000
  C   C346      1.0  0.32690  0.82654  0.39815  1.0000
  C   C347      1.0  0.26733  0.88584  0.40431  1.0000
  C   C348      1.0  0.27391  0.90590  0.40495  1.0000
  H   H185      1.0  0.27399  0.91241  0.46391  1.0000
  H   H186      1.0  0.26265  0.87818  0.46270  1.0000
  H   H187      1.0  0.32021  0.82506  0.45839  1.0000
  H   H188      1.0  0.35313  0.83152  0.45549  1.0000
  H   H189      1.0  0.22742  0.73512  0.46309  1.0000
  H   H190      1.0  0.22093  0.70227  0.46700  1.0000
  H   H191      1.0  0.13960  0.77245  0.45293  1.0000
  H   H192      1.0  0.17378  0.78376  0.45969  1.0000
  C   C349      1.0  0.80166  0.65218  0.40285  1.0000
  C   C350      1.0  0.79502  0.66558  0.39875  1.0000
  C   C351      1.0  0.74599  0.53822  0.40752  1.0000
  C   C352      1.0  0.72668  0.52280  0.40974  1.0000
  C   C353      1.0  0.84832  0.52027  0.39810  1.0000
  C   C354      1.0  0.84458  0.53580  0.40022  1.0000
  C   C355      1.0  0.90392  0.65475  0.40634  1.0000
  C   C356      1.0  0.92396  0.66825  0.40660  1.0000
  H   H193      1.0  0.93051  0.67470  0.46543  1.0000
  H   H194      1.0  0.89628  0.65180  0.46482  1.0000
  H   H195      1.0  0.84309  0.54095  0.46057  1.0000
  H   H196      1.0  0.84954  0.51449  0.45712  1.0000
  H   H197      1.0  0.75313  0.54385  0.46638  1.0000
  H   H198      1.0  0.72028  0.51748  0.47030  1.0000
  H   H199      1.0  0.79048  0.66905  0.45630  1.0000
  H   H200      1.0  0.80180  0.64617  0.46307  1.0000
  C   C357      1.0  0.40223  0.14956  0.40287  1.0000
  C   C358      1.0  0.38884  0.12952  0.39828  1.0000
  C   C359      1.0  0.51618  0.20798  0.40892  1.0000
  C   C360      1.0  0.53161  0.20411  0.41107  1.0000
  C   C361      1.0  0.53409  0.32827  0.39949  1.0000
  C   C362      1.0  0.51857  0.30900  0.40167  1.0000
  C   C363      1.0  0.39963  0.24936  0.40758  1.0000
  C   C364      1.0  0.38614  0.25593  0.40786  1.0000
  H   H201      1.0  0.37969  0.25607  0.46671  1.0000
  H   H202      1.0  0.40258  0.24472  0.46610  1.0000
  H   H203      1.0  0.51338  0.30238  0.46204  1.0000
  H   H204      1.0  0.53984  0.33529  0.45849  1.0000
  H   H205      1.0  0.51053  0.20950  0.46781  1.0000
  H   H206      1.0  0.53690  0.20302  0.47160  1.0000
  H   H207      1.0  0.38536  0.12144  0.45560  1.0000
  H   H208      1.0  0.40822  0.15562  0.46319  1.0000
  C   C365      1.0  0.90471  0.25278  0.40159  1.0000
  C   C366      1.0  0.92476  0.25945  0.39742  1.0000
  C   C367      1.0  0.84643  0.30839  0.40617  1.0000
  C   C368      1.0  0.85030  0.32770  0.40838  1.0000
  C   C369      1.0  0.72616  0.20603  0.39827  1.0000
  C   C370      1.0  0.74543  0.20977  0.40009  1.0000
  C   C371      1.0  0.80501  0.15050  0.40626  1.0000
  C   C372      1.0  0.79845  0.13046  0.40681  1.0000
  H   H209      1.0  0.79828  0.12391  0.46578  1.0000
  H   H210      1.0  0.80962  0.15814  0.46468  1.0000
  H   H211      1.0  0.75208  0.21124  0.46033  1.0000
  H   H212      1.0  0.71916  0.20478  0.45740  1.0000
  H   H213      1.0  0.84489  0.30122  0.46502  1.0000
  H   H214      1.0  0.85137  0.33407  0.46894  1.0000
  H   H215      1.0  0.93274  0.26397  0.45494  1.0000
  H   H216      1.0  0.89855  0.25266  0.46179  1.0000
  C   C373      1.0  0.21024  0.64942  0.36218  1.0000
  C   C374      1.0  0.21560  0.64015  0.42844  1.0000
  N   N49       1.0  0.21531  0.62338  0.40717  1.0000
  C   C375      1.0  0.21018  0.61457  0.32629  1.0000
  C   C376      1.0  0.21658  0.57237  0.36140  1.0000
  N   N50       1.0  0.21585  0.58888  0.37413  1.0000
  H   H217      1.0  0.22084  0.56715  0.41374  1.0000
  C   C377      1.0  0.22213  0.64731  0.52036  1.0000
  H   H218      1.0  0.22304  0.66120  0.53391  1.0000
  H   H219      1.0  0.23652  0.64912  0.53116  1.0000
  H   H220      1.0  0.21205  0.63669  0.56821  1.0000
  C   C378      1.0  0.21002  0.66645  0.37847  1.0000
  H   H221      1.0  0.20360  0.66748  0.43348  1.0000
  C   C379      1.0  0.40494  0.56102  0.36344  1.0000
  C   C380      1.0  0.41418  0.57566  0.42969  1.0000
  N   N51       1.0  0.43096  0.59213  0.40840  1.0000
  C   C381      1.0  0.43981  0.59580  0.32752  1.0000
  C   C382      1.0  0.48198  0.64440  0.36257  1.0000
  N   N52       1.0  0.46547  0.62716  0.37532  1.0000
  H   H222      1.0  0.48717  0.65389  0.41489  1.0000
  C   C383      1.0  0.40698  0.57504  0.52159  1.0000
  H   H223      1.0  0.39308  0.56206  0.53516  1.0000
  H   H224      1.0  0.40516  0.58761  0.53237  1.0000
  H   H225      1.0  0.41756  0.57557  0.56945  1.0000
  C   C384      1.0  0.38789  0.54377  0.37975  1.0000
  H   H226      1.0  0.38683  0.53632  0.43478  1.0000
  C   C385      1.0  0.49332  0.84409  0.36443  1.0000
  C   C386      1.0  0.47862  0.83869  0.43051  1.0000
  N   N53       1.0  0.46218  0.83902  0.40905  1.0000
  C   C387      1.0  0.45859  0.84422  0.32813  1.0000
  C   C388      1.0  0.40998  0.83783  0.36264  1.0000
  N   N54       1.0  0.42719  0.83854  0.37559  1.0000
  H   H227      1.0  0.40043  0.83353  0.41486  1.0000
  C   C389      1.0  0.47915  0.83209  0.52243  1.0000
  H   H228      1.0  0.49210  0.83115  0.53615  1.0000
  H   H229      1.0  0.46655  0.81769  0.53310  1.0000
  H   H230      1.0  0.47858  0.84214  0.57028  1.0000
  C   C390      1.0  0.51055  0.84426  0.38090  1.0000
  H   H231      1.0  0.51794  0.85063  0.43600  1.0000
  C   C391      1.0  0.86212  0.38695  0.36411  1.0000
  C   C392      1.0  0.85671  0.39620  0.43037  1.0000
  N   N55       1.0  0.85703  0.41298  0.40911  1.0000
  C   C393      1.0  0.86221  0.42181  0.32824  1.0000
  C   C394      1.0  0.85581  0.46401  0.36337  1.0000
  N   N56       1.0  0.85652  0.44749  0.37610  1.0000
  H   H232      1.0  0.85150  0.46921  0.41571  1.0000
  C   C395      1.0  0.85013  0.38902  0.52231  1.0000
  H   H233      1.0  0.84920  0.37512  0.53586  1.0000
  H   H234      1.0  0.83573  0.38720  0.53315  1.0000
  H   H235      1.0  0.86019  0.39961  0.57013  1.0000
  C   C396      1.0  0.86231  0.36990  0.38039  1.0000
  H   H236      1.0  0.86870  0.36885  0.43540  1.0000
  C   C397      1.0  0.66743  0.47538  0.36546  1.0000
  C   C398      1.0  0.65814  0.46073  0.43172  1.0000
  N   N57       1.0  0.64138  0.44426  0.41044  1.0000
  C   C399      1.0  0.63259  0.44061  0.32956  1.0000
  C   C400      1.0  0.59039  0.39200  0.36464  1.0000
  N   N58       1.0  0.60689  0.40923  0.37738  1.0000
  H   H237      1.0  0.58516  0.38249  0.41697  1.0000
  C   C401      1.0  0.66529  0.46132  0.52363  1.0000
  H   H238      1.0  0.67918  0.47429  0.53720  1.0000
  H   H239      1.0  0.66709  0.44874  0.53444  1.0000
  H   H240      1.0  0.65466  0.46078  0.57148  1.0000
  C   C402      1.0  0.68447  0.49262  0.38176  1.0000
  H   H241      1.0  0.68549  0.50005  0.43677  1.0000
  C   C403      1.0  0.57904  0.19228  0.36644  1.0000
  C   C404      1.0  0.59370  0.19766  0.43251  1.0000
  N   N59       1.0  0.61016  0.19734  0.41101  1.0000
  C   C405      1.0  0.61380  0.19217  0.33009  1.0000
  C   C406      1.0  0.66240  0.19856  0.36453  1.0000
  N   N60       1.0  0.64517  0.19784  0.37750  1.0000
  H   H242      1.0  0.67191  0.20285  0.41674  1.0000
  C   C407      1.0  0.59313  0.20424  0.52443  1.0000
  H   H243      1.0  0.58016  0.20517  0.53816  1.0000
  H   H244      1.0  0.60571  0.21863  0.53506  1.0000
  H   H245      1.0  0.59367  0.19417  0.57227  1.0000
  C   C408      1.0  0.56181  0.19210  0.38294  1.0000
  H   H246      1.0  0.55438  0.18572  0.43806  1.0000
  C   C409      1.0  0.08667  0.32797  0.35252  1.0000
  C   C410      1.0  0.07263  0.32014  0.42233  1.0000
  N   N61       1.0  0.05345  0.31133  0.40100  1.0000
  C   C411      1.0  0.04641  0.30929  0.31682  1.0000
  C   C412      1.0  0.99371  0.28476  0.35655  1.0000
  N   N62       1.0  0.01319  0.29325  0.36860  1.0000
  H   H247      1.0  0.98499  0.28005  0.41173  1.0000
  C   C413      1.0  0.07680  0.32104  0.51915  1.0000
  H   H248      1.0  0.09224  0.32908  0.53461  1.0000
  H   H249      1.0  0.07080  0.30633  0.54526  1.0000
  H   H250      1.0  0.06994  0.32813  0.55385  1.0000
  C   C414      1.0  0.10654  0.33730  0.36804  1.0000
  H   H251      1.0  0.11174  0.33181  0.41252  1.0000
  C   C415      1.0  0.72642  0.75890  0.35372  1.0000
  C   C416      1.0  0.73420  0.75269  0.42355  1.0000
  N   N63       1.0  0.74302  0.74231  0.40225  1.0000
  C   C417      1.0  0.74510  0.73731  0.31809  1.0000
  C   C418      1.0  0.76957  0.70910  0.35791  1.0000
  N   N64       1.0  0.76109  0.72011  0.36992  1.0000
  H   H252      1.0  0.77425  0.70509  0.41311  1.0000
  C   C419      1.0  0.73324  0.75596  0.52036  1.0000
  H   H253      1.0  0.72520  0.76337  0.53580  1.0000
  H   H254      1.0  0.74795  0.76467  0.54652  1.0000
  H   H255      1.0  0.72614  0.74201  0.55505  1.0000
  C   C420      1.0  0.71709  0.76946  0.36920  1.0000
  H   H256      1.0  0.72256  0.78015  0.41370  1.0000
  C   C421      1.0  0.29550  0.96771  0.35153  1.0000
  C   C422      1.0  0.30161  0.98169  0.42145  1.0000
  N   N65       1.0  0.31198  0.00089  0.40028  1.0000
  C   C423      1.0  0.31706  0.00800  0.31618  1.0000
  C   C424      1.0  0.34504  0.06067  0.35633  1.0000
  N   N66       1.0  0.33410  0.04118  0.36822  1.0000
  H   H257      1.0  0.34894  0.06935  0.41157  1.0000
  C   C425      1.0  0.29825  0.97743  0.51823  1.0000
  H   H258      1.0  0.29087  0.96198  0.53357  1.0000
  H   H259      1.0  0.28948  0.98337  0.54429  1.0000
  H   H260      1.0  0.31216  0.98429  0.55307  1.0000
  C   C426      1.0  0.28494  0.94782  0.36688  1.0000
  H   H261      1.0  0.27421  0.94258  0.41128  1.0000
  C   C427      1.0  0.98574  0.70846  0.35197  1.0000
  C   C428      1.0  0.99977  0.71631  0.42161  1.0000
  N   N67       1.0  0.01895  0.72512  0.40006  1.0000
  C   C429      1.0  0.02600  0.72714  0.31580  1.0000
  C   C430      1.0  0.07869  0.75171  0.35496  1.0000
  N   N68       1.0  0.05921  0.74321  0.36721  1.0000
  H   H262      1.0  0.08741  0.75645  0.41003  1.0000
  C   C431      1.0  0.99559  0.71542  0.51847  1.0000
  H   H263      1.0  0.98015  0.70738  0.53411  1.0000
  H   H264      1.0  0.00158  0.73014  0.54445  1.0000
  H   H265      1.0  0.00245  0.70835  0.55315  1.0000
  C   C432      1.0  0.96586  0.69913  0.36772  1.0000
  H   H266      1.0  0.96066  0.70463  0.41218  1.0000
  C   C433      1.0  0.34594  0.27748  0.35324  1.0000
  C   C434      1.0  0.33805  0.28366  0.42286  1.0000
  N   N69       1.0  0.32925  0.29403  0.40130  1.0000
  C   C435      1.0  0.32727  0.29905  0.31704  1.0000
  C   C436      1.0  0.30265  0.32714  0.35615  1.0000
  N   N70       1.0  0.31115  0.31617  0.36842  1.0000
  H   H267      1.0  0.29787  0.33111  0.41123  1.0000
  C   C437      1.0  0.33889  0.28037  0.51973  1.0000
  H   H268      1.0  0.34693  0.27298  0.53538  1.0000
  H   H269      1.0  0.32416  0.27163  0.54569  1.0000
  H   H270      1.0  0.34594  0.29430  0.55440  1.0000
  C   C438      1.0  0.35527  0.26694  0.36900  1.0000
  H   H271      1.0  0.34975  0.25624  0.41351  1.0000
  C   C439      1.0  0.77687  0.06866  0.35308  1.0000
  C   C440      1.0  0.77065  0.05464  0.42288  1.0000
  N   N71       1.0  0.76029  0.03545  0.40153  1.0000
  C   C441      1.0  0.75530  0.02840  0.31734  1.0000
  C   C442      1.0  0.72717  0.97571  0.35704  1.0000
  N   N72       1.0  0.73814  0.99519  0.36910  1.0000
  H   H272      1.0  0.72316  0.96699  0.41221  1.0000
  C   C443      1.0  0.77391  0.05882  0.51970  1.0000
  H   H273      1.0  0.78131  0.07426  0.53517  1.0000
  H   H274      1.0  0.78264  0.05283  0.54577  1.0000
  H   H275      1.0  0.75997  0.05196  0.55443  1.0000
  C   C444      1.0  0.78742  0.08854  0.36862  1.0000
  H   H276      1.0  0.79811  0.09374  0.41306  1.0000
