data_image0
_chemical_formula_structural       C2NCHC3NOHC5H4C5H4CHCHC6H4C6H5C2HC13H5C13H5CNHCNH3C2H2OC2H2OC2HOC2H2OC2H2OC2H2OC3NC2NHOHC4NC2NHOHC3NOHC4NC2NHOHC3NC2NHOC2NCHC4NC2NHOHC4NC2NHOHC4NC2NHOHC4NC2NHOHC4NC2NHOHC4NC2NHOH3C24H17C24H15C24H15C24H15C24H15C24H15C24H15C24H15C24H15C24H15C5NHC4NC2NH2C5NHC4NC2NH2C4NC2NH2C4NC2NH2C2HC2H2CHC2H2C2HCHC2H2C2H2C2H2C2H2C2H2C2H2
_chemical_formula_sum              "C432 N36 H252 O18"
_cell_length_a       75.853
_cell_length_b       75.853
_cell_length_c       14.9274
_cell_angle_alpha    90
_cell_angle_beta     90
_cell_angle_gamma    120

_space_group_name_H-M_alt    "P 1"
_space_group_IT_number       1

loop_
  _space_group_symop_operation_xyz
  'x, y, z'

loop_
  _atom_site_type_symbol
  _atom_site_label
  _atom_site_symmetry_multiplicity
  _atom_site_fract_x
  _atom_site_fract_y
  _atom_site_fract_z
  _atom_site_occupancy
  C   C1        1.0  0.01046  0.79968  0.25062  1.0000
  C   C2        1.0  0.02126  0.80717  0.33236  1.0000
  N   N1        1.0  0.02077  0.80266  0.17232  1.0000
  C   C3        1.0  0.01166  0.79572  0.09205  1.0000
  H   H1        1.0  0.02024  0.79846  0.03555  1.0000
  C   C4        1.0  0.02088  0.20226  0.32929  1.0000
  C   C5        1.0  0.00965  0.19860  0.24807  1.0000
  C   C6        1.0  0.00799  0.20251  0.08895  1.0000
  N   N2        1.0  0.01870  0.20596  0.16633  1.0000
  O   O1        1.0  0.01756  0.21000  0.00986  1.0000
  H   H2        1.0  0.03341  0.21437  0.16170  1.0000
  C   C7        1.0  0.07534  0.21614  0.28708  1.0000
  C   C8        1.0  0.05389  0.20556  0.28499  1.0000
  C   C9        1.0  0.04266  0.21279  0.33264  1.0000
  C   C10       1.0  0.05363  0.23056  0.38505  1.0000
  C   C11       1.0  0.07508  0.24102  0.38762  1.0000
  H   H3        1.0  0.08276  0.21065  0.24911  1.0000
  H   H4        1.0  0.04650  0.19260  0.24720  1.0000
  H   H5        1.0  0.08230  0.25368  0.42725  1.0000
  H   H6        1.0  0.04606  0.23620  0.42108  1.0000
  C   C12       1.0  0.07540  0.82332  0.39661  1.0000
  C   C13       1.0  0.05395  0.81249  0.39417  1.0000
  C   C14       1.0  0.04307  0.81848  0.33651  1.0000
  C   C15       1.0  0.05447  0.83595  0.28279  1.0000
  C   C16       1.0  0.07591  0.84679  0.28543  1.0000
  H   H7        1.0  0.04632  0.79990  0.43393  1.0000
  H   H8        1.0  0.08258  0.81846  0.43968  1.0000
  H   H9        1.0  0.04723  0.84100  0.24105  1.0000
  H   H10       1.0  0.08346  0.85902  0.24365  1.0000
  C   C17       1.0  0.00977  0.80291  0.41200  1.0000
  H   H11       1.0  0.01692  0.80817  0.47232  1.0000
  C   C18       1.0  0.00997  0.19494  0.41046  1.0000
  H   H12       1.0  0.01758  0.19719  0.46982  1.0000
  C   C19       1.0  0.14112  0.24502  0.34280  1.0000
  C   C20       1.0  0.14123  0.27784  0.34163  1.0000
  C   C21       1.0  0.11966  0.26665  0.33892  1.0000
  C   C22       1.0  0.10839  0.24508  0.33973  1.0000
  C   C23       1.0  0.11955  0.23467  0.34182  1.0000
  C   C24       1.0  0.08648  0.23418  0.33816  1.0000
  H   H13       1.0  0.13362  0.21222  0.24368  1.0000
  H   H14       1.0  0.13206  0.30319  0.43156  1.0000
  H   H15       1.0  0.11177  0.21912  0.34531  1.0000
  H   H16       1.0  0.11193  0.27444  0.33358  1.0000
  C   C25       1.0  0.10877  0.85154  0.34278  1.0000
  C   C26       1.0  0.11990  0.84109  0.34337  1.0000
  C   C27       1.0  0.14147  0.85142  0.34163  1.0000
  C   C28       1.0  0.14155  0.88426  0.33973  1.0000
  C   C29       1.0  0.11998  0.87310  0.34178  1.0000
  C   C30       1.0  0.08689  0.84068  0.34207  1.0000
  H   H17       1.0  0.13276  0.90989  0.24909  1.0000
  H   H18       1.0  0.13293  0.81644  0.25582  1.0000
  H   H19       1.0  0.11205  0.82552  0.34494  1.0000
  H   H20       1.0  0.11220  0.88088  0.34530  1.0000
  H   H21       1.0  0.18591  0.80393  0.21376  1.0000
  C   C31       1.0  0.18548  0.20188  0.33238  1.0000
  C   C32       1.0  0.18624  0.97177  0.32931  1.0000
  H   H22       1.0  0.18583  0.95924  0.16173  1.0000
  C   C33       1.0  0.15156  0.26659  0.34338  1.0000
  C   C34       1.0  0.15218  0.29976  0.34335  1.0000
  C   C35       1.0  0.17057  0.31135  0.29514  1.0000
  C   C36       1.0  0.18143  0.33280  0.29859  1.0000
  C   C37       1.0  0.17440  0.34367  0.35052  1.0000
  C   C38       1.0  0.15584  0.33216  0.39732  1.0000
  C   C39       1.0  0.14508  0.31073  0.39434  1.0000
  C   C40       1.0  0.15197  0.23399  0.34209  1.0000
  C   C41       1.0  0.16933  0.23987  0.39663  1.0000
  C   C42       1.0  0.18015  0.22924  0.39420  1.0000
  C   C43       1.0  0.17417  0.21237  0.33652  1.0000
  C   C44       1.0  0.15670  0.20631  0.28281  1.0000
  C   C45       1.0  0.14586  0.21691  0.28542  1.0000
  H   H23       1.0  0.17419  0.25190  0.43969  1.0000
  H   H24       1.0  0.15165  0.19402  0.24107  1.0000
  H   H25       1.0  0.14987  0.33932  0.43412  1.0000
  H   H26       1.0  0.17621  0.30428  0.25583  1.0000
  H   H27       1.0  0.16713  0.27431  0.34496  1.0000
  C   C46       1.0  0.15185  0.87299  0.33891  1.0000
  C   C47       1.0  0.15245  0.84047  0.34335  1.0000
  C   C48       1.0  0.14565  0.82208  0.29516  1.0000
  C   C49       1.0  0.15624  0.81123  0.29859  1.0000
  C   C50       1.0  0.17414  0.81825  0.35052  1.0000
  C   C51       1.0  0.18119  0.83681  0.39734  1.0000
  C   C52       1.0  0.17051  0.84757  0.39437  1.0000
  C   C53       1.0  0.15256  0.90618  0.33817  1.0000
  C   C54       1.0  0.14566  0.91731  0.28712  1.0000
  C   C55       1.0  0.15653  0.93876  0.28503  1.0000
  C   C56       1.0  0.17499  0.94999  0.33266  1.0000
  C   C57       1.0  0.18179  0.93902  0.38508  1.0000
  C   C58       1.0  0.17080  0.91757  0.38766  1.0000
  H   H28       1.0  0.15096  0.94615  0.24720  1.0000
  H   H29       1.0  0.17625  0.91035  0.42725  1.0000
  H   H30       1.0  0.17600  0.86060  0.43153  1.0000
  H   H31       1.0  0.15055  0.79788  0.26356  1.0000
  H   H32       1.0  0.16738  0.88072  0.33360  1.0000
  C   C59       1.0  0.18551  0.36552  0.35466  1.0000
  N   N3        1.0  0.18495  0.36632  0.51614  1.0000
  H   H33       1.0  0.18406  0.36705  0.65422  1.0000
  C   C60       1.0  0.18487  0.80714  0.35466  1.0000
  N   N4        1.0  0.18624  0.80771  0.51615  1.0000
  H   H34       1.0  0.18787  0.80860  0.65423  1.0000
  H   H35       1.0  0.18447  0.19653  0.47234  1.0000
  H   H36       1.0  0.18448  0.97508  0.46984  1.0000
  C   C61       1.0  0.19190  0.37696  0.27453  1.0000
  C   C62       1.0  0.20238  0.39835  0.27562  1.0000
  H   H37       1.0  0.20685  0.40587  0.21564  1.0000
  H   H38       1.0  0.18872  0.36977  0.21374  1.0000
  O   O2        1.0  0.20110  0.40648  0.01246  1.0000
  C   C63       1.0  0.61569  0.80272  0.27451  1.0000
  C   C64       1.0  0.59429  0.79182  0.27562  1.0000
  H   H39       1.0  0.58678  0.78877  0.21564  1.0000
  H   H40       1.0  0.62288  0.80673  0.21372  1.0000
  O   O3        1.0  0.58619  0.78241  0.01246  1.0000
  C   C65       1.0  0.18993  0.80075  0.27454  1.0000
  C   C66       1.0  0.20083  0.79026  0.27563  1.0000
  H   H41       1.0  0.20388  0.78579  0.21565  1.0000
  O   O4        1.0  0.21025  0.79156  0.01247  1.0000
  C   C67       1.0  0.80644  0.61000  0.27454  1.0000
  C   C68       1.0  0.79596  0.58861  0.27563  1.0000
  H   H42       1.0  0.79148  0.58109  0.21565  1.0000
  H   H43       1.0  0.80962  0.61720  0.21375  1.0000
  O   O5        1.0  0.79727  0.58049  0.01246  1.0000
  C   C69       1.0  0.38265  0.18423  0.27455  1.0000
  C   C70       1.0  0.40404  0.19514  0.27565  1.0000
  H   H44       1.0  0.41156  0.19819  0.21568  1.0000
  H   H45       1.0  0.37545  0.18022  0.21376  1.0000
  O   O6        1.0  0.41215  0.20454  0.01249  1.0000
  C   C71       1.0  0.80844  0.18621  0.27452  1.0000
  C   C72       1.0  0.79753  0.19670  0.27562  1.0000
  H   H46       1.0  0.79448  0.20117  0.21564  1.0000
  H   H47       1.0  0.81244  0.18303  0.21374  1.0000
  O   O7        1.0  0.78813  0.19542  0.01246  1.0000
  C   C73       1.0  0.20796  0.18056  0.32932  1.0000
  C   C74       1.0  0.20430  0.18813  0.24810  1.0000
  C   C75       1.0  0.19297  0.19856  0.25065  1.0000
  N   N5        1.0  0.18998  0.20589  0.17234  1.0000
  C   C76       1.0  0.19692  0.20372  0.09207  1.0000
  C   C77       1.0  0.20820  0.19370  0.08898  1.0000
  N   N6        1.0  0.21166  0.18643  0.16635  1.0000
  H   H48       1.0  0.19419  0.20957  0.03557  1.0000
  O   O8        1.0  0.21571  0.19163  0.00990  1.0000
  H   H49       1.0  0.22007  0.18015  0.16174  1.0000
  C   C78       1.0  0.81209  0.01518  0.32932  1.0000
  C   C79       1.0  0.80452  0.00395  0.24810  1.0000
  C   C80       1.0  0.79409  0.98219  0.25065  1.0000
  C   C81       1.0  0.79077  0.97139  0.33238  1.0000
  N   N7        1.0  0.78676  0.97188  0.17235  1.0000
  C   C82       1.0  0.78893  0.98099  0.09207  1.0000
  C   C83       1.0  0.79895  0.00229  0.08898  1.0000
  N   N8        1.0  0.80622  0.01301  0.16636  1.0000
  H   H50       1.0  0.78308  0.97241  0.03557  1.0000
  O   O9        1.0  0.80103  0.01187  0.00990  1.0000
  H   H51       1.0  0.81250  0.02771  0.16174  1.0000
  C   C84       1.0  0.97746  0.78469  0.32929  1.0000
  C   C85       1.0  0.98869  0.78835  0.24807  1.0000
  C   C86       1.0  0.99036  0.78445  0.08895  1.0000
  N   N9        1.0  0.97964  0.78099  0.16633  1.0000
  O   O10       1.0  0.98078  0.77695  0.00986  1.0000
  H   H52       1.0  0.96494  0.77259  0.16170  1.0000
  C   C87       1.0  0.79039  0.80640  0.32933  1.0000
  C   C88       1.0  0.79404  0.79883  0.24810  1.0000
  C   C89       1.0  0.80537  0.78840  0.25065  1.0000
  C   C90       1.0  0.81286  0.78508  0.33239  1.0000
  N   N10       1.0  0.80836  0.78107  0.17236  1.0000
  C   C91       1.0  0.80141  0.78323  0.09209  1.0000
  C   C92       1.0  0.79014  0.79326  0.08898  1.0000
  N   N11       1.0  0.78668  0.80052  0.16637  1.0000
  H   H53       1.0  0.80416  0.77739  0.03558  1.0000
  O   O11       1.0  0.78264  0.79533  0.00990  1.0000
  H   H54       1.0  0.77828  0.80681  0.16174  1.0000
  C   C93       1.0  0.19382  0.98300  0.24809  1.0000
  C   C94       1.0  0.20425  0.00476  0.25063  1.0000
  C   C95       1.0  0.20756  0.01556  0.33237  1.0000
  N   N12       1.0  0.21158  0.01507  0.17234  1.0000
  C   C96       1.0  0.20942  0.00596  0.09207  1.0000
  C   C97       1.0  0.19939  0.98466  0.08897  1.0000
  N   N13       1.0  0.19212  0.97394  0.16635  1.0000
  H   H55       1.0  0.21525  0.01454  0.03556  1.0000
  O   O12       1.0  0.19731  0.97508  0.00989  1.0000
  C   C98       1.0  0.98789  0.18727  0.25062  1.0000
  C   C99       1.0  0.97709  0.17978  0.33236  1.0000
  N   N14       1.0  0.97758  0.18428  0.17233  1.0000
  C   C100      1.0  0.98668  0.19123  0.09205  1.0000
  H   H56       1.0  0.97811  0.18848  0.03555  1.0000
  C   C101      1.0  0.22308  0.62427  0.32531  1.0000
  C   C102      1.0  0.21423  0.61015  0.25343  1.0000
  C   C103      1.0  0.21487  0.59165  0.25511  1.0000
  C   C104      1.0  0.22392  0.58689  0.32737  1.0000
  N   N15       1.0  0.20672  0.57864  0.18466  1.0000
  C   C105      1.0  0.19805  0.58224  0.11309  1.0000
  C   C106      1.0  0.19721  0.60028  0.11121  1.0000
  N   N16       1.0  0.20517  0.61353  0.18093  1.0000
  H   H57       1.0  0.19219  0.57191  0.06212  1.0000
  O   O13       1.0  0.18849  0.60426  0.04087  1.0000
  H   H58       1.0  0.20390  0.62566  0.17832  1.0000
  C   C107      1.0  0.36839  0.58657  0.32534  1.0000
  C   C108      1.0  0.38251  0.59187  0.25341  1.0000
  C   C109      1.0  0.40100  0.61100  0.25508  1.0000
  C   C110      1.0  0.40577  0.62481  0.32736  1.0000
  N   N17       1.0  0.41401  0.61587  0.18460  1.0000
  C   C111      1.0  0.41040  0.60360  0.11302  1.0000
  C   C112      1.0  0.39237  0.58472  0.11115  1.0000
  N   N18       1.0  0.37913  0.57943  0.18090  1.0000
  H   H59       1.0  0.42073  0.60808  0.06202  1.0000
  O   O14       1.0  0.38838  0.57202  0.04079  1.0000
  H   H60       1.0  0.36700  0.56603  0.17830  1.0000
  C   C113      1.0  0.40606  0.76958  0.32535  1.0000
  C   C114      1.0  0.40078  0.77842  0.25344  1.0000
  C   C115      1.0  0.38166  0.77779  0.25510  1.0000
  C   C116      1.0  0.36784  0.76874  0.32735  1.0000
  N   N19       1.0  0.37680  0.78594  0.18463  1.0000
  C   C117      1.0  0.38907  0.79461  0.11308  1.0000
  C   C118      1.0  0.40795  0.79545  0.11123  1.0000
  N   N20       1.0  0.41323  0.78748  0.18095  1.0000
  H   H61       1.0  0.38461  0.80048  0.06211  1.0000
  O   O15       1.0  0.42066  0.80417  0.04091  1.0000
  H   H62       1.0  0.42664  0.78876  0.17838  1.0000
  C   C119      1.0  0.77523  0.36266  0.32542  1.0000
  C   C120      1.0  0.78408  0.37678  0.25351  1.0000
  C   C121      1.0  0.78346  0.39528  0.25512  1.0000
  C   C122      1.0  0.77441  0.40005  0.32735  1.0000
  N   N21       1.0  0.79162  0.40829  0.18465  1.0000
  C   C123      1.0  0.80029  0.40467  0.11312  1.0000
  C   C124      1.0  0.80112  0.38663  0.11131  1.0000
  N   N22       1.0  0.79314  0.37339  0.18103  1.0000
  H   H63       1.0  0.80616  0.41500  0.06213  1.0000
  O   O16       1.0  0.80984  0.38264  0.04101  1.0000
  H   H64       1.0  0.79442  0.36126  0.17849  1.0000
  C   C125      1.0  0.62999  0.40035  0.32531  1.0000
  C   C126      1.0  0.61586  0.39509  0.25343  1.0000
  C   C127      1.0  0.59735  0.37597  0.25508  1.0000
  C   C128      1.0  0.59259  0.36214  0.32731  1.0000
  N   N23       1.0  0.58434  0.37112  0.18464  1.0000
  C   C129      1.0  0.58795  0.38341  0.11311  1.0000
  C   C130      1.0  0.60601  0.40228  0.11126  1.0000
  N   N24       1.0  0.61925  0.40754  0.18095  1.0000
  H   H65       1.0  0.57762  0.37895  0.06213  1.0000
  O   O17       1.0  0.60999  0.41499  0.04095  1.0000
  H   H66       1.0  0.63138  0.42094  0.17838  1.0000
  C   C131      1.0  0.59231  0.21745  0.32529  1.0000
  C   C132      1.0  0.59757  0.20857  0.25343  1.0000
  C   C133      1.0  0.61669  0.20920  0.25510  1.0000
  C   C134      1.0  0.63052  0.21826  0.32733  1.0000
  N   N25       1.0  0.62154  0.20102  0.18467  1.0000
  C   C135      1.0  0.60926  0.19234  0.11316  1.0000
  C   C136      1.0  0.59038  0.19151  0.11131  1.0000
  N   N26       1.0  0.58512  0.19950  0.18098  1.0000
  H   H67       1.0  0.61372  0.18646  0.06221  1.0000
  O   O18       1.0  0.57767  0.18277  0.04103  1.0000
  H   H68       1.0  0.57171  0.19823  0.17842  1.0000
  H   H69       1.0  0.19275  0.23421  0.43392  1.0000
  H   H70       1.0  0.19476  0.34045  0.26354  1.0000
  C   C137      1.0  0.74762  0.88387  0.34279  1.0000
  C   C138      1.0  0.72606  0.87275  0.34336  1.0000
  C   C139      1.0  0.71481  0.85118  0.34161  1.0000
  C   C140      1.0  0.72600  0.84079  0.33891  1.0000
  C   C141      1.0  0.74757  0.85110  0.33973  1.0000
  C   C142      1.0  0.75798  0.87267  0.34182  1.0000
  C   C143      1.0  0.69289  0.84020  0.34331  1.0000
  C   C144      1.0  0.68129  0.84699  0.29510  1.0000
  C   C145      1.0  0.65985  0.83640  0.29854  1.0000
  C   C146      1.0  0.64898  0.81851  0.35047  1.0000
  C   C147      1.0  0.66049  0.81146  0.39728  1.0000
  C   C148      1.0  0.68192  0.82213  0.39430  1.0000
  C   C149      1.0  0.75865  0.90576  0.34209  1.0000
  C   C150      1.0  0.75278  0.91724  0.39662  1.0000
  C   C151      1.0  0.76341  0.93869  0.39421  1.0000
  C   C152      1.0  0.78027  0.94958  0.33653  1.0000
  C   C153      1.0  0.78634  0.93817  0.28282  1.0000
  C   C154      1.0  0.77574  0.91673  0.28543  1.0000
  C   C155      1.0  0.75848  0.84008  0.33818  1.0000
  C   C156      1.0  0.77652  0.84699  0.28714  1.0000
  C   C157      1.0  0.78709  0.83612  0.28501  1.0000
  C   C158      1.0  0.77986  0.81766  0.33267  1.0000
  C   C159      1.0  0.76210  0.81086  0.38510  1.0000
  C   C160      1.0  0.75163  0.82184  0.38765  1.0000
  H   H71       1.0  0.75844  0.94633  0.43391  1.0000
  H   H72       1.0  0.74074  0.91007  0.43968  1.0000
  H   H73       1.0  0.79863  0.94541  0.24108  1.0000
  H   H74       1.0  0.78043  0.90919  0.24369  1.0000
  H   H75       1.0  0.78200  0.85989  0.24912  1.0000
  H   H76       1.0  0.80005  0.84169  0.24723  1.0000
  H   H77       1.0  0.73897  0.81640  0.42725  1.0000
  H   H78       1.0  0.75645  0.79765  0.42109  1.0000
  H   H79       1.0  0.68946  0.81665  0.43152  1.0000
  H   H80       1.0  0.65333  0.79834  0.43409  1.0000
  H   H81       1.0  0.65220  0.84210  0.26352  1.0000
  H   H82       1.0  0.68837  0.85972  0.25580  1.0000
  H   H83       1.0  0.71834  0.88060  0.34493  1.0000
  H   H84       1.0  0.77353  0.88044  0.34533  1.0000
  H   H85       1.0  0.71821  0.82527  0.33357  1.0000
  H   H86       1.0  0.19500  0.94658  0.42109  1.0000
  H   H87       1.0  0.19431  0.84278  0.43412  1.0000
  C   C161      1.0  0.85723  0.74194  0.34280  1.0000
  C   C162      1.0  0.84679  0.72037  0.34338  1.0000
  C   C163      1.0  0.85712  0.70913  0.34162  1.0000
  C   C164      1.0  0.87869  0.72032  0.33889  1.0000
  C   C165      1.0  0.88995  0.74189  0.33971  1.0000
  C   C166      1.0  0.87879  0.75229  0.34178  1.0000
  C   C167      1.0  0.84617  0.68720  0.34334  1.0000
  C   C168      1.0  0.82777  0.67561  0.29517  1.0000
  C   C169      1.0  0.81692  0.65416  0.29859  1.0000
  C   C170      1.0  0.82395  0.64329  0.35052  1.0000
  C   C171      1.0  0.84251  0.65480  0.39731  1.0000
  C   C172      1.0  0.85327  0.67623  0.39434  1.0000
  C   C173      1.0  0.84638  0.75297  0.34210  1.0000
  C   C174      1.0  0.82903  0.74710  0.39666  1.0000
  C   C175      1.0  0.81819  0.75772  0.39420  1.0000
  C   C176      1.0  0.82417  0.77458  0.33654  1.0000
  C   C177      1.0  0.84165  0.78065  0.28282  1.0000
  C   C178      1.0  0.85248  0.77005  0.28546  1.0000
  C   C179      1.0  0.91187  0.75279  0.33813  1.0000
  C   C180      1.0  0.92301  0.77082  0.28706  1.0000
  C   C181      1.0  0.94446  0.78140  0.28497  1.0000
  C   C182      1.0  0.95569  0.77417  0.33263  1.0000
  C   C183      1.0  0.94471  0.75640  0.38502  1.0000
  C   C184      1.0  0.92327  0.74594  0.38760  1.0000
  H   H88       1.0  0.80559  0.75276  0.43395  1.0000
  H   H89       1.0  0.82416  0.73506  0.43971  1.0000
  H   H90       1.0  0.84669  0.79294  0.24107  1.0000
  H   H91       1.0  0.86472  0.77474  0.24366  1.0000
  H   H92       1.0  0.91559  0.77632  0.24910  1.0000
  H   H93       1.0  0.95185  0.79436  0.24721  1.0000
  H   H94       1.0  0.91605  0.73328  0.42722  1.0000
  H   H95       1.0  0.95228  0.75076  0.42106  1.0000
  H   H96       1.0  0.86630  0.68378  0.43150  1.0000
  H   H97       1.0  0.84848  0.64765  0.43409  1.0000
  H   H98       1.0  0.80357  0.64651  0.26359  1.0000
  H   H99       1.0  0.82213  0.68268  0.25585  1.0000
  H   H100      1.0  0.83122  0.71265  0.34497  1.0000
  H   H101      1.0  0.88657  0.76785  0.34530  1.0000
  H   H102      1.0  0.88642  0.71252  0.33356  1.0000
  C   C185      1.0  0.25071  0.10308  0.34278  1.0000
  C   C186      1.0  0.27228  0.11420  0.34337  1.0000
  C   C187      1.0  0.28352  0.13577  0.34163  1.0000
  C   C188      1.0  0.27233  0.14616  0.33893  1.0000
  C   C189      1.0  0.25076  0.13585  0.33972  1.0000
  C   C190      1.0  0.24036  0.11429  0.34177  1.0000
  C   C191      1.0  0.30545  0.14675  0.34335  1.0000
  C   C192      1.0  0.31704  0.13995  0.29515  1.0000
  C   C193      1.0  0.33849  0.15054  0.29859  1.0000
  C   C194      1.0  0.34935  0.16844  0.35052  1.0000
  C   C195      1.0  0.33784  0.17549  0.39734  1.0000
  C   C196      1.0  0.31641  0.16482  0.39436  1.0000
  C   C197      1.0  0.23968  0.08119  0.34208  1.0000
  C   C198      1.0  0.24555  0.06971  0.39663  1.0000
  C   C199      1.0  0.23493  0.04825  0.39418  1.0000
  C   C200      1.0  0.21806  0.03737  0.33652  1.0000
  C   C201      1.0  0.21199  0.04878  0.28280  1.0000
  C   C202      1.0  0.22259  0.07021  0.28543  1.0000
  C   C203      1.0  0.23986  0.14687  0.33816  1.0000
  C   C204      1.0  0.22182  0.13997  0.28709  1.0000
  C   C205      1.0  0.21125  0.15084  0.28499  1.0000
  C   C206      1.0  0.21848  0.16930  0.33266  1.0000
  C   C207      1.0  0.23624  0.17609  0.38508  1.0000
  C   C208      1.0  0.24671  0.16511  0.38764  1.0000
  H   H103      1.0  0.23989  0.04062  0.43393  1.0000
  H   H104      1.0  0.25759  0.07688  0.43968  1.0000
  H   H105      1.0  0.19970  0.04154  0.24105  1.0000
  H   H106      1.0  0.21791  0.07777  0.24364  1.0000
  H   H107      1.0  0.21633  0.12706  0.24910  1.0000
  H   H108      1.0  0.19829  0.14527  0.24722  1.0000
  H   H109      1.0  0.25937  0.17055  0.42724  1.0000
  H   H110      1.0  0.24189  0.18931  0.42109  1.0000
  H   H111      1.0  0.30887  0.17030  0.43156  1.0000
  H   H112      1.0  0.34500  0.18861  0.43414  1.0000
  H   H113      1.0  0.34614  0.14485  0.26354  1.0000
  H   H114      1.0  0.30996  0.12723  0.25581  1.0000
  H   H115      1.0  0.27999  0.10635  0.34494  1.0000
  H   H116      1.0  0.22480  0.10651  0.34529  1.0000
  H   H117      1.0  0.28013  0.16168  0.33358  1.0000
  C   C209      1.0  0.88958  0.13541  0.34278  1.0000
  C   C210      1.0  0.87845  0.14586  0.34336  1.0000
  C   C211      1.0  0.85688  0.13553  0.34161  1.0000
  C   C212      1.0  0.84649  0.11396  0.33893  1.0000
  C   C213      1.0  0.85680  0.10269  0.33973  1.0000
  C   C214      1.0  0.87836  0.11385  0.34178  1.0000
  C   C215      1.0  0.84590  0.14648  0.34333  1.0000
  C   C216      1.0  0.85270  0.16487  0.29510  1.0000
  C   C217      1.0  0.84211  0.17573  0.29857  1.0000
  C   C218      1.0  0.82422  0.16871  0.35050  1.0000
  C   C219      1.0  0.81717  0.15015  0.39733  1.0000
  C   C220      1.0  0.82784  0.13938  0.39434  1.0000
  C   C221      1.0  0.91146  0.14627  0.34208  1.0000
  C   C222      1.0  0.92294  0.16362  0.39663  1.0000
  C   C223      1.0  0.94440  0.17445  0.39416  1.0000
  C   C224      1.0  0.95528  0.16847  0.33651  1.0000
  C   C225      1.0  0.94387  0.15099  0.28279  1.0000
  C   C226      1.0  0.92244  0.14016  0.28540  1.0000
  C   C227      1.0  0.84578  0.08077  0.33816  1.0000
  C   C228      1.0  0.85268  0.06963  0.28710  1.0000
  C   C229      1.0  0.84181  0.04819  0.28501  1.0000
  C   C230      1.0  0.82335  0.03696  0.33266  1.0000
  C   C231      1.0  0.81655  0.04793  0.38506  1.0000
  C   C232      1.0  0.82754  0.06938  0.38764  1.0000
  H   H118      1.0  0.95203  0.18705  0.43392  1.0000
  H   H119      1.0  0.91577  0.16849  0.43968  1.0000
  H   H120      1.0  0.95111  0.14594  0.24105  1.0000
  H   H121      1.0  0.91489  0.12792  0.24366  1.0000
  H   H122      1.0  0.86559  0.07705  0.24911  1.0000
  H   H123      1.0  0.84737  0.04080  0.24722  1.0000
  H   H124      1.0  0.82210  0.07660  0.42725  1.0000
  H   H125      1.0  0.80334  0.04037  0.42110  1.0000
  H   H126      1.0  0.82236  0.12636  0.43155  1.0000
  H   H127      1.0  0.80405  0.14418  0.43412  1.0000
  H   H128      1.0  0.84781  0.18907  0.26351  1.0000
  H   H129      1.0  0.86542  0.17051  0.25579  1.0000
  H   H130      1.0  0.88630  0.16143  0.34493  1.0000
  H   H131      1.0  0.88614  0.10607  0.34529  1.0000
  H   H132      1.0  0.83097  0.10623  0.33358  1.0000
  C   C233      1.0  0.25126  0.52956  0.33019  1.0000
  C   C234      1.0  0.24076  0.50815  0.33944  1.0000
  C   C235      1.0  0.25117  0.49692  0.34051  1.0000
  C   C236      1.0  0.27279  0.50805  0.33483  1.0000
  C   C237      1.0  0.28372  0.52949  0.32647  1.0000
  C   C238      1.0  0.27269  0.53991  0.32511  1.0000
  C   C239      1.0  0.24018  0.47501  0.34454  1.0000
  C   C240      1.0  0.22154  0.46334  0.29808  1.0000
  C   C241      1.0  0.21067  0.44191  0.30215  1.0000
  C   C242      1.0  0.21803  0.43117  0.35271  1.0000
  C   C243      1.0  0.23691  0.44265  0.39706  1.0000
  C   C244      1.0  0.24762  0.46410  0.39385  1.0000
  C   C245      1.0  0.24119  0.54110  0.32393  1.0000
  C   C246      1.0  0.22957  0.54204  0.39584  1.0000
  C   C247      1.0  0.22314  0.55658  0.39595  1.0000
  C   C248      1.0  0.22790  0.57036  0.32377  1.0000
  C   C249      1.0  0.23895  0.56886  0.25068  1.0000
  C   C250      1.0  0.24542  0.55445  0.25061  1.0000
  C   C251      1.0  0.30534  0.54102  0.31898  1.0000
  C   C252      1.0  0.31437  0.55533  0.24877  1.0000
  C   C253      1.0  0.33526  0.56971  0.24968  1.0000
  C   C254      1.0  0.34792  0.57008  0.32005  1.0000
  C   C255      1.0  0.33902  0.55537  0.38894  1.0000
  C   C256      1.0  0.31804  0.54094  0.38816  1.0000
  H   H133      1.0  0.21553  0.55749  0.45074  1.0000
  H   H134      1.0  0.22689  0.53312  0.45128  1.0000
  H   H135      1.0  0.24346  0.57906  0.19890  1.0000
  H   H136      1.0  0.25421  0.55452  0.19837  1.0000
  H   H137      1.0  0.30559  0.55616  0.19872  1.0000
  H   H138      1.0  0.34094  0.58058  0.20055  1.0000
  H   H139      1.0  0.31189  0.53131  0.44160  1.0000
  H   H140      1.0  0.34764  0.55557  0.44205  1.0000
  H   H141      1.0  0.26087  0.47169  0.42948  1.0000
  H   H142      1.0  0.24293  0.43545  0.43321  1.0000
  H   H143      1.0  0.19718  0.43418  0.26826  1.0000
  H   H144      1.0  0.21571  0.47032  0.25930  1.0000
  H   H145      1.0  0.22522  0.50069  0.34419  1.0000
  H   H146      1.0  0.28047  0.55550  0.32102  1.0000
  H   H147      1.0  0.28075  0.50045  0.33257  1.0000
  C   C257      1.0  0.46309  0.70949  0.33028  1.0000
  C   C258      1.0  0.48450  0.72039  0.33949  1.0000
  C   C259      1.0  0.49573  0.74204  0.34056  1.0000
  C   C260      1.0  0.48460  0.75253  0.33489  1.0000
  C   C261      1.0  0.46316  0.74202  0.32655  1.0000
  C   C262      1.0  0.45274  0.72056  0.32520  1.0000
  C   C263      1.0  0.51764  0.75296  0.34458  1.0000
  C   C264      1.0  0.52931  0.74599  0.29810  1.0000
  C   C265      1.0  0.55074  0.75655  0.30217  1.0000
  C   C266      1.0  0.56148  0.77464  0.35274  1.0000
  C   C267      1.0  0.55000  0.78204  0.39709  1.0000
  C   C268      1.0  0.52855  0.77131  0.39388  1.0000
  C   C269      1.0  0.45154  0.68788  0.32393  1.0000
  C   C270      1.0  0.45061  0.67531  0.39582  1.0000
  C   C271      1.0  0.43609  0.65434  0.39590  1.0000
  C   C272      1.0  0.42230  0.64533  0.32375  1.0000
  C   C273      1.0  0.42379  0.65787  0.25069  1.0000
  C   C274      1.0  0.43819  0.67875  0.25062  1.0000
  C   C275      1.0  0.45163  0.75211  0.31902  1.0000
  C   C276      1.0  0.43732  0.74682  0.24883  1.0000
  C   C277      1.0  0.42294  0.75333  0.24967  1.0000
  C   C278      1.0  0.42256  0.76561  0.32008  1.0000
  C   C279      1.0  0.43727  0.77144  0.38894  1.0000
  C   C280      1.0  0.45172  0.76489  0.38815  1.0000
  H   H148      1.0  0.43517  0.64582  0.45072  1.0000
  H   H149      1.0  0.45953  0.68155  0.45127  1.0000
  H   H150      1.0  0.41359  0.65219  0.19892  1.0000
  H   H151      1.0  0.43812  0.68747  0.19841  1.0000
  H   H152      1.0  0.43649  0.73721  0.19875  1.0000
  H   H153      1.0  0.41206  0.74812  0.20057  1.0000
  H   H154      1.0  0.46133  0.76836  0.44164  1.0000
  H   H155      1.0  0.43706  0.77985  0.44209  1.0000
  H   H156      1.0  0.52096  0.77697  0.42952  1.0000
  H   H157      1.0  0.55720  0.79526  0.43324  1.0000
  H   H158      1.0  0.55847  0.75078  0.26827  1.0000
  H   H159      1.0  0.52233  0.73317  0.25932  1.0000
  H   H160      1.0  0.49196  0.71232  0.34421  1.0000
  H   H161      1.0  0.43715  0.71275  0.32108  1.0000
  H   H162      1.0  0.49220  0.76809  0.33262  1.0000
  C   C281      1.0  0.28317  0.74139  0.33021  1.0000
  C   C282      1.0  0.27226  0.75190  0.33943  1.0000
  C   C283      1.0  0.25061  0.74148  0.34048  1.0000
  C   C284      1.0  0.24013  0.71987  0.33472  1.0000
  C   C285      1.0  0.25063  0.70893  0.32646  1.0000
  C   C286      1.0  0.27210  0.71997  0.32511  1.0000
  C   C287      1.0  0.23969  0.75247  0.34453  1.0000
  C   C288      1.0  0.24667  0.77112  0.29808  1.0000
  C   C289      1.0  0.23610  0.78198  0.30215  1.0000
  C   C290      1.0  0.21801  0.77462  0.35272  1.0000
  C   C291      1.0  0.21062  0.75575  0.39710  1.0000
  C   C292      1.0  0.22134  0.74503  0.39384  1.0000
  C   C293      1.0  0.30478  0.75146  0.32386  1.0000
  C   C294      1.0  0.31735  0.76311  0.39572  1.0000
  C   C295      1.0  0.33831  0.76953  0.39586  1.0000
  C   C296      1.0  0.34733  0.76476  0.32370  1.0000
  C   C297      1.0  0.33478  0.75372  0.25060  1.0000
  C   C298      1.0  0.31390  0.74725  0.25053  1.0000
  C   C299      1.0  0.24055  0.68732  0.31894  1.0000
  C   C300      1.0  0.24585  0.67829  0.24878  1.0000
  C   C301      1.0  0.23933  0.65740  0.24962  1.0000
  C   C302      1.0  0.22705  0.64474  0.32002  1.0000
  C   C303      1.0  0.22123  0.65363  0.38888  1.0000
  C   C304      1.0  0.22775  0.67461  0.38804  1.0000
  H   H163      1.0  0.34682  0.77711  0.45070  1.0000
  H   H164      1.0  0.31110  0.76576  0.45127  1.0000
  H   H165      1.0  0.34047  0.74921  0.19882  1.0000
  H   H166      1.0  0.30519  0.73845  0.19831  1.0000
  H   H167      1.0  0.25543  0.68707  0.19864  1.0000
  H   H168      1.0  0.24451  0.65172  0.20045  1.0000
  H   H169      1.0  0.22431  0.68076  0.44163  1.0000
  H   H170      1.0  0.21283  0.64501  0.44205  1.0000
  H   H171      1.0  0.21569  0.73179  0.42947  1.0000
  H   H172      1.0  0.19739  0.74972  0.43322  1.0000
  H   H173      1.0  0.24187  0.79548  0.26825  1.0000
  H   H174      1.0  0.25948  0.77695  0.25929  1.0000
  H   H175      1.0  0.28034  0.76743  0.34418  1.0000
  H   H176      1.0  0.27991  0.71219  0.32101  1.0000
  H   H177      1.0  0.22456  0.71190  0.33259  1.0000
  C   C305      1.0  0.74710  0.45741  0.33023  1.0000
  C   C306      1.0  0.75760  0.47881  0.33946  1.0000
  C   C307      1.0  0.74718  0.49005  0.34051  1.0000
  C   C308      1.0  0.72557  0.47891  0.33474  1.0000
  C   C309      1.0  0.71464  0.45747  0.32647  1.0000
  C   C310      1.0  0.72567  0.44705  0.32512  1.0000
  C   C311      1.0  0.75817  0.51196  0.34456  1.0000
  C   C312      1.0  0.77682  0.52363  0.29808  1.0000
  C   C313      1.0  0.78768  0.54505  0.30214  1.0000
  C   C314      1.0  0.78032  0.55579  0.35272  1.0000
  C   C315      1.0  0.76145  0.54431  0.39711  1.0000
  C   C316      1.0  0.75073  0.52287  0.39386  1.0000
  C   C317      1.0  0.75717  0.44587  0.32386  1.0000
  C   C318      1.0  0.76881  0.44493  0.39573  1.0000
  C   C319      1.0  0.77522  0.43039  0.39585  1.0000
  C   C320      1.0  0.77045  0.41660  0.32370  1.0000
  C   C321      1.0  0.75943  0.41812  0.25057  1.0000
  C   C322      1.0  0.75296  0.43253  0.25052  1.0000
  C   C323      1.0  0.69303  0.44594  0.31888  1.0000
  C   C324      1.0  0.68399  0.43164  0.24864  1.0000
  C   C325      1.0  0.66311  0.41723  0.24962  1.0000
  C   C326      1.0  0.65045  0.41685  0.32001  1.0000
  C   C327      1.0  0.65933  0.43156  0.38885  1.0000
  C   C328      1.0  0.68032  0.44601  0.38805  1.0000
  H   H178      1.0  0.78279  0.42944  0.45073  1.0000
  H   H179      1.0  0.77145  0.45382  0.45129  1.0000
  H   H180      1.0  0.75490  0.40791  0.19882  1.0000
  H   H181      1.0  0.74416  0.43245  0.19830  1.0000
  H   H182      1.0  0.69278  0.43082  0.19859  1.0000
  H   H183      1.0  0.65743  0.40637  0.20042  1.0000
  H   H184      1.0  0.68646  0.45561  0.44162  1.0000
  H   H185      1.0  0.65072  0.43133  0.44207  1.0000
  H   H186      1.0  0.73748  0.51527  0.42950  1.0000
  H   H187      1.0  0.75542  0.55151  0.43323  1.0000
  H   H188      1.0  0.80117  0.55278  0.26825  1.0000
  H   H189      1.0  0.78265  0.51664  0.25930  1.0000
  H   H190      1.0  0.77314  0.48628  0.34422  1.0000
  H   H191      1.0  0.71789  0.43146  0.32099  1.0000
  H   H192      1.0  0.71760  0.48651  0.33260  1.0000
  C   C329      1.0  0.53524  0.27749  0.33025  1.0000
  C   C330      1.0  0.51383  0.26658  0.33950  1.0000
  C   C331      1.0  0.50260  0.24493  0.34052  1.0000
  C   C332      1.0  0.51373  0.23445  0.33474  1.0000
  C   C333      1.0  0.53517  0.24496  0.32647  1.0000
  C   C334      1.0  0.54560  0.26642  0.32511  1.0000
  C   C335      1.0  0.48069  0.23401  0.34458  1.0000
  C   C336      1.0  0.46902  0.24098  0.29815  1.0000
  C   C337      1.0  0.44759  0.23041  0.30219  1.0000
  C   C338      1.0  0.43685  0.21232  0.35276  1.0000
  C   C339      1.0  0.44834  0.20492  0.39710  1.0000
  C   C340      1.0  0.46979  0.21566  0.39389  1.0000
  C   C341      1.0  0.54678  0.29910  0.32389  1.0000
  C   C342      1.0  0.54770  0.31167  0.39576  1.0000
  C   C343      1.0  0.56225  0.33262  0.39588  1.0000
  C   C344      1.0  0.57602  0.34165  0.32366  1.0000
  C   C345      1.0  0.57451  0.32910  0.25055  1.0000
  C   C346      1.0  0.56009  0.30822  0.25047  1.0000
  C   C347      1.0  0.54671  0.23489  0.31888  1.0000
  C   C348      1.0  0.56103  0.24017  0.24870  1.0000
  C   C349      1.0  0.57540  0.23366  0.24952  1.0000
  C   C350      1.0  0.57581  0.22140  0.31998  1.0000
  C   C351      1.0  0.56110  0.21558  0.38887  1.0000
  C   C352      1.0  0.54666  0.22213  0.38809  1.0000
  H   H193      1.0  0.56319  0.34114  0.45072  1.0000
  H   H194      1.0  0.53882  0.30542  0.45134  1.0000
  H   H195      1.0  0.58471  0.33478  0.19881  1.0000
  H   H196      1.0  0.56019  0.29950  0.19832  1.0000
  H   H197      1.0  0.56182  0.24975  0.19854  1.0000
  H   H198      1.0  0.58628  0.23886  0.20038  1.0000
  H   H199      1.0  0.53703  0.21865  0.44157  1.0000
  H   H200      1.0  0.56132  0.20719  0.44205  1.0000
  H   H201      1.0  0.47738  0.21000  0.42947  1.0000
  H   H202      1.0  0.44114  0.19170  0.43322  1.0000
  H   H203      1.0  0.43986  0.23618  0.26831  1.0000
  H   H204      1.0  0.47600  0.25379  0.25934  1.0000
  H   H205      1.0  0.50637  0.27465  0.34425  1.0000
  H   H206      1.0  0.56119  0.27424  0.32099  1.0000
  H   H207      1.0  0.50614  0.21888  0.33259  1.0000
  C   C353      1.0  0.71517  0.24553  0.33021  1.0000
  C   C354      1.0  0.72608  0.23504  0.33947  1.0000
  C   C355      1.0  0.74773  0.24546  0.34050  1.0000
  C   C356      1.0  0.75820  0.26708  0.33474  1.0000
  C   C357      1.0  0.74769  0.27800  0.32649  1.0000
  C   C358      1.0  0.72623  0.26695  0.32513  1.0000
  C   C359      1.0  0.75866  0.23448  0.34454  1.0000
  C   C360      1.0  0.75168  0.21583  0.29810  1.0000
  C   C361      1.0  0.76226  0.20498  0.30214  1.0000
  C   C362      1.0  0.78035  0.21234  0.35271  1.0000
  C   C363      1.0  0.78774  0.23122  0.39707  1.0000
  C   C364      1.0  0.77700  0.24192  0.39385  1.0000
  C   C365      1.0  0.69356  0.23545  0.32390  1.0000
  C   C366      1.0  0.68099  0.22386  0.39586  1.0000
  C   C367      1.0  0.66003  0.21744  0.39594  1.0000
  C   C368      1.0  0.65102  0.22219  0.32371  1.0000
  C   C369      1.0  0.66356  0.23319  0.25052  1.0000
  C   C370      1.0  0.68444  0.23965  0.25048  1.0000
  C   C371      1.0  0.75776  0.29961  0.31895  1.0000
  C   C372      1.0  0.75246  0.30865  0.24883  1.0000
  C   C373      1.0  0.75896  0.32954  0.24974  1.0000
  C   C374      1.0  0.77125  0.34219  0.32013  1.0000
  C   C375      1.0  0.77707  0.33330  0.38898  1.0000
  C   C376      1.0  0.77054  0.31232  0.38811  1.0000
  H   H208      1.0  0.65150  0.20986  0.45076  1.0000
  H   H209      1.0  0.68722  0.22118  0.45134  1.0000
  H   H210      1.0  0.65789  0.23775  0.19883  1.0000
  H   H211      1.0  0.69316  0.24846  0.19831  1.0000
  H   H212      1.0  0.74288  0.29987  0.19867  1.0000
  H   H213      1.0  0.75379  0.33522  0.20054  1.0000
  H   H214      1.0  0.77402  0.30617  0.44160  1.0000
  H   H215      1.0  0.78549  0.34192  0.44210  1.0000
  H   H216      1.0  0.78267  0.25518  0.42943  1.0000
  H   H217      1.0  0.80097  0.23724  0.43318  1.0000
  H   H218      1.0  0.75649  0.19148  0.26827  1.0000
  H   H219      1.0  0.73887  0.21000  0.25930  1.0000
  H   H220      1.0  0.71801  0.21950  0.34421  1.0000
  H   H221      1.0  0.71841  0.27473  0.32103  1.0000
  H   H222      1.0  0.77377  0.27505  0.33260  1.0000
  C   C377      1.0  0.20692  0.40938  0.35688  1.0000
  C   C378      1.0  0.20052  0.39824  0.43883  1.0000
  C   C379      1.0  0.19017  0.37647  0.43667  1.0000
  C   C380      1.0  0.18848  0.37553  0.59690  1.0000
  C   C381      1.0  0.19781  0.39680  0.59948  1.0000
  N   N27       1.0  0.20341  0.40739  0.52118  1.0000
  H   H223      1.0  0.20946  0.42206  0.52579  1.0000
  C   C382      1.0  0.58327  0.78533  0.35688  1.0000
  C   C383      1.0  0.59441  0.79007  0.43882  1.0000
  C   C384      1.0  0.61618  0.80148  0.43665  1.0000
  C   C385      1.0  0.62713  0.80777  0.35463  1.0000
  N   N28       1.0  0.62633  0.80641  0.51611  1.0000
  C   C386      1.0  0.61712  0.80073  0.59688  1.0000
  C   C387      1.0  0.59586  0.78880  0.59948  1.0000
  N   N29       1.0  0.58527  0.78381  0.52119  1.0000
  H   H224      1.0  0.62561  0.80480  0.65419  1.0000
  H   H225      1.0  0.57060  0.77519  0.52580  1.0000
  C   C388      1.0  0.20732  0.78573  0.35688  1.0000
  C   C389      1.0  0.20259  0.79214  0.43883  1.0000
  C   C390      1.0  0.19117  0.80249  0.43668  1.0000
  C   C391      1.0  0.19193  0.80418  0.59691  1.0000
  C   C392      1.0  0.20386  0.79485  0.59948  1.0000
  N   N30       1.0  0.20885  0.78925  0.52119  1.0000
  H   H226      1.0  0.21747  0.78320  0.52579  1.0000
  C   C393      1.0  0.79143  0.57758  0.35688  1.0000
  C   C394      1.0  0.79783  0.58872  0.43883  1.0000
  C   C395      1.0  0.80819  0.61049  0.43667  1.0000
  C   C396      1.0  0.81283  0.62144  0.35466  1.0000
  N   N31       1.0  0.81341  0.62064  0.51614  1.0000
  C   C397      1.0  0.80988  0.61143  0.59690  1.0000
  C   C398      1.0  0.80055  0.59017  0.59948  1.0000
  N   N32       1.0  0.79495  0.57958  0.52118  1.0000
  H   H227      1.0  0.81431  0.61991  0.65421  1.0000
  H   H228      1.0  0.78890  0.56490  0.52579  1.0000
  C   C399      1.0  0.41507  0.20163  0.35691  1.0000
  C   C400      1.0  0.40392  0.19689  0.43885  1.0000
  C   C401      1.0  0.38216  0.18547  0.43669  1.0000
  C   C402      1.0  0.37121  0.17918  0.35467  1.0000
  N   N33       1.0  0.37200  0.18053  0.51616  1.0000
  C   C403      1.0  0.38121  0.18620  0.59693  1.0000
  C   C404      1.0  0.40248  0.19814  0.59951  1.0000
  N   N34       1.0  0.41307  0.20314  0.52122  1.0000
  H   H229      1.0  0.37273  0.18215  0.65423  1.0000
  H   H230      1.0  0.42774  0.21177  0.52583  1.0000
  C   C405      1.0  0.79104  0.20124  0.35688  1.0000
  C   C406      1.0  0.79578  0.19484  0.43883  1.0000
  C   C407      1.0  0.80719  0.18448  0.43666  1.0000
  C   C408      1.0  0.81349  0.17983  0.35465  1.0000
  N   N35       1.0  0.81213  0.17927  0.51613  1.0000
  C   C409      1.0  0.80646  0.18281  0.59690  1.0000
  C   C410      1.0  0.79453  0.19213  0.59948  1.0000
  N   N36       1.0  0.78953  0.19772  0.52118  1.0000
  H   H231      1.0  0.81052  0.17838  0.65421  1.0000
  H   H232      1.0  0.78090  0.20378  0.52579  1.0000
  C   C411      1.0  0.18973  0.19464  0.41202  1.0000
  C   C412      1.0  0.20064  0.18415  0.41049  1.0000
  H   H233      1.0  0.20288  0.17879  0.46984  1.0000
  C   C413      1.0  0.79801  0.98288  0.41203  1.0000
  C   C414      1.0  0.80849  0.00427  0.41049  1.0000
  H   H234      1.0  0.81386  0.01188  0.46984  1.0000
  H   H235      1.0  0.79612  0.97573  0.47235  1.0000
  C   C415      1.0  0.98837  0.79201  0.41046  1.0000
  H   H236      1.0  0.98077  0.78977  0.46981  1.0000
  C   C416      1.0  0.80861  0.79232  0.41204  1.0000
  C   C417      1.0  0.79771  0.80281  0.41049  1.0000
  H   H237      1.0  0.79546  0.80817  0.46985  1.0000
  H   H238      1.0  0.81387  0.79043  0.47235  1.0000
  C   C418      1.0  0.20032  0.00407  0.41201  1.0000
  C   C419      1.0  0.18984  0.98268  0.41048  1.0000
  H   H239      1.0  0.20222  0.01122  0.47233  1.0000
  C   C420      1.0  0.98858  0.18404  0.41200  1.0000
  H   H240      1.0  0.98143  0.17877  0.47232  1.0000
  C   C421      1.0  0.23162  0.60065  0.40000  1.0000
  C   C422      1.0  0.23126  0.61899  0.39887  1.0000
  H   H241      1.0  0.23843  0.62914  0.44986  1.0000
  H   H242      1.0  0.23899  0.59819  0.45175  1.0000
  C   C423      1.0  0.39202  0.61875  0.40000  1.0000
  C   C424      1.0  0.37368  0.60005  0.39889  1.0000
  H   H243      1.0  0.36354  0.59706  0.44989  1.0000
  H   H244      1.0  0.39447  0.62857  0.45177  1.0000
  C   C425      1.0  0.37389  0.76104  0.39999  1.0000
  C   C426      1.0  0.39259  0.76141  0.39893  1.0000
  H   H245      1.0  0.39557  0.75423  0.44988  1.0000
  H   H246      1.0  0.36407  0.75367  0.45173  1.0000
  C   C427      1.0  0.76672  0.38632  0.40006  1.0000
  C   C428      1.0  0.76708  0.36798  0.39901  1.0000
  H   H247      1.0  0.75991  0.35783  0.44997  1.0000
  H   H248      1.0  0.75936  0.38879  0.45180  1.0000
  C   C429      1.0  0.60632  0.36820  0.40001  1.0000
  C   C430      1.0  0.62467  0.38689  0.39894  1.0000
  H   H249      1.0  0.63482  0.38987  0.44991  1.0000
  H   H250      1.0  0.60385  0.35837  0.45177  1.0000
  C   C431      1.0  0.62446  0.22593  0.40003  1.0000
  C   C432      1.0  0.60579  0.22562  0.39882  1.0000
  H   H251      1.0  0.60279  0.23276  0.44989  1.0000
  H   H252      1.0  0.63429  0.23330  0.45177  1.0000
