data_image0
_chemical_formula_structural       CHCHCH4CH4CH4CH4CH4CH4C2H3CHC2H3CHC2H3CHC2H3CHC2H3CHC2H3CHC3HCH3NHC3HCH3NHC3HCH3NHC3HCH3NHC3HCH3NHC3HCH3NHC3HCH3NHC3HCH3NHC3HCH3NHC3HCH3NHC3HCH3NHC3HCH3NHC2HCH2NHC3HCH3NHC3HCH3NHC3HCH3NHC3HCH3NHC3HCH3NHC5H2CHCHCHC5H2CHCHCHC5H2CHCHCHC5H2CHCHCHC5H2CHCHCHC5H2CHCHCHC4H2CHCH2C4H2CHCH2C4H2CHCH2C4H2CHCH2C4H2CHCH2C4H2CHCH2C3HCH3NHC3HCH3NHC3HCH3NHC3HCH3NHC3HCH3NHC3HCH3NHC3HCH3NHC3HCH3NHC3HCH3NHC3HCH3NHC3HCH3NHC3HCH3NHC2HCH2NHC3HCH3NHC3HCH3NHC3HCH3NHC3HCH3NHC3HCH3NH
_chemical_formula_sum              "C252 H288 N36"
_cell_length_a       58.593
_cell_length_b       58.593
_cell_length_c       14.9914
_cell_angle_alpha    90
_cell_angle_beta     90
_cell_angle_gamma    120

_space_group_name_H-M_alt    "P 1"
_space_group_IT_number       1

loop_
  _space_group_symop_operation_xyz
  'x, y, z'

loop_
  _atom_site_type_symbol
  _atom_site_label
  _atom_site_symmetry_multiplicity
  _atom_site_fract_x
  _atom_site_fract_y
  _atom_site_fract_z
  _atom_site_occupancy
  C   C1        1.0  0.01646  0.39315  0.19422  1.0000
  H   H1        1.0  0.01597  0.38549  0.05329  1.0000
  C   C2        1.0  0.01473  0.40507  0.35099  1.0000
  H   H2        1.0  0.01353  0.42998  0.45133  1.0000
  C   C3        1.0  0.15285  0.48642  0.36233  1.0000
  H   H3        1.0  0.17087  0.50035  0.38613  1.0000
  H   H4        1.0  0.17547  0.45903  0.23004  1.0000
  H   H5        1.0  0.08021  0.42294  0.19269  1.0000
  H   H6        1.0  0.11570  0.51409  0.42225  1.0000
  C   C4        1.0  0.53278  0.68510  0.36108  1.0000
  H   H7        1.0  0.51885  0.68925  0.38449  1.0000
  H   H8        1.0  0.56045  0.73503  0.22838  1.0000
  H   H9        1.0  0.59629  0.67568  0.19273  1.0000
  H   H10       1.0  0.50494  0.62035  0.42191  1.0000
  C   C5        1.0  0.33439  0.86699  0.36176  1.0000
  H   H11       1.0  0.33027  0.84896  0.38557  1.0000
  H   H12       1.0  0.28443  0.84449  0.22896  1.0000
  H   H13       1.0  0.34378  0.93969  0.19190  1.0000
  H   H14       1.0  0.39919  0.90407  0.42207  1.0000
  C   C6        1.0  0.86036  0.53889  0.36108  1.0000
  H   H15       1.0  0.84228  0.52495  0.38447  1.0000
  H   H16       1.0  0.83811  0.56662  0.22864  1.0000
  H   H17       1.0  0.93330  0.60253  0.19308  1.0000
  H   H18       1.0  0.89729  0.51106  0.42182  1.0000
  C   C7        1.0  0.48029  0.34022  0.36228  1.0000
  H   H19       1.0  0.49424  0.33614  0.38602  1.0000
  H   H20       1.0  0.45285  0.29017  0.23020  1.0000
  H   H21       1.0  0.41670  0.34927  0.19294  1.0000
  H   H22       1.0  0.50796  0.40505  0.42210  1.0000
  C   C8        1.0  0.67935  0.15951  0.36164  1.0000
  H   H23       1.0  0.68346  0.17759  0.38495  1.0000
  H   H24       1.0  0.72934  0.18186  0.22954  1.0000
  H   H25       1.0  0.67020  0.08661  0.19380  1.0000
  H   H26       1.0  0.61457  0.12254  0.42209  1.0000
  C   C9        1.0  0.45970  0.10978  0.31096  1.0000
  C   C10       1.0  0.43639  0.11046  0.29317  1.0000
  H   H27       1.0  0.46184  0.09478  0.28511  1.0000
  H   H28       1.0  0.46887  0.19225  0.37485  1.0000
  H   H29       1.0  0.42419  0.08214  0.18929  1.0000
  C   C11       1.0  0.50527  0.12936  0.37751  1.0000
  H   H30       1.0  0.50486  0.11266  0.34317  1.0000
  C   C12       1.0  0.65054  0.55975  0.31199  1.0000
  C   C13       1.0  0.67455  0.58303  0.29398  1.0000
  H   H31       1.0  0.63338  0.55773  0.28694  1.0000
  H   H32       1.0  0.72393  0.55031  0.37244  1.0000
  H   H33       1.0  0.65849  0.59542  0.19062  1.0000
  C   C14       1.0  0.62457  0.51411  0.37802  1.0000
  H   H34       1.0  0.60826  0.51457  0.34402  1.0000
  C   C15       1.0  0.90996  0.36899  0.31099  1.0000
  C   C16       1.0  0.90932  0.34501  0.29322  1.0000
  H   H35       1.0  0.92498  0.38614  0.28533  1.0000
  H   H36       1.0  0.82745  0.29566  0.37449  1.0000
  H   H37       1.0  0.93779  0.36122  0.18987  1.0000
  C   C17       1.0  0.89031  0.39492  0.37742  1.0000
  H   H38       1.0  0.90701  0.41123  0.34316  1.0000
  C   C18       1.0  0.55376  0.91605  0.31222  1.0000
  C   C19       1.0  0.57708  0.91540  0.29419  1.0000
  H   H39       1.0  0.55178  0.93128  0.28772  1.0000
  H   H40       1.0  0.54430  0.83309  0.36998  1.0000
  H   H41       1.0  0.58962  0.94412  0.19176  1.0000
  C   C20       1.0  0.50805  0.89621  0.37778  1.0000
  H   H42       1.0  0.50846  0.91295  0.34369  1.0000
  C   C21       1.0  0.36277  0.46566  0.31128  1.0000
  C   C22       1.0  0.33879  0.44234  0.29332  1.0000
  H   H43       1.0  0.37994  0.46777  0.28589  1.0000
  H   H44       1.0  0.28936  0.47486  0.37323  1.0000
  H   H45       1.0  0.35504  0.43007  0.19018  1.0000
  C   C23       1.0  0.38866  0.51126  0.37762  1.0000
  H   H46       1.0  0.40499  0.51085  0.34359  1.0000
  C   C24       1.0  0.10368  0.65673  0.31223  1.0000
  C   C25       1.0  0.10437  0.68072  0.29407  1.0000
  H   H47       1.0  0.08847  0.63953  0.28758  1.0000
  H   H48       1.0  0.18659  0.73025  0.37087  1.0000
  H   H49       1.0  0.07580  0.66457  0.19117  1.0000
  C   C26       1.0  0.12343  0.63082  0.37812  1.0000
  H   H50       1.0  0.10664  0.61449  0.34433  1.0000
  C   C27       1.0  0.22899  0.42719  0.30331  1.0000
  C   C28       1.0  0.20548  0.42787  0.28887  1.0000
  C   C29       1.0  0.19534  0.43667  0.35927  1.0000
  H   H51       1.0  0.23668  0.42113  0.25342  1.0000
  C   C30       1.0  0.19200  0.41887  0.20109  1.0000
  H   H52       1.0  0.20126  0.41076  0.15811  1.0000
  H   H53       1.0  0.19254  0.43532  0.16546  1.0000
  H   H54       1.0  0.17155  0.40345  0.21058  1.0000
  N   N1        1.0  0.17183  0.43788  0.35007  1.0000
  H   H55       1.0  0.15651  0.42030  0.32809  1.0000
  C   C31       1.0  0.59212  0.82038  0.30199  1.0000
  C   C32       1.0  0.59150  0.79623  0.28766  1.0000
  C   C33       1.0  0.58258  0.77724  0.35792  1.0000
  H   H56       1.0  0.59828  0.83417  0.25220  1.0000
  C   C34       1.0  0.60072  0.79182  0.20017  1.0000
  H   H57       1.0  0.60886  0.80921  0.15726  1.0000
  H   H58       1.0  0.58438  0.77590  0.16425  1.0000
  H   H59       1.0  0.61617  0.78686  0.21017  1.0000
  N   N2        1.0  0.58138  0.75252  0.34877  1.0000
  H   H60       1.0  0.59900  0.75479  0.32713  1.0000
  C   C35       1.0  0.19914  0.79075  0.30275  1.0000
  C   C36       1.0  0.22326  0.81433  0.28836  1.0000
  C   C37       1.0  0.24227  0.82442  0.35855  1.0000
  H   H61       1.0  0.18533  0.78309  0.25301  1.0000
  C   C38       1.0  0.22760  0.82795  0.20091  1.0000
  H   H62       1.0  0.21021  0.81866  0.15802  1.0000
  H   H63       1.0  0.24356  0.82761  0.16493  1.0000
  H   H64       1.0  0.23249  0.84834  0.21095  1.0000
  N   N3        1.0  0.26695  0.84798  0.34932  1.0000
  H   H65       1.0  0.26465  0.86329  0.32762  1.0000
  C   C39       1.0  0.78432  0.59814  0.30316  1.0000
  C   C40       1.0  0.80785  0.59752  0.28849  1.0000
  C   C41       1.0  0.81801  0.58866  0.35861  1.0000
  H   H66       1.0  0.77662  0.60426  0.25348  1.0000
  C   C42       1.0  0.82134  0.60667  0.20077  1.0000
  H   H67       1.0  0.81206  0.61481  0.15804  1.0000
  H   H68       1.0  0.82084  0.59029  0.16483  1.0000
  H   H69       1.0  0.84178  0.62210  0.21041  1.0000
  N   N4        1.0  0.84154  0.58749  0.34915  1.0000
  H   H70       1.0  0.85685  0.60512  0.32743  1.0000
  C   C43       1.0  0.42117  0.20485  0.30426  1.0000
  C   C44       1.0  0.42184  0.22901  0.28957  1.0000
  C   C45       1.0  0.43062  0.24800  0.35983  1.0000
  H   H71       1.0  0.41513  0.19106  0.25449  1.0000
  C   C46       1.0  0.41285  0.23344  0.20167  1.0000
  H   H72       1.0  0.40474  0.21603  0.15886  1.0000
  H   H73       1.0  0.42931  0.24931  0.16597  1.0000
  H   H74       1.0  0.39744  0.23849  0.21098  1.0000
  N   N5        1.0  0.43179  0.27270  0.35041  1.0000
  H   H75       1.0  0.41419  0.27038  0.32845  1.0000
  C   C47       1.0  0.81474  0.23540  0.30341  1.0000
  C   C48       1.0  0.79053  0.21195  0.28871  1.0000
  C   C49       1.0  0.77158  0.20175  0.35906  1.0000
  H   H76       1.0  0.82850  0.24314  0.25357  1.0000
  C   C50       1.0  0.78603  0.19859  0.20069  1.0000
  H   H77       1.0  0.80342  0.20784  0.15783  1.0000
  H   H78       1.0  0.77019  0.19929  0.16513  1.0000
  H   H79       1.0  0.78089  0.17809  0.20979  1.0000
  N   N6        1.0  0.74684  0.17828  0.34965  1.0000
  H   H80       1.0  0.74910  0.16296  0.32763  1.0000
  C   C51       1.0  0.14824  0.60809  0.35361  1.0000
  C   C52       1.0  0.14005  0.56628  0.28705  1.0000
  C   C53       1.0  0.13868  0.58965  0.28338  1.0000
  H   H81       1.0  0.13126  0.59379  0.22773  1.0000
  C   C54       1.0  0.13040  0.54866  0.20766  1.0000
  H   H82       1.0  0.13186  0.53092  0.21469  1.0000
  H   H83       1.0  0.14186  0.55930  0.14909  1.0000
  H   H84       1.0  0.10973  0.54247  0.19566  1.0000
  N   N7        1.0  0.14832  0.63225  0.34837  1.0000
  H   H85       1.0  0.15332  0.63980  0.28488  1.0000
  C   C55       1.0  0.41116  0.55878  0.35279  1.0000
  C   C56       1.0  0.45308  0.59223  0.28640  1.0000
  C   C57       1.0  0.42975  0.56744  0.28306  1.0000
  H   H86       1.0  0.42577  0.55569  0.22802  1.0000
  C   C58       1.0  0.47089  0.59995  0.20757  1.0000
  H   H87       1.0  0.48857  0.61921  0.21429  1.0000
  H   H88       1.0  0.46037  0.60050  0.14825  1.0000
  H   H89       1.0  0.47718  0.58548  0.19709  1.0000
  N   N8        1.0  0.38707  0.53463  0.34789  1.0000
  H   H90       1.0  0.37947  0.53204  0.28448  1.0000
  C   C59       1.0  0.46049  0.87134  0.35376  1.0000
  C   C60       1.0  0.42677  0.87933  0.28700  1.0000
  C   C61       1.0  0.45149  0.88068  0.28322  1.0000
  H   H91       1.0  0.46295  0.88792  0.22729  1.0000
  C   C62       1.0  0.41866  0.88873  0.20729  1.0000
  H   H92       1.0  0.39948  0.88731  0.21442  1.0000
  H   H93       1.0  0.41773  0.87708  0.14913  1.0000
  H   H94       1.0  0.43313  0.90937  0.19451  1.0000
  N   N9        1.0  0.48458  0.87127  0.34849  1.0000
  H   H95       1.0  0.48707  0.86617  0.28510  1.0000
  C   C63       1.0  0.86521  0.41734  0.35269  1.0000
  C   C64       1.0  0.87370  0.45926  0.28631  1.0000
  C   C65       1.0  0.87520  0.43596  0.28306  1.0000
  H   H96       1.0  0.88305  0.43201  0.22813  1.0000
  C   C66       1.0  0.88386  0.47711  0.20759  1.0000
  H   H97       1.0  0.88225  0.49477  0.21423  1.0000
  H   H98       1.0  0.87287  0.46661  0.14812  1.0000
  H   H99       1.0  0.90465  0.48344  0.19741  1.0000
  N   N10       1.0  0.86531  0.39327  0.34787  1.0000
  H   H100      1.0  0.86026  0.38564  0.28450  1.0000
  C   C67       1.0  0.60191  0.46657  0.35345  1.0000
  C   C68       1.0  0.56008  0.43300  0.28691  1.0000
  C   C69       1.0  0.58343  0.45776  0.28335  1.0000
  H   H101      1.0  0.58753  0.46936  0.22785  1.0000
  C   C70       1.0  0.54241  0.42508  0.20765  1.0000
  H   H102      1.0  0.52469  0.40587  0.21459  1.0000
  H   H103      1.0  0.55303  0.42434  0.14889  1.0000
  H   H104      1.0  0.53619  0.43957  0.19605  1.0000
  N   N11       1.0  0.62605  0.49067  0.34833  1.0000
  H   H105      1.0  0.63362  0.49323  0.28488  1.0000
  C   C71       1.0  0.55280  0.15446  0.35280  1.0000
  C   C72       1.0  0.58615  0.14583  0.28656  1.0000
  C   C73       1.0  0.56134  0.14431  0.28341  1.0000
  H   H106      1.0  0.54947  0.13634  0.22871  1.0000
  C   C74       1.0  0.59374  0.13549  0.20807  1.0000
  H   H107      1.0  0.61303  0.13714  0.21462  1.0000
  H   H108      1.0  0.59414  0.14634  0.14832  1.0000
  H   H109      1.0  0.57928  0.11468  0.19847  1.0000
  N   N12       1.0  0.52863  0.15436  0.34803  1.0000
  H   H110      1.0  0.52606  0.15943  0.28468  1.0000
  C   C75       1.0  0.99061  0.37152  0.20361  1.0000
  C   C76       1.0  0.02886  0.40981  0.26932  1.0000
  H   H111      1.0  0.98159  0.35904  0.15106  1.0000
  C   C77       1.0  0.02958  0.39758  0.10585  1.0000
  H   H112      1.0  0.04512  0.39256  0.10934  1.0000
  H   H113      1.0  0.03798  0.41811  0.08551  1.0000
  N   N13       1.0  0.05490  0.43180  0.26582  1.0000
  H   H114      1.0  0.05655  0.44501  0.21776  1.0000
  C   C78       1.0  0.64767  0.63758  0.20510  1.0000
  C   C79       1.0  0.62602  0.64174  0.19513  1.0000
  C   C80       1.0  0.60914  0.63731  0.26973  1.0000
  H   H115      1.0  0.66031  0.64120  0.15298  1.0000
  C   C81       1.0  0.62183  0.65061  0.10671  1.0000
  H   H116      1.0  0.63398  0.64908  0.05442  1.0000
  H   H117      1.0  0.62696  0.67120  0.11042  1.0000
  H   H118      1.0  0.60133  0.63860  0.08588  1.0000
  N   N14       1.0  0.58721  0.64144  0.26580  1.0000
  H   H119      1.0  0.57408  0.62995  0.21742  1.0000
  C   C82       1.0  0.38191  0.02924  0.20275  1.0000
  C   C83       1.0  0.37777  0.00343  0.19348  1.0000
  C   C84       1.0  0.38191  0.99101  0.26881  1.0000
  H   H120      1.0  0.37852  0.03826  0.15003  1.0000
  C   C85       1.0  0.36928  0.99033  0.10498  1.0000
  H   H121      1.0  0.37088  0.00395  0.05234  1.0000
  H   H122      1.0  0.34872  0.97477  0.10802  1.0000
  H   H123      1.0  0.38147  0.98197  0.08507  1.0000
  N   N15       1.0  0.37787  0.96498  0.26548  1.0000
  H   H124      1.0  0.38950  0.96333  0.21768  1.0000
  C   C86       1.0  0.02282  0.65387  0.20593  1.0000
  C   C87       1.0  0.99700  0.63228  0.19573  1.0000
  C   C88       1.0  0.98453  0.61527  0.27003  1.0000
  H   H125      1.0  0.03187  0.66661  0.15402  1.0000
  C   C89       1.0  0.98395  0.62827  0.10737  1.0000
  H   H126      1.0  0.99764  0.64049  0.05522  1.0000
  H   H127      1.0  0.96852  0.63343  0.11142  1.0000
  H   H128      1.0  0.97543  0.60780  0.08611  1.0000
  N   N16       1.0  0.95845  0.59337  0.26585  1.0000
  H   H129      1.0  0.95681  0.58030  0.21722  1.0000
  C   C90       1.0  0.36531  0.38750  0.20408  1.0000
  C   C91       1.0  0.38692  0.38325  0.19454  1.0000
  C   C92       1.0  0.40366  0.38758  0.26947  1.0000
  H   H130      1.0  0.35279  0.38400  0.15166  1.0000
  C   C93       1.0  0.39125  0.37446  0.10620  1.0000
  H   H131      1.0  0.37911  0.37593  0.05374  1.0000
  H   H132      1.0  0.38622  0.35390  0.10990  1.0000
  H   H133      1.0  0.41176  0.38655  0.08560  1.0000
  N   N17       1.0  0.42563  0.38350  0.26582  1.0000
  H   H134      1.0  0.43880  0.39502  0.21759  1.0000
  C   C94       1.0  0.63203  0.99705  0.20705  1.0000
  C   C95       1.0  0.63633  0.02289  0.19666  1.0000
  C   C96       1.0  0.63165  0.03536  0.27067  1.0000
  H   H135      1.0  0.63581  0.98800  0.15535  1.0000
  C   C97       1.0  0.64557  0.03596  0.10843  1.0000
  H   H136      1.0  0.64419  0.02228  0.05639  1.0000
  H   H137      1.0  0.66617  0.05136  0.11294  1.0000
  H   H138      1.0  0.63371  0.04453  0.08671  1.0000
  N   N18       1.0  0.63584  0.06144  0.26625  1.0000
  H   H139      1.0  0.62446  0.06306  0.21738  1.0000
  C   C98       1.0  0.15044  0.46401  0.31832  1.0000
  C   C99       1.0  0.13105  0.49032  0.37259  1.0000
  C   C100      1.0  0.10625  0.47084  0.33951  1.0000
  C   C101      1.0  0.10300  0.44790  0.29649  1.0000
  C   C102      1.0  0.12538  0.44494  0.28632  1.0000
  H   H140      1.0  0.09039  0.47349  0.34706  1.0000
  H   H141      1.0  0.12345  0.42872  0.25364  1.0000
  C   C103      1.0  0.17384  0.46097  0.30179  1.0000
  H   H142      1.0  0.19184  0.47871  0.32298  1.0000
  C   C104      1.0  0.07724  0.42656  0.26198  1.0000
  H   H143      1.0  0.07223  0.40877  0.30041  1.0000
  C   C105      1.0  0.13462  0.51471  0.41632  1.0000
  H   H144      1.0  0.14213  0.51576  0.48378  1.0000
  C   C106      1.0  0.55524  0.70503  0.31705  1.0000
  C   C107      1.0  0.52881  0.65940  0.37177  1.0000
  C   C108      1.0  0.54826  0.65397  0.33909  1.0000
  C   C109      1.0  0.57125  0.67358  0.29612  1.0000
  C   C110      1.0  0.57429  0.69895  0.28556  1.0000
  H   H145      1.0  0.54555  0.63545  0.34689  1.0000
  H   H146      1.0  0.59056  0.71319  0.25293  1.0000
  C   C111      1.0  0.55836  0.73148  0.30011  1.0000
  H   H147      1.0  0.54059  0.73177  0.32074  1.0000
  C   C112      1.0  0.59256  0.66907  0.26199  1.0000
  H   H148      1.0  0.61032  0.68178  0.30063  1.0000
  C   C113      1.0  0.50434  0.63865  0.41536  1.0000
  H   H149      1.0  0.50319  0.64520  0.48256  1.0000
  C   C114      1.0  0.31445  0.86942  0.31741  1.0000
  C   C115      1.0  0.36009  0.88877  0.37223  1.0000
  C   C116      1.0  0.36547  0.91359  0.33909  1.0000
  C   C117      1.0  0.34583  0.91686  0.29583  1.0000
  C   C118      1.0  0.32049  0.89450  0.28543  1.0000
  H   H150      1.0  0.38397  0.92943  0.34683  1.0000
  H   H151      1.0  0.30622  0.89644  0.25262  1.0000
  C   C119      1.0  0.28802  0.84604  0.30069  1.0000
  H   H152      1.0  0.28779  0.82802  0.32150  1.0000
  C   C120      1.0  0.35029  0.94264  0.26128  1.0000
  H   H153      1.0  0.33747  0.94764  0.29948  1.0000
  C   C121      1.0  0.38086  0.88518  0.41632  1.0000
  H   H154      1.0  0.37436  0.87777  0.48385  1.0000
  C   C122      1.0  0.86289  0.56137  0.31722  1.0000
  C   C123      1.0  0.88210  0.53492  0.37172  1.0000
  C   C124      1.0  0.90698  0.55439  0.33912  1.0000
  C   C125      1.0  0.91035  0.57740  0.29627  1.0000
  C   C126      1.0  0.88803  0.58044  0.28579  1.0000
  H   H155      1.0  0.92279  0.55168  0.34687  1.0000
  H   H156      1.0  0.89005  0.59673  0.25330  1.0000
  C   C127      1.0  0.83957  0.56450  0.30035  1.0000
  H   H157      1.0  0.82150  0.54671  0.32091  1.0000
  C   C128      1.0  0.93619  0.59874  0.26226  1.0000
  H   H158      1.0  0.94124  0.61646  0.30113  1.0000
  C   C129      1.0  0.87839  0.51045  0.41520  1.0000
  H   H159      1.0  0.87065  0.50925  0.48238  1.0000
  C   C130      1.0  0.45787  0.32020  0.31840  1.0000
  C   C131      1.0  0.48419  0.36591  0.37250  1.0000
  C   C132      1.0  0.46469  0.37122  0.33948  1.0000
  C   C133      1.0  0.44174  0.35151  0.29659  1.0000
  C   C134      1.0  0.43878  0.32617  0.28649  1.0000
  H   H160      1.0  0.46734  0.38972  0.34699  1.0000
  H   H161      1.0  0.42254  0.31186  0.25392  1.0000
  C   C135      1.0  0.45484  0.29376  0.30192  1.0000
  H   H162      1.0  0.47261  0.29353  0.32298  1.0000
  C   C136      1.0  0.42037  0.35591  0.26217  1.0000
  H   H163      1.0  0.40261  0.34317  0.30075  1.0000
  C   C137      1.0  0.50860  0.38676  0.41609  1.0000
  H   H164      1.0  0.50970  0.38031  0.48350  1.0000
  C   C138      1.0  0.69933  0.15699  0.31798  1.0000
  C   C139      1.0  0.65364  0.13776  0.37209  1.0000
  C   C140      1.0  0.64826  0.11289  0.33954  1.0000
  C   C141      1.0  0.66793  0.10953  0.29688  1.0000
  C   C142      1.0  0.69329  0.13186  0.28654  1.0000
  H   H165      1.0  0.62974  0.09707  0.34715  1.0000
  H   H166      1.0  0.70757  0.12985  0.25413  1.0000
  C   C143      1.0  0.72580  0.18032  0.30126  1.0000
  H   H167      1.0  0.72611  0.19837  0.32223  1.0000
  C   C144      1.0  0.66347  0.08370  0.26292  1.0000
  H   H168      1.0  0.67611  0.07865  0.30195  1.0000
  C   C145      1.0  0.63283  0.14145  0.41533  1.0000
  H   H169      1.0  0.63935  0.14927  0.48243  1.0000
  C   C146      1.0  0.45398  0.15163  0.38004  1.0000
  C   C147      1.0  0.47698  0.15019  0.39704  1.0000
  C   C148      1.0  0.48025  0.12956  0.36248  1.0000
  C   C149      1.0  0.43373  0.13138  0.32849  1.0000
  H   H170      1.0  0.41711  0.13216  0.31372  1.0000
  H   H171      1.0  0.49201  0.16491  0.43291  1.0000
  C   C150      1.0  0.45315  0.17543  0.41062  1.0000
  H   H172      1.0  0.45783  0.17840  0.48187  1.0000
  C   C151      1.0  0.41546  0.09000  0.23603  1.0000
  H   H173      1.0  0.40669  0.09900  0.19460  1.0000
  H   H174      1.0  0.50701  0.12682  0.44896  1.0000
  C   C152      1.0  0.69820  0.56518  0.37908  1.0000
  C   C153      1.0  0.67376  0.54221  0.39627  1.0000
  C   C154      1.0  0.64982  0.53908  0.36268  1.0000
  C   C155      1.0  0.69816  0.58554  0.32827  1.0000
  H   H175      1.0  0.71557  0.60216  0.31347  1.0000
  H   H176      1.0  0.67346  0.52712  0.43171  1.0000
  C   C156      1.0  0.72284  0.56593  0.40894  1.0000
  H   H177      1.0  0.72119  0.56107  0.48003  1.0000
  C   C157      1.0  0.67493  0.60411  0.23794  1.0000
  H   H178      1.0  0.69283  0.61329  0.19715  1.0000
  H   H179      1.0  0.62039  0.51239  0.44954  1.0000
  C   C158      1.0  0.86807  0.32137  0.37964  1.0000
  C   C159      1.0  0.86948  0.34579  0.39667  1.0000
  C   C160      1.0  0.89013  0.36971  0.36235  1.0000
  C   C161      1.0  0.88839  0.32142  0.32838  1.0000
  H   H180      1.0  0.88763  0.30402  0.31362  1.0000
  H   H181      1.0  0.85474  0.34609  0.43251  1.0000
  C   C162      1.0  0.84428  0.29674  0.41013  1.0000
  H   H182      1.0  0.84132  0.29840  0.48142  1.0000
  C   C163      1.0  0.92987  0.34459  0.23644  1.0000
  H   H183      1.0  0.92094  0.32686  0.19484  1.0000
  H   H184      1.0  0.89282  0.39919  0.44889  1.0000
  C   C164      1.0  0.55914  0.87367  0.37795  1.0000
  C   C165      1.0  0.53614  0.87508  0.39521  1.0000
  C   C166      1.0  0.53303  0.89595  0.36223  1.0000
  C   C167      1.0  0.57956  0.89420  0.32777  1.0000
  H   H185      1.0  0.59620  0.89346  0.31291  1.0000
  H   H186      1.0  0.52100  0.86018  0.43018  1.0000
  C   C168      1.0  0.55984  0.84970  0.40706  1.0000
  H   H187      1.0  0.55486  0.84629  0.47803  1.0000
  C   C169      1.0  0.59827  0.93633  0.23910  1.0000
  H   H188      1.0  0.60769  0.92785  0.19834  1.0000
  H   H189      1.0  0.50641  0.89873  0.44932  1.0000
  C   C170      1.0  0.31510  0.45999  0.37922  1.0000
  C   C171      1.0  0.33951  0.48299  0.39639  1.0000
  C   C172      1.0  0.36345  0.48624  0.36239  1.0000
  C   C173      1.0  0.31517  0.43971  0.32806  1.0000
  H   H190      1.0  0.29778  0.42307  0.31323  1.0000
  H   H191      1.0  0.33978  0.49805  0.43201  1.0000
  C   C174      1.0  0.29044  0.45917  0.40931  1.0000
  H   H192      1.0  0.29208  0.46390  0.48051  1.0000
  C   C175      1.0  0.33842  0.42135  0.23679  1.0000
  H   H193      1.0  0.32068  0.41245  0.19523  1.0000
  H   H194      1.0  0.39287  0.51301  0.44914  1.0000
  C   C176      1.0  0.14601  0.70447  0.37836  1.0000
  C   C177      1.0  0.14458  0.68005  0.39567  1.0000
  C   C178      1.0  0.12371  0.65607  0.36257  1.0000
  C   C179      1.0  0.12554  0.70437  0.32787  1.0000
  H   H195      1.0  0.12630  0.72177  0.31299  1.0000
  H   H196      1.0  0.15943  0.67979  0.43089  1.0000
  C   C180      1.0  0.16994  0.72914  0.40779  1.0000
  H   H197      1.0  0.17328  0.72752  0.47879  1.0000
  C   C181      1.0  0.08355  0.68101  0.23849  1.0000
  H   H198      1.0  0.09213  0.69891  0.19771  1.0000
  H   H199      1.0  0.12102  0.62672  0.44970  1.0000
  C   C182      1.0  0.24234  0.43470  0.38531  1.0000
  C   C183      1.0  0.20846  0.44383  0.44327  1.0000
  C   C184      1.0  0.23182  0.44272  0.45499  1.0000
  H   H200      1.0  0.24150  0.44791  0.51491  1.0000
  C   C185      1.0  0.19911  0.45279  0.52094  1.0000
  H   H201      1.0  0.18100  0.45315  0.50793  1.0000
  H   H202      1.0  0.21422  0.47270  0.53985  1.0000
  H   H203      1.0  0.19544  0.43964  0.57747  1.0000
  N   N19       1.0  0.26581  0.43362  0.39425  1.0000
  H   H204      1.0  0.26348  0.42040  0.44337  1.0000
  C   C186      1.0  0.58441  0.82615  0.38375  1.0000
  C   C187      1.0  0.57521  0.78311  0.44168  1.0000
  C   C188      1.0  0.57625  0.80756  0.45330  1.0000
  H   H205      1.0  0.57092  0.81198  0.51305  1.0000
  C   C189      1.0  0.56608  0.76473  0.51916  1.0000
  H   H206      1.0  0.56579  0.74629  0.50626  1.0000
  H   H207      1.0  0.54611  0.75988  0.53748  1.0000
  H   H208      1.0  0.57908  0.77418  0.57606  1.0000
  N   N20       1.0  0.58545  0.85067  0.39262  1.0000
  H   H209      1.0  0.59855  0.86151  0.44211  1.0000
  C   C190      1.0  0.19343  0.77728  0.38449  1.0000
  C   C191      1.0  0.23645  0.81118  0.44230  1.0000
  C   C192      1.0  0.21204  0.78774  0.45397  1.0000
  H   H210      1.0  0.20766  0.77798  0.51372  1.0000
  C   C193      1.0  0.25485  0.82046  0.51972  1.0000
  H   H211      1.0  0.27326  0.83865  0.50678  1.0000
  H   H212      1.0  0.25976  0.80539  0.53797  1.0000
  H   H213      1.0  0.24539  0.82398  0.57668  1.0000
  N   N21       1.0  0.16893  0.75376  0.39343  1.0000
  H   H214      1.0  0.15808  0.75599  0.44292  1.0000
  C   C194      1.0  0.77096  0.59048  0.38511  1.0000
  C   C195      1.0  0.80487  0.58133  0.44255  1.0000
  C   C196      1.0  0.78148  0.58237  0.45451  1.0000
  H   H215      1.0  0.77179  0.57706  0.51439  1.0000
  C   C197      1.0  0.81423  0.57226  0.51991  1.0000
  H   H216      1.0  0.83237  0.57197  0.50674  1.0000
  H   H217      1.0  0.79914  0.55231  0.53847  1.0000
  H   H218      1.0  0.81785  0.58530  0.57674  1.0000
  N   N22       1.0  0.74748  0.59152  0.39432  1.0000
  H   H219      1.0  0.74978  0.60465  0.44375  1.0000
  C   C198      1.0  0.42868  0.19907  0.38637  1.0000
  C   C199      1.0  0.43779  0.24211  0.44393  1.0000
  C   C200      1.0  0.43670  0.21765  0.45589  1.0000
  H   H220      1.0  0.44190  0.21321  0.51588  1.0000
  C   C201      1.0  0.44674  0.26046  0.52145  1.0000
  H   H221      1.0  0.44708  0.27892  0.50825  1.0000
  H   H222      1.0  0.46665  0.26529  0.54044  1.0000
  H   H223      1.0  0.43359  0.25102  0.57800  1.0000
  N   N23       1.0  0.42761  0.17453  0.39557  1.0000
  H   H224      1.0  0.41439  0.16366  0.44471  1.0000
  C   C202      1.0  0.82059  0.24865  0.38561  1.0000
  C   C203      1.0  0.77753  0.21477  0.44325  1.0000
  C   C204      1.0  0.80203  0.23809  0.45522  1.0000
  H   H225      1.0  0.80652  0.24770  0.51527  1.0000
  C   C205      1.0  0.75921  0.20537  0.52086  1.0000
  H   H226      1.0  0.74071  0.18729  0.50764  1.0000
  H   H227      1.0  0.75445  0.22048  0.54008  1.0000
  H   H228      1.0  0.76865  0.20159  0.57726  1.0000
  N   N24       1.0  0.84515  0.27209  0.39479  1.0000
  H   H229      1.0  0.85602  0.26969  0.44381  1.0000
  C   C206      1.0  0.15886  0.60275  0.42954  1.0000
  C   C207      1.0  0.15998  0.57926  0.43689  1.0000
  C   C208      1.0  0.15065  0.56098  0.36460  1.0000
  H   H230      1.0  0.16579  0.61629  0.48015  1.0000
  C   C209      1.0  0.17126  0.57462  0.51918  1.0000
  H   H231      1.0  0.17865  0.59112  0.56582  1.0000
  H   H232      1.0  0.18768  0.57160  0.50238  1.0000
  H   H233      1.0  0.15615  0.55727  0.55383  1.0000
  N   N25       1.0  0.15326  0.53819  0.36364  1.0000
  H   H234      1.0  0.17253  0.54302  0.37253  1.0000
  C   C210      1.0  0.41628  0.57500  0.42786  1.0000
  C   C211      1.0  0.43972  0.59966  0.43492  1.0000
  C   C212      1.0  0.45817  0.60839  0.36313  1.0000
  H   H235      1.0  0.40263  0.56854  0.47811  1.0000
  C   C213      1.0  0.44413  0.61587  0.51632  1.0000
  H   H236      1.0  0.42754  0.60687  0.56263  1.0000
  H   H237      1.0  0.44711  0.63521  0.49831  1.0000
  H   H238      1.0  0.46143  0.61830  0.55184  1.0000
  N   N26       1.0  0.48097  0.63377  0.36196  1.0000
  H   H239      1.0  0.47617  0.64825  0.36994  1.0000
  C   C214      1.0  0.44466  0.86097  0.43011  1.0000
  C   C215      1.0  0.42007  0.85989  0.43756  1.0000
  C   C216      1.0  0.41100  0.86900  0.36496  1.0000
  H   H240      1.0  0.45136  0.85420  0.48096  1.0000
  C   C217      1.0  0.40429  0.84888  0.52028  1.0000
  H   H241      1.0  0.41347  0.84163  0.56716  1.0000
  H   H242      1.0  0.38482  0.83241  0.50411  1.0000
  H   H243      1.0  0.40212  0.86411  0.55438  1.0000
  N   N27       1.0  0.38561  0.86639  0.36416  1.0000
  H   H244      1.0  0.37119  0.84715  0.37364  1.0000
  C   C218      1.0  0.85400  0.42240  0.42757  1.0000
  C   C219      1.0  0.85274  0.44582  0.43455  1.0000
  C   C220      1.0  0.86253  0.46430  0.36287  1.0000
  H   H245      1.0  0.84676  0.40872  0.47775  1.0000
  C   C221      1.0  0.84082  0.45017  0.51577  1.0000
  H   H246      1.0  0.83318  0.43355  0.56200  1.0000
  H   H247      1.0  0.82446  0.45313  0.49749  1.0000
  H   H248      1.0  0.85563  0.46746  0.55148  1.0000
  N   N28       1.0  0.85994  0.48710  0.36164  1.0000
  H   H249      1.0  0.84065  0.48229  0.36944  1.0000
  C   C222      1.0  0.59663  0.45054  0.42915  1.0000
  C   C223      1.0  0.57316  0.42591  0.43640  1.0000
  C   C224      1.0  0.55483  0.41702  0.36424  1.0000
  H   H250      1.0  0.61020  0.45711  0.47966  1.0000
  C   C225      1.0  0.56858  0.40991  0.51845  1.0000
  H   H251      1.0  0.58511  0.41899  0.56499  1.0000
  H   H252      1.0  0.56557  0.39049  0.50132  1.0000
  H   H253      1.0  0.55125  0.40763  0.55336  1.0000
  N   N29       1.0  0.53205  0.39162  0.36319  1.0000
  H   H254      1.0  0.53688  0.37718  0.37183  1.0000
  C   C226      1.0  0.56917  0.16586  0.42734  1.0000
  C   C227      1.0  0.59387  0.16715  0.43422  1.0000
  C   C228      1.0  0.60247  0.15720  0.36277  1.0000
  H   H255      1.0  0.56280  0.17321  0.47735  1.0000
  C   C229      1.0  0.61025  0.17927  0.51507  1.0000
  H   H256      1.0  0.60132  0.18702  0.56112  1.0000
  H   H257      1.0  0.62953  0.19559  0.49632  1.0000
  H   H258      1.0  0.61279  0.16456  0.55118  1.0000
  N   N30       1.0  0.62786  0.15980  0.36141  1.0000
  H   H259      1.0  0.64236  0.17911  0.36875  1.0000
  C   C230      1.0  0.97655  0.36666  0.28412  1.0000
  C   C231      1.0  0.98871  0.38355  0.35688  1.0000
  H   H260      1.0  0.97841  0.37989  0.41539  1.0000
  C   C232      1.0  0.02577  0.42156  0.43245  1.0000
  H   H261      1.0  0.04585  0.43778  0.42400  1.0000
  H   H262      1.0  0.02586  0.40935  0.48735  1.0000
  N   N31       1.0  0.95071  0.34503  0.29450  1.0000
  H   H263      1.0  0.95124  0.32785  0.28768  1.0000
  C   C233      1.0  0.65230  0.62820  0.28562  1.0000
  C   C234      1.0  0.61365  0.62773  0.35139  1.0000
  C   C235      1.0  0.63516  0.62324  0.35781  1.0000
  H   H264      1.0  0.63867  0.61649  0.41634  1.0000
  C   C236      1.0  0.59692  0.62208  0.43233  1.0000
  H   H265      1.0  0.58070  0.62592  0.42348  1.0000
  H   H266      1.0  0.60896  0.63427  0.48769  1.0000
  H   H267      1.0  0.58848  0.60138  0.45074  1.0000
  N   N32       1.0  0.67399  0.62412  0.29670  1.0000
  H   H268      1.0  0.69112  0.64192  0.29127  1.0000
  C   C237      1.0  0.39092  0.04328  0.28338  1.0000
  C   C238      1.0  0.39112  0.00512  0.35059  1.0000
  C   C239      1.0  0.39556  0.03112  0.35638  1.0000
  H   H269      1.0  0.40205  0.04139  0.41498  1.0000
  C   C240      1.0  0.39644  0.99407  0.43229  1.0000
  H   H270      1.0  0.39265  0.97401  0.42391  1.0000
  H   H271      1.0  0.38401  0.99392  0.48685  1.0000
  H   H272      1.0  0.41706  0.00634  0.45164  1.0000
  N   N33       1.0  0.39499  0.06907  0.29369  1.0000
  H   H273      1.0  0.37726  0.06845  0.28638  1.0000
  C   C241      1.0  0.03683  0.65834  0.28636  1.0000
  C   C242      1.0  0.99861  0.61962  0.35163  1.0000
  C   C243      1.0  0.02463  0.64108  0.35827  1.0000
  H   H274      1.0  0.03489  0.64446  0.41675  1.0000
  C   C244      1.0  0.98750  0.60277  0.43229  1.0000
  H   H275      1.0  0.96742  0.58659  0.42329  1.0000
  H   H276      1.0  0.98738  0.61473  0.48796  1.0000
  H   H277      1.0  0.99971  0.59424  0.45030  1.0000
  N   N34       1.0  0.06263  0.67996  0.29770  1.0000
  H   H278      1.0  0.06201  0.69713  0.29302  1.0000
  C   C245      1.0  0.36056  0.39680  0.28454  1.0000
  C   C246      1.0  0.39901  0.39705  0.35110  1.0000
  C   C247      1.0  0.37752  0.40160  0.35714  1.0000
  H   H279      1.0  0.37394  0.40830  0.41561  1.0000
  C   C248      1.0  0.41558  0.40257  0.43239  1.0000
  H   H280      1.0  0.43178  0.39868  0.42385  1.0000
  H   H281      1.0  0.40342  0.39034  0.48748  1.0000
  H   H282      1.0  0.42405  0.42326  0.45102  1.0000
  N   N35       1.0  0.33895  0.40104  0.29510  1.0000
  H   H283      1.0  0.32176  0.38333  0.28874  1.0000
  C   C249      1.0  0.62228  0.98301  0.28733  1.0000
  C   C250      1.0  0.62174  0.02127  0.35215  1.0000
  C   C251      1.0  0.61711  0.99522  0.35894  1.0000
  H   H284      1.0  0.61009  0.98495  0.41733  1.0000
  C   C252      1.0  0.61586  0.03237  0.43251  1.0000
  H   H285      1.0  0.61983  0.05248  0.42342  1.0000
  H   H286      1.0  0.62780  0.03244  0.48854  1.0000
  H   H287      1.0  0.59507  0.02019  0.45003  1.0000
  N   N36       1.0  0.61800  0.95718  0.29882  1.0000
  H   H288      1.0  0.63577  0.95774  0.29485  1.0000
