data_image0
_chemical_formula_structural       CNC4H2CH3CNC4H2CH3CNC4H2CH3CNC4H2CH3C4HCNHCH3C4HCNHCH3C4HCNHCH3C4HCNHCH3C4HCNHCH3C4HCNHCH3C4HCNHCH3C4HCNHCH3CNC4H2CH3CNC4H2CH3CNC4H2CH3CNC4H2CH3CNC4H2CH3CNC4H2CH3CNC4H2CH3CNC4H2CH3C4HCNHCH3C4HCNHCH3C4HCNHCH3C4HCNHCH3C4HCNHCH3C4HCNHCH3C4HCNHCH3C4HCNHCH3C4HCNHCH3C4HCNHCH3CNCNCNCNCNCNCNCNCNCNCNCNCNCNCNCNCNCNCNCNCNCNCNCNCNCNCNCNCNCNCNCNCNCNCNCNCNCNCNCNCNCNCNCNCNCNCNCNCNCNCNCNCNCNCNCNCNCNCNCNC4HCNHCH3C4HCNHCH3C4HCNHCH3C4HCNHCH3CNC4H2CH3CNC4H2CH3CNC4H2CH3CNC4H2CH3CNC4H2CH3CNC4H2CH3CNC4H2CH3CNC4H2CH3C4HCNHCH3C4HCNHCH3C4HCNHCH3C4HCNHCH3C4HCNHCH3C4HCNHCH3C4HCNHCH3C4HCNHCH3CNC4H2CH3CNC4H2CH3CNC4H2CH3CNC4H2CH3CNC4H2CH3CNC4H2CH3CNC4H2CH3CNC4H2CH3CNC4H2CH3CNC4H2CH3
_chemical_formula_sum              "C420 N120 H300"
_cell_length_a       65.9095
_cell_length_b       65.9095
_cell_length_c       14.8452
_cell_angle_alpha    90
_cell_angle_beta     90
_cell_angle_gamma    90

_space_group_name_H-M_alt    "P 1"
_space_group_IT_number       1

loop_
  _space_group_symop_operation_xyz
  'x, y, z'

loop_
  _atom_site_type_symbol
  _atom_site_label
  _atom_site_symmetry_multiplicity
  _atom_site_fract_x
  _atom_site_fract_y
  _atom_site_fract_z
  _atom_site_occupancy
  C   C1        1.0  0.38415  0.06488  0.26762  1.0000
  N   N1        1.0  0.36419  0.06001  0.26819  1.0000
  C   C2        1.0  0.33314  0.04877  0.33134  1.0000
  C   C3        1.0  0.31896  0.06399  0.30582  1.0000
  C   C4        1.0  0.29818  0.05860  0.30343  1.0000
  C   C5        1.0  0.29135  0.03876  0.32430  1.0000
  H   H1        1.0  0.28779  0.06947  0.28628  1.0000
  H   H2        1.0  0.39040  0.07073  0.21020  1.0000
  C   C6        1.0  0.32510  0.08526  0.28597  1.0000
  H   H3        1.0  0.33378  0.09141  0.34231  1.0000
  H   H4        1.0  0.31211  0.09524  0.27476  1.0000
  H   H5        1.0  0.33443  0.08566  0.22533  1.0000
  C   C7        1.0  0.62890  0.93766  0.29857  1.0000
  N   N2        1.0  0.64869  0.94304  0.29972  1.0000
  C   C8        1.0  0.67808  0.96115  0.34561  1.0000
  C   C9        1.0  0.69273  0.94524  0.34574  1.0000
  C   C10       1.0  0.71349  0.95065  0.34122  1.0000
  C   C11       1.0  0.72003  0.97109  0.33647  1.0000
  H   H6        1.0  0.72411  0.93933  0.34239  1.0000
  H   H7        1.0  0.62447  0.92605  0.25739  1.0000
  C   C12       1.0  0.68723  0.92339  0.35427  1.0000
  H   H8        1.0  0.67722  0.92120  0.41205  1.0000
  H   H9        1.0  0.70044  0.91364  0.36397  1.0000
  H   H10       1.0  0.67955  0.91830  0.29328  1.0000
  C   C13       1.0  0.94552  0.38388  0.26795  1.0000
  N   N3        1.0  0.95042  0.36394  0.26849  1.0000
  C   C14       1.0  0.96175  0.33291  0.33150  1.0000
  C   C15       1.0  0.94653  0.31872  0.30611  1.0000
  C   C16       1.0  0.95193  0.29795  0.30367  1.0000
  C   C17       1.0  0.97178  0.29112  0.32437  1.0000
  H   H11       1.0  0.94105  0.28756  0.28661  1.0000
  H   H12       1.0  0.93959  0.39012  0.21064  1.0000
  C   C18       1.0  0.92525  0.32485  0.28644  1.0000
  H   H13       1.0  0.91912  0.33354  0.34281  1.0000
  H   H14       1.0  0.91527  0.31186  0.27540  1.0000
  H   H15       1.0  0.92481  0.33416  0.22575  1.0000
  C   C19       1.0  0.07284  0.62865  0.29853  1.0000
  N   N4        1.0  0.06748  0.64845  0.29968  1.0000
  C   C20       1.0  0.04939  0.67784  0.34553  1.0000
  C   C21       1.0  0.06531  0.69249  0.34569  1.0000
  C   C22       1.0  0.05990  0.71326  0.34116  1.0000
  C   C23       1.0  0.03945  0.71980  0.33637  1.0000
  H   H16       1.0  0.07122  0.72387  0.34236  1.0000
  H   H17       1.0  0.08445  0.62420  0.25736  1.0000
  C   C24       1.0  0.08714  0.68699  0.35426  1.0000
  H   H18       1.0  0.08933  0.67698  0.41205  1.0000
  H   H19       1.0  0.09690  0.70019  0.36394  1.0000
  H   H20       1.0  0.09224  0.67929  0.29329  1.0000
  C   C25       1.0  0.11280  0.56208  0.34434  1.0000
  C   C26       1.0  0.15437  0.55193  0.34209  1.0000
  C   C27       1.0  0.14152  0.54436  0.27255  1.0000
  C   C28       1.0  0.12063  0.54944  0.27594  1.0000
  H   H21       1.0  0.11110  0.54451  0.22603  1.0000
  C   C29       1.0  0.20253  0.52418  0.33967  1.0000
  N   N5        1.0  0.18267  0.52949  0.33770  1.0000
  H   H22       1.0  0.20620  0.50922  0.33185  1.0000
  C   C30       1.0  0.14942  0.53252  0.19479  1.0000
  H   H23       1.0  0.16177  0.54082  0.16240  1.0000
  H   H24       1.0  0.13783  0.52965  0.14383  1.0000
  H   H25       1.0  0.15505  0.51785  0.21783  1.0000
  C   C31       1.0  0.89788  0.44759  0.35218  1.0000
  C   C32       1.0  0.85643  0.45790  0.35396  1.0000
  C   C33       1.0  0.86830  0.46290  0.27687  1.0000
  C   C34       1.0  0.88917  0.45778  0.27811  1.0000
  H   H26       1.0  0.89803  0.46089  0.22313  1.0000
  C   C35       1.0  0.80839  0.48570  0.34653  1.0000
  N   N6        1.0  0.82824  0.48035  0.34485  1.0000
  H   H27       1.0  0.80467  0.50042  0.33252  1.0000
  C   C36       1.0  0.85935  0.47208  0.19438  1.0000
  H   H28       1.0  0.84666  0.46282  0.17087  1.0000
  H   H29       1.0  0.87026  0.47321  0.13929  1.0000
  H   H30       1.0  0.85391  0.48734  0.20907  1.0000
  C   C37       1.0  0.56237  0.89761  0.34442  1.0000
  C   C38       1.0  0.55225  0.85603  0.34209  1.0000
  C   C39       1.0  0.54446  0.86893  0.27322  1.0000
  C   C40       1.0  0.54953  0.88982  0.27666  1.0000
  H   H31       1.0  0.54445  0.89939  0.22719  1.0000
  C   C41       1.0  0.52450  0.80785  0.34021  1.0000
  N   N7        1.0  0.52980  0.82771  0.33821  1.0000
  H   H32       1.0  0.50953  0.80420  0.33286  1.0000
  C   C42       1.0  0.53239  0.86110  0.19602  1.0000
  H   H33       1.0  0.54058  0.84877  0.16299  1.0000
  H   H34       1.0  0.52938  0.87273  0.14540  1.0000
  H   H35       1.0  0.51779  0.85546  0.21982  1.0000
  C   C43       1.0  0.44787  0.11253  0.35214  1.0000
  C   C44       1.0  0.45820  0.15396  0.35400  1.0000
  C   C45       1.0  0.46297  0.14216  0.27642  1.0000
  C   C46       1.0  0.45784  0.12129  0.27761  1.0000
  H   H36       1.0  0.46078  0.11247  0.22230  1.0000
  C   C47       1.0  0.48600  0.20199  0.34618  1.0000
  N   N8        1.0  0.48065  0.18214  0.34451  1.0000
  H   H37       1.0  0.50070  0.20572  0.33181  1.0000
  C   C48       1.0  0.47192  0.15118  0.19359  1.0000
  H   H38       1.0  0.46259  0.16387  0.17077  1.0000
  H   H39       1.0  0.47292  0.14031  0.13828  1.0000
  H   H40       1.0  0.48722  0.15662  0.20756  1.0000
  C   C49       1.0  0.22316  0.06241  0.32083  1.0000
  C   C50       1.0  0.20466  0.10120  0.33716  1.0000
  C   C51       1.0  0.21893  0.09783  0.26696  1.0000
  C   C52       1.0  0.22799  0.07841  0.26073  1.0000
  H   H41       1.0  0.23896  0.07605  0.21294  1.0000
  C   C53       1.0  0.17255  0.14624  0.31289  1.0000
  N   N9        1.0  0.18013  0.12706  0.30975  1.0000
  H   H42       1.0  0.16012  0.14955  0.27443  1.0000
  C   C54       1.0  0.22508  0.11422  0.20359  1.0000
  H   H43       1.0  0.23195  0.12675  0.24071  1.0000
  H   H44       1.0  0.21180  0.11983  0.16757  1.0000
  H   H45       1.0  0.23608  0.10904  0.15358  1.0000
  C   C55       1.0  0.78832  0.94799  0.32531  1.0000
  C   C56       1.0  0.80651  0.90906  0.34034  1.0000
  C   C57       1.0  0.79245  0.91272  0.26961  1.0000
  C   C58       1.0  0.78352  0.93222  0.26402  1.0000
  H   H46       1.0  0.77264  0.93478  0.21606  1.0000
  C   C59       1.0  0.83829  0.86381  0.31544  1.0000
  N   N10       1.0  0.83086  0.88305  0.31271  1.0000
  H   H47       1.0  0.85077  0.86048  0.27734  1.0000
  C   C60       1.0  0.78631  0.89654  0.20517  1.0000
  H   H48       1.0  0.77926  0.88398  0.24137  1.0000
  H   H49       1.0  0.79964  0.89092  0.16948  1.0000
  H   H50       1.0  0.77547  0.90194  0.15491  1.0000
  C   C61       1.0  0.94806  0.22297  0.32098  1.0000
  C   C62       1.0  0.90924  0.20455  0.33732  1.0000
  C   C63       1.0  0.91263  0.21881  0.26713  1.0000
  C   C64       1.0  0.93207  0.22784  0.26089  1.0000
  H   H51       1.0  0.93445  0.23880  0.21311  1.0000
  C   C65       1.0  0.86416  0.17249  0.31305  1.0000
  N   N11       1.0  0.88334  0.18005  0.30991  1.0000
  H   H52       1.0  0.86083  0.16007  0.27463  1.0000
  C   C66       1.0  0.89625  0.22501  0.20380  1.0000
  H   H53       1.0  0.88374  0.23190  0.24095  1.0000
  H   H54       1.0  0.89061  0.21174  0.16777  1.0000
  H   H55       1.0  0.90145  0.23600  0.15380  1.0000
  C   C67       1.0  0.06247  0.78814  0.32523  1.0000
  C   C68       1.0  0.10138  0.80639  0.34022  1.0000
  C   C69       1.0  0.09772  0.79235  0.26940  1.0000
  C   C70       1.0  0.07824  0.78339  0.26387  1.0000
  H   H56       1.0  0.07568  0.77252  0.21583  1.0000
  C   C71       1.0  0.14658  0.83824  0.31540  1.0000
  N   N12       1.0  0.12736  0.83078  0.31266  1.0000
  H   H57       1.0  0.14989  0.85073  0.27736  1.0000
  C   C72       1.0  0.11389  0.78627  0.20481  1.0000
  H   H58       1.0  0.12648  0.77923  0.24089  1.0000
  H   H59       1.0  0.11948  0.79962  0.16921  1.0000
  H   H60       1.0  0.10850  0.77544  0.15451  1.0000
  C   C73       1.0  0.30385  0.56767  0.33400  1.0000
  N   N13       1.0  0.31220  0.58661  0.33262  1.0000
  C   C74       1.0  0.31395  0.62303  0.35852  1.0000
  C   C75       1.0  0.32457  0.62986  0.28019  1.0000
  C   C76       1.0  0.33224  0.65006  0.27875  1.0000
  C   C77       1.0  0.32914  0.66364  0.35115  1.0000
  H   H61       1.0  0.33951  0.65533  0.22243  1.0000
  H   H62       1.0  0.31104  0.55618  0.30064  1.0000
  C   C78       1.0  0.32688  0.61706  0.19832  1.0000
  H   H63       1.0  0.31203  0.61177  0.17572  1.0000
  H   H64       1.0  0.33646  0.60401  0.21343  1.0000
  H   H65       1.0  0.33387  0.62521  0.14234  1.0000
  C   C79       1.0  0.70708  0.44240  0.33929  1.0000
  N   N14       1.0  0.69862  0.42350  0.33730  1.0000
  C   C80       1.0  0.69670  0.38705  0.36215  1.0000
  C   C81       1.0  0.68609  0.38032  0.28362  1.0000
  C   C82       1.0  0.67836  0.36015  0.28180  1.0000
  C   C83       1.0  0.68136  0.34651  0.35406  1.0000
  H   H66       1.0  0.67112  0.35495  0.22530  1.0000
  H   H67       1.0  0.69990  0.45400  0.30668  1.0000
  C   C84       1.0  0.68388  0.39321  0.20197  1.0000
  H   H68       1.0  0.69877  0.39843  0.17956  1.0000
  H   H69       1.0  0.67437  0.40630  0.21723  1.0000
  H   H70       1.0  0.67686  0.38514  0.14580  1.0000
  C   C85       1.0  0.56795  0.70648  0.33434  1.0000
  N   N15       1.0  0.58687  0.69808  0.33310  1.0000
  C   C86       1.0  0.62329  0.69629  0.35913  1.0000
  C   C87       1.0  0.63016  0.68573  0.28072  1.0000
  C   C88       1.0  0.65036  0.67804  0.27946  1.0000
  C   C89       1.0  0.66387  0.68105  0.35214  1.0000
  H   H71       1.0  0.65566  0.67083  0.22308  1.0000
  H   H72       1.0  0.55644  0.69928  0.30112  1.0000
  C   C90       1.0  0.61741  0.68352  0.19863  1.0000
  H   H73       1.0  0.61217  0.69841  0.17621  1.0000
  H   H74       1.0  0.60433  0.67395  0.21338  1.0000
  H   H75       1.0  0.62559  0.67656  0.14265  1.0000
  C   C91       1.0  0.44267  0.30323  0.33878  1.0000
  N   N16       1.0  0.42375  0.31164  0.33663  1.0000
  C   C92       1.0  0.38730  0.31353  0.36148  1.0000
  C   C93       1.0  0.38059  0.32411  0.28284  1.0000
  C   C94       1.0  0.36041  0.33182  0.28082  1.0000
  C   C95       1.0  0.34675  0.32882  0.35298  1.0000
  H   H76       1.0  0.35522  0.33905  0.22426  1.0000
  H   H77       1.0  0.45425  0.31038  0.30586  1.0000
  C   C96       1.0  0.39350  0.32632  0.20127  1.0000
  H   H78       1.0  0.39877  0.31144  0.17898  1.0000
  H   H79       1.0  0.40657  0.33587  0.21657  1.0000
  H   H80       1.0  0.38544  0.33331  0.14500  1.0000
  C   C97       1.0  0.22876  0.89008  0.30502  1.0000
  N   N17       1.0  0.23246  0.91035  0.30537  1.0000
  C   C98       1.0  0.22804  0.94559  0.34421  1.0000
  C   C99       1.0  0.24881  0.95175  0.34545  1.0000
  C   C100      1.0  0.25330  0.97281  0.34298  1.0000
  C   C101      1.0  0.23817  0.98813  0.33902  1.0000
  H   H81       1.0  0.26822  0.97706  0.34413  1.0000
  H   H82       1.0  0.23845  0.88078  0.27062  1.0000
  C   C102      1.0  0.26604  0.93719  0.35235  1.0000
  H   H83       1.0  0.26365  0.92693  0.40909  1.0000
  H   H84       1.0  0.28064  0.94467  0.36277  1.0000
  H   H85       1.0  0.26724  0.92840  0.29032  1.0000
  C   C103      1.0  0.78207  0.12030  0.30535  1.0000
  N   N18       1.0  0.77841  0.10002  0.30593  1.0000
  C   C104      1.0  0.78297  0.06479  0.34477  1.0000
  C   C105      1.0  0.76222  0.05855  0.34644  1.0000
  C   C106      1.0  0.75780  0.03747  0.34448  1.0000
  C   C107      1.0  0.77297  0.02221  0.34066  1.0000
  H   H86       1.0  0.74289  0.03317  0.34604  1.0000
  H   H87       1.0  0.77231  0.12956  0.27119  1.0000
  C   C108      1.0  0.74495  0.07307  0.35346  1.0000
  H   H88       1.0  0.74735  0.08335  0.41009  1.0000
  H   H89       1.0  0.73038  0.06555  0.36414  1.0000
  H   H90       1.0  0.74368  0.08183  0.29138  1.0000
  C   C109      1.0  0.12041  0.22836  0.30426  1.0000
  N   N19       1.0  0.10015  0.23208  0.30479  1.0000
  C   C110      1.0  0.06491  0.22768  0.34377  1.0000
  C   C111      1.0  0.05877  0.24846  0.34512  1.0000
  C   C112      1.0  0.03771  0.25298  0.34277  1.0000
  C   C113      1.0  0.02237  0.23788  0.33883  1.0000
  H   H91       1.0  0.03349  0.26791  0.34397  1.0000
  H   H92       1.0  0.12970  0.23807  0.26995  1.0000
  C   C114      1.0  0.07336  0.26568  0.35199  1.0000
  H   H93       1.0  0.08363  0.26326  0.40866  1.0000
  H   H94       1.0  0.06590  0.28028  0.36252  1.0000
  H   H95       1.0  0.08213  0.26687  0.28991  1.0000
  C   C115      1.0  0.89019  0.78166  0.30613  1.0000
  N   N20       1.0  0.91047  0.77802  0.30655  1.0000
  C   C116      1.0  0.94571  0.78260  0.34517  1.0000
  C   C117      1.0  0.95198  0.76186  0.34683  1.0000
  C   C118      1.0  0.97306  0.75747  0.34474  1.0000
  C   C119      1.0  0.98830  0.77267  0.34079  1.0000
  H   H96       1.0  0.97738  0.74257  0.34632  1.0000
  H   H97       1.0  0.88092  0.77190  0.27196  1.0000
  C   C120      1.0  0.93748  0.74458  0.35400  1.0000
  H   H98       1.0  0.92722  0.74697  0.41071  1.0000
  H   H99       1.0  0.94502  0.73002  0.36465  1.0000
  H   H100      1.0  0.92870  0.74330  0.29199  1.0000
  C   C121      1.0  0.29785  0.38340  0.33866  1.0000
  C   C122      1.0  0.28894  0.42602  0.33862  1.0000
  C   C123      1.0  0.30619  0.41860  0.29057  1.0000
  C   C124      1.0  0.31040  0.39742  0.29261  1.0000
  H   H101      1.0  0.32264  0.39197  0.25772  1.0000
  C   C125      1.0  0.29201  0.48229  0.34945  1.0000
  N   N21       1.0  0.29616  0.46205  0.34669  1.0000
  H   H102      1.0  0.30384  0.49226  0.35317  1.0000
  C   C126      1.0  0.31933  0.43207  0.23519  1.0000
  H   H103      1.0  0.31004  0.44069  0.18779  1.0000
  H   H104      1.0  0.33055  0.42366  0.19607  1.0000
  H   H105      1.0  0.32755  0.44255  0.27873  1.0000
  C   C127      1.0  0.71286  0.62651  0.34025  1.0000
  C   C128      1.0  0.72184  0.58390  0.34128  1.0000
  C   C129      1.0  0.70460  0.59123  0.29290  1.0000
  C   C130      1.0  0.70036  0.61241  0.29440  1.0000
  H   H106      1.0  0.68813  0.61780  0.25926  1.0000
  C   C131      1.0  0.71886  0.52763  0.35371  1.0000
  N   N22       1.0  0.71467  0.54786  0.35023  1.0000
  H   H107      1.0  0.70703  0.51764  0.35775  1.0000
  C   C132      1.0  0.69151  0.57768  0.23772  1.0000
  H   H108      1.0  0.70084  0.56902  0.19062  1.0000
  H   H109      1.0  0.68029  0.58602  0.19830  1.0000
  H   H110      1.0  0.68329  0.56723  0.28144  1.0000
  C   C133      1.0  0.38372  0.71256  0.33806  1.0000
  C   C134      1.0  0.42634  0.72147  0.33828  1.0000
  C   C135      1.0  0.41893  0.70425  0.29000  1.0000
  C   C136      1.0  0.39775  0.70004  0.29191  1.0000
  H   H111      1.0  0.39230  0.68783  0.25686  1.0000
  C   C137      1.0  0.48261  0.71839  0.34927  1.0000
  N   N23       1.0  0.46237  0.71424  0.34640  1.0000
  H   H112      1.0  0.49258  0.70654  0.35286  1.0000
  C   C138      1.0  0.43240  0.69115  0.23451  1.0000
  H   H113      1.0  0.44103  0.70046  0.18726  1.0000
  H   H114      1.0  0.42400  0.67995  0.19522  1.0000
  H   H115      1.0  0.44288  0.68290  0.27799  1.0000
  C   C139      1.0  0.62681  0.29754  0.34082  1.0000
  C   C140      1.0  0.58420  0.28856  0.34158  1.0000
  C   C141      1.0  0.59154  0.30585  0.29354  1.0000
  C   C142      1.0  0.61272  0.31009  0.29517  1.0000
  H   H116      1.0  0.61811  0.32235  0.26028  1.0000
  C   C143      1.0  0.52793  0.29153  0.35400  1.0000
  N   N24       1.0  0.54817  0.29572  0.35060  1.0000
  H   H117      1.0  0.51795  0.30334  0.35827  1.0000
  C   C144      1.0  0.57799  0.31899  0.23857  1.0000
  H   H118      1.0  0.56934  0.30971  0.19128  1.0000
  H   H119      1.0  0.58634  0.33024  0.19938  1.0000
  H   H120      1.0  0.56754  0.32716  0.28242  1.0000
  C   C145      1.0  0.27483  0.31289  0.35796  1.0000
  C   C146      1.0  0.24402  0.28187  0.35384  1.0000
  C   C147      1.0  0.24037  0.30114  0.31250  1.0000
  C   C148      1.0  0.25580  0.31626  0.31625  1.0000
  H   H121      1.0  0.25340  0.32988  0.28486  1.0000
  C   C149      1.0  0.19493  0.25420  0.36054  1.0000
  N   N25       1.0  0.20988  0.26844  0.36009  1.0000
  H   H122      1.0  0.18023  0.25901  0.36475  1.0000
  C   C150      1.0  0.22149  0.30566  0.26122  1.0000
  H   H123      1.0  0.21888  0.29389  0.21077  1.0000
  H   H124      1.0  0.22215  0.32017  0.22593  1.0000
  H   H125      1.0  0.20859  0.30626  0.30712  1.0000
  C   C151      1.0  0.73576  0.69707  0.35858  1.0000
  C   C152      1.0  0.76654  0.72813  0.35453  1.0000
  C   C153      1.0  0.77023  0.70885  0.31334  1.0000
  C   C154      1.0  0.75481  0.69372  0.31704  1.0000
  H   H126      1.0  0.75724  0.68009  0.28577  1.0000
  C   C155      1.0  0.81562  0.75582  0.36168  1.0000
  N   N26       1.0  0.80067  0.74158  0.36108  1.0000
  H   H127      1.0  0.83032  0.75101  0.36603  1.0000
  C   C156      1.0  0.78913  0.70434  0.26224  1.0000
  H   H128      1.0  0.79176  0.71611  0.21177  1.0000
  H   H129      1.0  0.78850  0.68982  0.22698  1.0000
  H   H130      1.0  0.80202  0.70375  0.30824  1.0000
  C   C157      1.0  0.69737  0.27462  0.35907  1.0000
  C   C158      1.0  0.72844  0.24386  0.35464  1.0000
  C   C159      1.0  0.70915  0.24019  0.31346  1.0000
  C   C160      1.0  0.69401  0.25559  0.31736  1.0000
  H   H131      1.0  0.68038  0.25317  0.28609  1.0000
  C   C161      1.0  0.75618  0.19481  0.36128  1.0000
  N   N27       1.0  0.74192  0.20974  0.36089  1.0000
  H   H132      1.0  0.75139  0.18011  0.36561  1.0000
  C   C162      1.0  0.70465  0.22131  0.26220  1.0000
  H   H133      1.0  0.71640  0.21871  0.21165  1.0000
  H   H134      1.0  0.69012  0.22194  0.22701  1.0000
  H   H135      1.0  0.70408  0.20840  0.30808  1.0000
  C   C163      1.0  0.31320  0.73556  0.35755  1.0000
  C   C164      1.0  0.28219  0.76638  0.35379  1.0000
  C   C165      1.0  0.30146  0.77005  0.31244  1.0000
  C   C166      1.0  0.31657  0.75460  0.31600  1.0000
  H   H136      1.0  0.33019  0.75702  0.28462  1.0000
  C   C167      1.0  0.25457  0.81550  0.36099  1.0000
  N   N28       1.0  0.26879  0.80053  0.36033  1.0000
  H   H137      1.0  0.25940  0.83020  0.36522  1.0000
  C   C168      1.0  0.30597  0.78894  0.26132  1.0000
  H   H138      1.0  0.29420  0.79159  0.21094  1.0000
  H   H139      1.0  0.32048  0.78829  0.22595  1.0000
  H   H140      1.0  0.30660  0.80183  0.30733  1.0000
  C   C169      1.0  0.46606  0.04211  0.34677  1.0000
  C   C170      1.0  0.49711  0.01253  0.34132  1.0000
  C   C171      1.0  0.47891  0.00918  0.29146  1.0000
  C   C172      1.0  0.46353  0.02415  0.29613  1.0000
  H   H141      1.0  0.45047  0.02222  0.25972  1.0000
  C   C173      1.0  0.52352  0.96399  0.35860  1.0000
  N   N29       1.0  0.50954  0.97898  0.35583  1.0000
  H   H142      1.0  0.51851  0.94945  0.36718  1.0000
  C   C174      1.0  0.47590  0.99129  0.23170  1.0000
  H   H143      1.0  0.48876  0.98978  0.18582  1.0000
  H   H144      1.0  0.46220  0.99250  0.19072  1.0000
  H   H145      1.0  0.47457  0.97754  0.27210  1.0000
  C   C175      1.0  0.96829  0.46584  0.34672  1.0000
  C   C176      1.0  0.99786  0.49690  0.34129  1.0000
  C   C177      1.0  0.00121  0.47871  0.29141  1.0000
  C   C178      1.0  0.98625  0.46331  0.29608  1.0000
  H   H146      1.0  0.98818  0.45026  0.25969  1.0000
  C   C179      1.0  0.04640  0.52329  0.35862  1.0000
  N   N30       1.0  0.03141  0.50932  0.35585  1.0000
  H   H147      1.0  0.06094  0.51827  0.36720  1.0000
  C   C180      1.0  0.01910  0.47570  0.23165  1.0000
  H   H148      1.0  0.02062  0.48856  0.18580  1.0000
  H   H149      1.0  0.01789  0.46200  0.19064  1.0000
  H   H150      1.0  0.03285  0.47436  0.27205  1.0000
  C   C181      1.0  0.23581  0.04486  0.32443  1.0000
  N   N31       1.0  0.22968  0.02505  0.33210  1.0000
  C   C182      1.0  0.24340  0.00935  0.33509  1.0000
  N   N32       1.0  0.26344  0.01447  0.33200  1.0000
  C   C183      1.0  0.27031  0.03380  0.32538  1.0000
  N   N33       1.0  0.25605  0.04852  0.32160  1.0000
  C   C184      1.0  0.77562  0.96548  0.32993  1.0000
  N   N34       1.0  0.78165  0.98534  0.33504  1.0000
  C   C185      1.0  0.76783  0.00095  0.33833  1.0000
  N   N35       1.0  0.74781  0.99567  0.33809  1.0000
  C   C186      1.0  0.74104  0.97626  0.33451  1.0000
  N   N36       1.0  0.75541  0.96164  0.33024  1.0000
  C   C187      1.0  0.96564  0.23559  0.32454  1.0000
  N   N37       1.0  0.98544  0.22944  0.33209  1.0000
  C   C188      1.0  0.00116  0.24314  0.33499  1.0000
  N   N38       1.0  0.99606  0.26318  0.33196  1.0000
  C   C189      1.0  0.97674  0.27008  0.32547  1.0000
  N   N39       1.0  0.96200  0.25583  0.32175  1.0000
  C   C190      1.0  0.04502  0.77539  0.32991  1.0000
  N   N40       1.0  0.02515  0.78140  0.33505  1.0000
  C   C191      1.0  0.00956  0.76756  0.33837  1.0000
  N   N41       1.0  0.01486  0.74755  0.33808  1.0000
  C   C192      1.0  0.03429  0.74081  0.33443  1.0000
  N   N42       1.0  0.04889  0.75519  0.33016  1.0000
  C   C193      1.0  0.27299  0.54624  0.36431  1.0000
  N   N43       1.0  0.27963  0.52652  0.35821  1.0000
  C   C194      1.0  0.26629  0.51050  0.35062  1.0000
  N   N44       1.0  0.24611  0.51514  0.34835  1.0000
  C   C195      1.0  0.23871  0.53426  0.35278  1.0000
  N   N45       1.0  0.25265  0.54911  0.36054  1.0000
  C   C196      1.0  0.73798  0.46372  0.37106  1.0000
  N   N46       1.0  0.73131  0.48341  0.36343  1.0000
  C   C197      1.0  0.74463  0.49948  0.35699  1.0000
  N   N47       1.0  0.76483  0.49491  0.35747  1.0000
  C   C198      1.0  0.77227  0.47584  0.36378  1.0000
  N   N48       1.0  0.75835  0.46094  0.37012  1.0000
  C   C199      1.0  0.54656  0.73739  0.36436  1.0000
  N   N49       1.0  0.52684  0.73076  0.35830  1.0000
  C   C200      1.0  0.51082  0.74410  0.35075  1.0000
  N   N50       1.0  0.51547  0.76428  0.34844  1.0000
  C   C201      1.0  0.53459  0.77168  0.35283  1.0000
  N   N51       1.0  0.54944  0.75773  0.36058  1.0000
  C   C202      1.0  0.46403  0.27240  0.37104  1.0000
  N   N52       1.0  0.48372  0.27906  0.36339  1.0000
  C   C203      1.0  0.49979  0.26575  0.35692  1.0000
  N   N53       1.0  0.49523  0.24554  0.35744  1.0000
  C   C204      1.0  0.47615  0.23811  0.36382  1.0000
  N   N54       1.0  0.46126  0.25203  0.37016  1.0000
  C   C205      1.0  0.17608  0.18222  0.35981  1.0000
  N   N55       1.0  0.15609  0.18724  0.35506  1.0000
  C   C206      1.0  0.14956  0.20684  0.35100  1.0000
  N   N56       1.0  0.16401  0.22175  0.35094  1.0000
  C   C207      1.0  0.18435  0.21769  0.35571  1.0000
  N   N57       1.0  0.18973  0.19773  0.36034  1.0000
  C   C208      1.0  0.83449  0.82779  0.36136  1.0000
  N   N58       1.0  0.85448  0.82275  0.35672  1.0000
  C   C209      1.0  0.86099  0.80315  0.35261  1.0000
  N   N59       1.0  0.84653  0.78825  0.35236  1.0000
  C   C210      1.0  0.82620  0.79232  0.35701  1.0000
  N   N60       1.0  0.82083  0.81230  0.36173  1.0000
  C   C211      1.0  0.82818  0.17605  0.36006  1.0000
  N   N61       1.0  0.82318  0.15605  0.35545  1.0000
  C   C212      1.0  0.80358  0.14951  0.35158  1.0000
  N   N62       1.0  0.78866  0.16394  0.35156  1.0000
  C   C213      1.0  0.79270  0.18428  0.35619  1.0000
  N   N63       1.0  0.81266  0.18968  0.36065  1.0000
  C   C214      1.0  0.18262  0.83445  0.36112  1.0000
  N   N64       1.0  0.18767  0.85443  0.35637  1.0000
  C   C215      1.0  0.20727  0.86093  0.35208  1.0000
  N   N65       1.0  0.22216  0.84645  0.35177  1.0000
  C   C216      1.0  0.21807  0.82613  0.35656  1.0000
  N   N66       1.0  0.19810  0.82078  0.36143  1.0000
  C   C217      1.0  0.33567  0.68415  0.34829  1.0000
  N   N67       1.0  0.35568  0.68877  0.34000  1.0000
  C   C218      1.0  0.36245  0.70830  0.34056  1.0000
  N   N68       1.0  0.34828  0.72336  0.34768  1.0000
  C   C219      1.0  0.32797  0.71954  0.35511  1.0000
  N   N69       1.0  0.32215  0.69967  0.35660  1.0000
  C   C220      1.0  0.67483  0.32601  0.35080  1.0000
  N   N70       1.0  0.65482  0.32138  0.34273  1.0000
  C   C221      1.0  0.64807  0.30184  0.34307  1.0000
  N   N71       1.0  0.66226  0.28678  0.34975  1.0000
  C   C222      1.0  0.68257  0.29062  0.35697  1.0000
  N   N72       1.0  0.68837  0.31049  0.35869  1.0000
  C   C223      1.0  0.68438  0.67453  0.34945  1.0000
  N   N73       1.0  0.68902  0.65451  0.34157  1.0000
  C   C224      1.0  0.70857  0.64777  0.34232  1.0000
  N   N74       1.0  0.72361  0.66197  0.34923  1.0000
  C   C225      1.0  0.71976  0.68228  0.35627  1.0000
  N   N75       1.0  0.69989  0.68808  0.35756  1.0000
  C   C226      1.0  0.32625  0.33535  0.34956  1.0000
  N   N76       1.0  0.32164  0.35537  0.34113  1.0000
  C   C227      1.0  0.30211  0.36213  0.34128  1.0000
  N   N77       1.0  0.28704  0.34797  0.34816  1.0000
  C   C228      1.0  0.29085  0.32766  0.35571  1.0000
  N   N78       1.0  0.31071  0.32184  0.35761  1.0000
  C   C229      1.0  0.44201  0.09207  0.35131  1.0000
  N   N79       1.0  0.45629  0.07727  0.35028  1.0000
  C   C230      1.0  0.45098  0.05734  0.34842  1.0000
  N   N80       1.0  0.43094  0.05245  0.34677  1.0000
  C   C231      1.0  0.41646  0.06709  0.34745  1.0000
  N   N81       1.0  0.42207  0.08690  0.34977  1.0000
  C   C232      1.0  0.56823  0.91813  0.34570  1.0000
  N   N82       1.0  0.55408  0.93307  0.34569  1.0000
  C   C233      1.0  0.55934  0.95302  0.34964  1.0000
  N   N83       1.0  0.57947  0.95759  0.35265  1.0000
  C   C234      1.0  0.59405  0.94303  0.35168  1.0000
  N   N84       1.0  0.58816  0.92329  0.34853  1.0000
  C   C235      1.0  0.91835  0.44175  0.35138  1.0000
  N   N85       1.0  0.93314  0.45604  0.35026  1.0000
  C   C236      1.0  0.95307  0.45075  0.34843  1.0000
  N   N86       1.0  0.95798  0.43071  0.34690  1.0000
  C   C237      1.0  0.94336  0.41622  0.34766  1.0000
  N   N87       1.0  0.92354  0.42181  0.34995  1.0000
  C   C238      1.0  0.09229  0.56796  0.34560  1.0000
  N   N88       1.0  0.07734  0.55382  0.34565  1.0000
  C   C239      1.0  0.05740  0.55910  0.34963  1.0000
  N   N89       1.0  0.05285  0.57923  0.35261  1.0000
  C   C240      1.0  0.06742  0.59380  0.35158  1.0000
  N   N90       1.0  0.08716  0.58789  0.34841  1.0000
  C   C241      1.0  0.39587  0.06176  0.34562  1.0000
  C   C242      1.0  0.35426  0.05227  0.34078  1.0000
  C   C243      1.0  0.36531  0.04885  0.42186  1.0000
  C   C244      1.0  0.38627  0.05357  0.42234  1.0000
  H   H151      1.0  0.39458  0.05154  0.47996  1.0000
  C   C245      1.0  0.30639  0.02435  0.34665  1.0000
  N   N91       1.0  0.32619  0.02982  0.34997  1.0000
  H   H152      1.0  0.30269  0.00977  0.36326  1.0000
  C   C246      1.0  0.35541  0.04163  0.50603  1.0000
  H   H153      1.0  0.34275  0.05159  0.52320  1.0000
  H   H154      1.0  0.36579  0.04145  0.56334  1.0000
  H   H155      1.0  0.34974  0.02624  0.49670  1.0000
  C   C247      1.0  0.61482  0.94834  0.35195  1.0000
  C   C248      1.0  0.65667  0.95815  0.35102  1.0000
  C   C249      1.0  0.64319  0.96956  0.40663  1.0000
  C   C250      1.0  0.62229  0.96450  0.40493  1.0000
  H   H156      1.0  0.61237  0.97232  0.44515  1.0000
  C   C251      1.0  0.70469  0.98603  0.33540  1.0000
  N   N92       1.0  0.68490  0.98058  0.33975  1.0000
  H   H157      1.0  0.70810  0.00113  0.33185  1.0000
  C   C252      1.0  0.65031  0.98570  0.46922  1.0000
  H   H158      1.0  0.66249  0.97985  0.51174  1.0000
  H   H159      1.0  0.63829  0.99118  0.51362  1.0000
  H   H160      1.0  0.65589  0.99866  0.43091  1.0000
  C   C253      1.0  0.94871  0.39563  0.34582  1.0000
  C   C254      1.0  0.95826  0.35404  0.34093  1.0000
  C   C255      1.0  0.96176  0.36510  0.42189  1.0000
  C   C256      1.0  0.95701  0.38606  0.42237  1.0000
  H   H161      1.0  0.95910  0.39439  0.47991  1.0000
  C   C257      1.0  0.98619  0.30617  0.34663  1.0000
  N   N93       1.0  0.98072  0.32596  0.34997  1.0000
  H   H162      1.0  0.00078  0.30246  0.36312  1.0000
  C   C258      1.0  0.96908  0.35524  0.50594  1.0000
  H   H163      1.0  0.95916  0.34256  0.52338  1.0000
  H   H164      1.0  0.96931  0.36563  0.56320  1.0000
  H   H165      1.0  0.98448  0.34959  0.49630  1.0000
  C   C259      1.0  0.06214  0.61458  0.35185  1.0000
  C   C260      1.0  0.05237  0.65644  0.35097  1.0000
  C   C261      1.0  0.04095  0.64297  0.40655  1.0000
  C   C262      1.0  0.04598  0.62206  0.40483  1.0000
  H   H166      1.0  0.03815  0.61215  0.44502  1.0000
  C   C263      1.0  0.02452  0.70446  0.33524  1.0000
  N   N94       1.0  0.02996  0.68467  0.33961  1.0000
  H   H167      1.0  0.00942  0.70787  0.33166  1.0000
  C   C264      1.0  0.02481  0.65009  0.46912  1.0000
  H   H168      1.0  0.03066  0.66228  0.51164  1.0000
  H   H169      1.0  0.01932  0.63808  0.51352  1.0000
  H   H170      1.0  0.01185  0.65568  0.43080  1.0000
  C   C265      1.0  0.12624  0.56903  0.41119  1.0000
  N   N95       1.0  0.14601  0.56365  0.40768  1.0000
  C   C266      1.0  0.17569  0.54881  0.34659  1.0000
  C   C267      1.0  0.19005  0.56467  0.35977  1.0000
  C   C268      1.0  0.21084  0.55939  0.36156  1.0000
  C   C269      1.0  0.21764  0.53912  0.35135  1.0000
  H   H171      1.0  0.22126  0.57072  0.37059  1.0000
  H   H172      1.0  0.12137  0.57805  0.46293  1.0000
  C   C270      1.0  0.18421  0.58643  0.36810  1.0000
  H   H173      1.0  0.17441  0.59076  0.31206  1.0000
  H   H174      1.0  0.19730  0.59660  0.36754  1.0000
  H   H175      1.0  0.17618  0.58890  0.43137  1.0000
  C   C271      1.0  0.88539  0.44302  0.42628  1.0000
  N   N96       1.0  0.86558  0.44836  0.42436  1.0000
  C   C272      1.0  0.83522  0.46127  0.36091  1.0000
  C   C273      1.0  0.82096  0.44575  0.38171  1.0000
  C   C274      1.0  0.80018  0.45106  0.38277  1.0000
  C   C275      1.0  0.79334  0.47103  0.36469  1.0000
  H   H176      1.0  0.78980  0.43996  0.39695  1.0000
  H   H177      1.0  0.89097  0.43574  0.48185  1.0000
  C   C276      1.0  0.82695  0.42428  0.39823  1.0000
  H   H178      1.0  0.83625  0.41875  0.34258  1.0000
  H   H179      1.0  0.81390  0.41416  0.40440  1.0000
  H   H180      1.0  0.83557  0.42320  0.46072  1.0000
  C   C277      1.0  0.56953  0.88412  0.41063  1.0000
  N   N97       1.0  0.56415  0.86435  0.40712  1.0000
  C   C278      1.0  0.54914  0.83470  0.34650  1.0000
  C   C279      1.0  0.56502  0.82033  0.35905  1.0000
  C   C280      1.0  0.55974  0.79954  0.36089  1.0000
  C   C281      1.0  0.53946  0.79274  0.35131  1.0000
  H   H181      1.0  0.57108  0.78912  0.36948  1.0000
  H   H182      1.0  0.57869  0.88895  0.46194  1.0000
  C   C282      1.0  0.58679  0.82616  0.36671  1.0000
  H   H183      1.0  0.59104  0.83599  0.31063  1.0000
  H   H184      1.0  0.59696  0.81307  0.36564  1.0000
  H   H185      1.0  0.58937  0.83416  0.42999  1.0000
  C   C283      1.0  0.44353  0.12496  0.42671  1.0000
  N   N98       1.0  0.44887  0.14477  0.42479  1.0000
  C   C284      1.0  0.46159  0.17517  0.36103  1.0000
  C   C285      1.0  0.44610  0.18941  0.38229  1.0000
  C   C286      1.0  0.45140  0.21019  0.38332  1.0000
  C   C287      1.0  0.47135  0.21704  0.36478  1.0000
  H   H186      1.0  0.44033  0.22057  0.39784  1.0000
  H   H187      1.0  0.43641  0.11933  0.48258  1.0000
  C   C288      1.0  0.42465  0.18341  0.39932  1.0000
  H   H188      1.0  0.41905  0.17414  0.34370  1.0000
  H   H189      1.0  0.41454  0.19645  0.40591  1.0000
  H   H190      1.0  0.42366  0.17474  0.46171  1.0000
  C   C289      1.0  0.20825  0.06657  0.38657  1.0000
  N   N99       1.0  0.20010  0.08552  0.39348  1.0000
  C   C290      1.0  0.19681  0.12086  0.35617  1.0000
  C   C291      1.0  0.20732  0.13531  0.40993  1.0000
  C   C292      1.0  0.20008  0.15559  0.41093  1.0000
  C   C293      1.0  0.18263  0.16158  0.36212  1.0000
  H   H191      1.0  0.20768  0.16623  0.44815  1.0000
  H   H192      1.0  0.20475  0.05606  0.43472  1.0000
  C   C294      1.0  0.22561  0.12966  0.46297  1.0000
  H   H193      1.0  0.23757  0.12430  0.41812  1.0000
  H   H194      1.0  0.22177  0.11758  0.51025  1.0000
  H   H195      1.0  0.23165  0.14239  0.50171  1.0000
  C   C295      1.0  0.80302  0.94356  0.39159  1.0000
  N   N100      1.0  0.81103  0.92454  0.39782  1.0000
  C   C296      1.0  0.81416  0.88929  0.35878  1.0000
  C   C297      1.0  0.80343  0.87482  0.41166  1.0000
  C   C298      1.0  0.81052  0.85449  0.41222  1.0000
  C   C299      1.0  0.82801  0.84846  0.36381  1.0000
  H   H196      1.0  0.80279  0.84384  0.44887  1.0000
  H   H197      1.0  0.80643  0.95390  0.44064  1.0000
  C   C300      1.0  0.78510  0.88052  0.46425  1.0000
  H   H198      1.0  0.77326  0.88606  0.41917  1.0000
  H   H199      1.0  0.78895  0.89247  0.51212  1.0000
  H   H200      1.0  0.77888  0.86776  0.50228  1.0000
  C   C301      1.0  0.94388  0.20805  0.38667  1.0000
  N   N101      1.0  0.92492  0.19994  0.39359  1.0000
  C   C302      1.0  0.88956  0.19672  0.35631  1.0000
  C   C303      1.0  0.87512  0.20726  0.41004  1.0000
  C   C304      1.0  0.85483  0.20005  0.41104  1.0000
  C   C305      1.0  0.84882  0.18261  0.36223  1.0000
  H   H201      1.0  0.84420  0.20766  0.44826  1.0000
  H   H202      1.0  0.95439  0.20452  0.43480  1.0000
  C   C306      1.0  0.88079  0.22554  0.46310  1.0000
  H   H203      1.0  0.88618  0.23749  0.41827  1.0000
  H   H204      1.0  0.89286  0.22168  0.51039  1.0000
  H   H205      1.0  0.86807  0.23160  0.50183  1.0000
  C   C307      1.0  0.06691  0.80281  0.39167  1.0000
  N   N102      1.0  0.08591  0.81085  0.39785  1.0000
  C   C308      1.0  0.12115  0.81405  0.35864  1.0000
  C   C309      1.0  0.13563  0.80334  0.41143  1.0000
  C   C310      1.0  0.15595  0.81046  0.41202  1.0000
  C   C311      1.0  0.16195  0.82797  0.36370  1.0000
  H   H206      1.0  0.16661  0.80272  0.44859  1.0000
  H   H207      1.0  0.05659  0.80616  0.44083  1.0000
  C   C312      1.0  0.12996  0.78497  0.46390  1.0000
  H   H208      1.0  0.12443  0.77314  0.41872  1.0000
  H   H209      1.0  0.11801  0.78878  0.51181  1.0000
  H   H210      1.0  0.14273  0.77876  0.50186  1.0000
  C   C313      1.0  0.28468  0.56453  0.37376  1.0000
  C   C314      1.0  0.30382  0.60373  0.36906  1.0000
  C   C315      1.0  0.28474  0.60133  0.41347  1.0000
  C   C316      1.0  0.27588  0.58178  0.41554  1.0000
  H   H211      1.0  0.26213  0.58020  0.44685  1.0000
  C   C317      1.0  0.31893  0.65601  0.42713  1.0000
  N   N103      1.0  0.31214  0.63662  0.42727  1.0000
  H   H212      1.0  0.31638  0.66488  0.48249  1.0000
  C   C318      1.0  0.27279  0.61850  0.45210  1.0000
  H   H213      1.0  0.27129  0.63061  0.40237  1.0000
  H   H214      1.0  0.28036  0.62435  0.51202  1.0000
  H   H215      1.0  0.25745  0.61413  0.47216  1.0000
  C   C319      1.0  0.72629  0.44537  0.37897  1.0000
  C   C320      1.0  0.70695  0.40628  0.37299  1.0000
  C   C321      1.0  0.72607  0.40848  0.41715  1.0000
  C   C322      1.0  0.73501  0.42798  0.41998  1.0000
  H   H216      1.0  0.74876  0.42942  0.45142  1.0000
  C   C323      1.0  0.69153  0.35405  0.43031  1.0000
  N   N104      1.0  0.69840  0.37342  0.43077  1.0000
  H   H217      1.0  0.69403  0.34513  0.48556  1.0000
  C   C324      1.0  0.73796  0.39117  0.45489  1.0000
  H   H218      1.0  0.73931  0.37914  0.40471  1.0000
  H   H219      1.0  0.73044  0.38527  0.51482  1.0000
  H   H220      1.0  0.75335  0.39541  0.47464  1.0000
  C   C325      1.0  0.56484  0.72568  0.37380  1.0000
  C   C326      1.0  0.60400  0.70646  0.36946  1.0000
  C   C327      1.0  0.60165  0.72558  0.41356  1.0000
  C   C328      1.0  0.58211  0.73448  0.41547  1.0000
  H   H221      1.0  0.58056  0.74826  0.44658  1.0000
  C   C329      1.0  0.65620  0.69120  0.42820  1.0000
  N   N105      1.0  0.63681  0.69802  0.42815  1.0000
  H   H222      1.0  0.66503  0.69369  0.48373  1.0000
  C   C330      1.0  0.61884  0.73751  0.45204  1.0000
  H   H223      1.0  0.63096  0.73893  0.40231  1.0000
  H   H224      1.0  0.62466  0.72998  0.51209  1.0000
  H   H225      1.0  0.61451  0.75287  0.47182  1.0000
  C   C331      1.0  0.44569  0.28409  0.37901  1.0000
  C   C332      1.0  0.40655  0.30333  0.37261  1.0000
  C   C333      1.0  0.40880  0.28427  0.41730  1.0000
  C   C334      1.0  0.42833  0.27538  0.42030  1.0000
  H   H226      1.0  0.42980  0.26167  0.45207  1.0000
  C   C335      1.0  0.35426  0.31867  0.42932  1.0000
  N   N106      1.0  0.37364  0.31183  0.42998  1.0000
  H   H227      1.0  0.34533  0.31618  0.48452  1.0000
  C   C336      1.0  0.39153  0.27239  0.45541  1.0000
  H   H228      1.0  0.37950  0.27094  0.40528  1.0000
  H   H229      1.0  0.38561  0.27999  0.51512  1.0000
  H   H230      1.0  0.39581  0.25704  0.47562  1.0000
  C   C337      1.0  0.21166  0.88220  0.35010  1.0000
  C   C338      1.0  0.22113  0.92476  0.34798  1.0000
  C   C339      1.0  0.20358  0.91770  0.39501  1.0000
  C   C340      1.0  0.19914  0.89658  0.39408  1.0000
  H   H231      1.0  0.18675  0.89143  0.42881  1.0000
  C   C341      1.0  0.21798  0.98101  0.33731  1.0000
  N   N107      1.0  0.21397  0.96075  0.33978  1.0000
  H   H232      1.0  0.20607  0.99089  0.33401  1.0000
  C   C342      1.0  0.19034  0.93141  0.44881  1.0000
  H   H233      1.0  0.19953  0.94017  0.49608  1.0000
  H   H234      1.0  0.17899  0.92321  0.48804  1.0000
  H   H235      1.0  0.18225  0.94176  0.40415  1.0000
  C   C343      1.0  0.79923  0.12822  0.34984  1.0000
  C   C344      1.0  0.78983  0.08564  0.34827  1.0000
  C   C345      1.0  0.80744  0.09275  0.39476  1.0000
  C   C346      1.0  0.81184  0.11388  0.39354  1.0000
  H   H236      1.0  0.82427  0.11906  0.42788  1.0000
  C   C347      1.0  0.79313  0.02940  0.33826  1.0000
  N   N108      1.0  0.79708  0.04967  0.34029  1.0000
  H   H237      1.0  0.80508  0.01955  0.33513  1.0000
  C   C348      1.0  0.82078  0.07909  0.44832  1.0000
  H   H238      1.0  0.81167  0.07032  0.49587  1.0000
  H   H239      1.0  0.83216  0.08734  0.48720  1.0000
  H   H240      1.0  0.82884  0.06875  0.40351  1.0000
  C   C349      1.0  0.12829  0.21123  0.34910  1.0000
  C   C350      1.0  0.08573  0.22075  0.34735  1.0000
  C   C351      1.0  0.09279  0.20315  0.39410  1.0000
  C   C352      1.0  0.11391  0.19869  0.39299  1.0000
  H   H241      1.0  0.11906  0.18628  0.42756  1.0000
  C   C353      1.0  0.02947  0.21768  0.33705  1.0000
  N   N109      1.0  0.04972  0.21363  0.33939  1.0000
  H   H242      1.0  0.01957  0.20578  0.33376  1.0000
  C   C354      1.0  0.07908  0.18990  0.44785  1.0000
  H   H243      1.0  0.07035  0.19907  0.49529  1.0000
  H   H244      1.0  0.08729  0.17851  0.48687  1.0000
  H   H245      1.0  0.06871  0.18185  0.40316  1.0000
  C   C355      1.0  0.88227  0.79879  0.35078  1.0000
  C   C356      1.0  0.92486  0.78944  0.34886  1.0000
  C   C357      1.0  0.91775  0.80702  0.39553  1.0000
  C   C358      1.0  0.89662  0.81140  0.39451  1.0000
  H   H246      1.0  0.89144  0.82382  0.42896  1.0000
  C   C359      1.0  0.98108  0.79282  0.33839  1.0000
  N   N110      1.0  0.96081  0.79674  0.34056  1.0000
  H   H247      1.0  0.99091  0.80478  0.33517  1.0000
  C   C360      1.0  0.93142  0.82036  0.44909  1.0000
  H   H248      1.0  0.94022  0.81124  0.49650  1.0000
  H   H249      1.0  0.92317  0.83171  0.48813  1.0000
  H   H250      1.0  0.94173  0.82845  0.40426  1.0000
  C   C361      1.0  0.28112  0.39167  0.38506  1.0000
  N   N111      1.0  0.27768  0.41195  0.38357  1.0000
  C   C362      1.0  0.28213  0.44685  0.34155  1.0000
  C   C363      1.0  0.26133  0.45289  0.33945  1.0000
  C   C364      1.0  0.25676  0.47390  0.34224  1.0000
  C   C365      1.0  0.27177  0.48931  0.34723  1.0000
  H   H251      1.0  0.24180  0.47800  0.34073  1.0000
  H   H252      1.0  0.27156  0.38269  0.42178  1.0000
  C   C366      1.0  0.24416  0.43826  0.33123  1.0000
  H   H253      1.0  0.24685  0.42794  0.27497  1.0000
  H   H254      1.0  0.22961  0.44569  0.31918  1.0000
  H   H255      1.0  0.24268  0.42954  0.39333  1.0000
  C   C367      1.0  0.72958  0.61831  0.38700  1.0000
  N   N112      1.0  0.73306  0.59804  0.38601  1.0000
  C   C368      1.0  0.72868  0.56308  0.34479  1.0000
  C   C369      1.0  0.74949  0.55707  0.34311  1.0000
  C   C370      1.0  0.75410  0.53608  0.34671  1.0000
  C   C371      1.0  0.73910  0.52064  0.35215  1.0000
  H   H256      1.0  0.76906  0.53199  0.34549  1.0000
  H   H257      1.0  0.73910  0.62735  0.42360  1.0000
  C   C372      1.0  0.76663  0.57171  0.33462  1.0000
  H   H258      1.0  0.76396  0.58195  0.27803  1.0000
  H   H259      1.0  0.78121  0.56429  0.32291  1.0000
  H   H260      1.0  0.76808  0.58053  0.39647  1.0000
  C   C373      1.0  0.39198  0.72926  0.38469  1.0000
  N   N113      1.0  0.41226  0.73271  0.38331  1.0000
  C   C374      1.0  0.44717  0.72828  0.34137  1.0000
  C   C375      1.0  0.45321  0.74907  0.33955  1.0000
  C   C376      1.0  0.47422  0.75364  0.34246  1.0000
  C   C377      1.0  0.48963  0.73862  0.34730  1.0000
  H   H261      1.0  0.47833  0.76860  0.34114  1.0000
  H   H262      1.0  0.38299  0.73880  0.42149  1.0000
  C   C378      1.0  0.43859  0.76625  0.33148  1.0000
  H   H263      1.0  0.42828  0.76360  0.27515  1.0000
  H   H264      1.0  0.44602  0.78081  0.31964  1.0000
  H   H265      1.0  0.42986  0.76770  0.39356  1.0000
  C   C379      1.0  0.61861  0.28079  0.38728  1.0000
  N   N114      1.0  0.59834  0.27731  0.38617  1.0000
  C   C380      1.0  0.56339  0.28172  0.34493  1.0000
  C   C381      1.0  0.55738  0.26091  0.34285  1.0000
  C   C382      1.0  0.53639  0.25630  0.34636  1.0000
  C   C383      1.0  0.52095  0.27128  0.35210  1.0000
  H   H266      1.0  0.53230  0.24133  0.34484  1.0000
  H   H267      1.0  0.62765  0.27123  0.42375  1.0000
  C   C384      1.0  0.57203  0.24377  0.33403  1.0000
  H   H268      1.0  0.58226  0.24651  0.27752  1.0000
  H   H269      1.0  0.56461  0.22921  0.32203  1.0000
  H   H270      1.0  0.58083  0.24227  0.39587  1.0000
  C   C385      1.0  0.27743  0.29365  0.39804  1.0000
  N   N115      1.0  0.26239  0.27959  0.39473  1.0000
  C   C386      1.0  0.23020  0.26474  0.35454  1.0000
  C   C387      1.0  0.23603  0.24386  0.34977  1.0000
  C   C388      1.0  0.22064  0.22873  0.35058  1.0000
  C   C389      1.0  0.19966  0.23332  0.35571  1.0000
  H   H271      1.0  0.22491  0.21383  0.34653  1.0000
  H   H272      1.0  0.29063  0.28992  0.43012  1.0000
  C   C390      1.0  0.25753  0.23719  0.34036  1.0000
  H   H273      1.0  0.26471  0.24518  0.28438  1.0000
  H   H274      1.0  0.25898  0.22096  0.32717  1.0000
  H   H275      1.0  0.26580  0.24039  0.40238  1.0000
  C   C391      1.0  0.73311  0.71633  0.39841  1.0000
  N   N116      1.0  0.74814  0.73040  0.39518  1.0000
  C   C392      1.0  0.78035  0.74527  0.35535  1.0000
  C   C393      1.0  0.77452  0.76615  0.35055  1.0000
  C   C394      1.0  0.78990  0.78129  0.35154  1.0000
  C   C395      1.0  0.81088  0.77670  0.35684  1.0000
  H   H276      1.0  0.78563  0.79618  0.34747  1.0000
  H   H277      1.0  0.71988  0.72006  0.43033  1.0000
  C   C396      1.0  0.75302  0.77281  0.34098  1.0000
  H   H278      1.0  0.74587  0.76483  0.28491  1.0000
  H   H279      1.0  0.75157  0.78904  0.32782  1.0000
  H   H280      1.0  0.74472  0.76961  0.40291  1.0000
  C   C397      1.0  0.71663  0.27726  0.39895  1.0000
  N   N117      1.0  0.73071  0.26224  0.39550  1.0000
  C   C398      1.0  0.74559  0.23007  0.35521  1.0000
  C   C399      1.0  0.76646  0.23593  0.35022  1.0000
  C   C400      1.0  0.78161  0.22056  0.35097  1.0000
  C   C401      1.0  0.77705  0.19957  0.35625  1.0000
  H   H281      1.0  0.79650  0.22485  0.34677  1.0000
  H   H282      1.0  0.72035  0.29047  0.43100  1.0000
  C   C402      1.0  0.77309  0.25743  0.34064  1.0000
  H   H283      1.0  0.76506  0.26459  0.28471  1.0000
  H   H284      1.0  0.78931  0.25891  0.32729  1.0000
  H   H285      1.0  0.76991  0.26572  0.40266  1.0000
  C   C403      1.0  0.29396  0.73294  0.39759  1.0000
  N   N118      1.0  0.27991  0.74799  0.39448  1.0000
  C   C404      1.0  0.26507  0.78022  0.35473  1.0000
  C   C405      1.0  0.24418  0.77441  0.35015  1.0000
  C   C406      1.0  0.22906  0.78982  0.35118  1.0000
  C   C407      1.0  0.23368  0.81080  0.35634  1.0000
  H   H286      1.0  0.21416  0.78556  0.34727  1.0000
  H   H287      1.0  0.29023  0.71972  0.42954  1.0000
  C   C408      1.0  0.23748  0.75292  0.34075  1.0000
  H   H288      1.0  0.24543  0.74575  0.28463  1.0000
  H   H289      1.0  0.22124  0.75149  0.32774  1.0000
  H   H290      1.0  0.24071  0.74463  0.40269  1.0000
  C   C409      1.0  0.48442  0.04451  0.39420  1.0000
  N   N119      1.0  0.49874  0.02986  0.39033  1.0000
  C   C410      1.0  0.51387  0.99895  0.34412  1.0000
  C   C411      1.0  0.53462  0.00477  0.33608  1.0000
  C   C412      1.0  0.54950  0.98927  0.33887  1.0000
  C   C413      1.0  0.54435  0.96856  0.34941  1.0000
  H   H291      1.0  0.56443  0.99321  0.33175  1.0000
  H   H292      1.0  0.48713  0.05703  0.43302  1.0000
  C   C414      1.0  0.54115  0.02613  0.32117  1.0000
  H   H293      1.0  0.53810  0.03514  0.38129  1.0000
  H   H294      1.0  0.53292  0.03260  0.26418  1.0000
  H   H295      1.0  0.55733  0.02742  0.30664  1.0000
  C   C415      1.0  0.96588  0.48420  0.39414  1.0000
  N   N120      1.0  0.98052  0.49853  0.39028  1.0000
  C   C416      1.0  0.01145  0.51366  0.34413  1.0000
  C   C417      1.0  0.00564  0.53441  0.33612  1.0000
  C   C418      1.0  0.02114  0.54928  0.33891  1.0000
  C   C419      1.0  0.04185  0.54412  0.34942  1.0000
  H   H296      1.0  0.01721  0.56421  0.33180  1.0000
  H   H297      1.0  0.95336  0.48691  0.43297  1.0000
  C   C420      1.0  0.98428  0.54094  0.32124  1.0000
  H   H298      1.0  0.97527  0.53789  0.38135  1.0000
  H   H299      1.0  0.97780  0.53273  0.26423  1.0000
  H   H300      1.0  0.98299  0.55713  0.30675  1.0000
