data_image0
_chemical_formula_structural       C4NOCHC4NOCHC4NOCHC4NOCHC4NOCHC4NOCHC2NOCHC2NOCHC2NOCHC2NOCHC2NOCHC2NOCHC2NOCHC2NOCHC2NOCHC2NOCHC2NOCHC2NOCHC4NOCHC4NOCHC4NOCHC4NOCHC4NOCHC4NOCHC2NOCHC2NOCHC2NOCHC2NOCHC2NOCHC2NOCHC2NOCHC2NOCHC2NOCHC2NOCHC2NOCHC2NOCHC6H3C6H3C6H3C6H3C6H3C6H3C6H3C6H3C6H3C6H3C6H3C6H3C6H3C6H3C6H3C6H3C6H3C6H3C6H3C6H3C6H3C6H3C6H3C6H3C2NOCHC2NOCHC2NOCHC2NOCHC2NOCHC2NOCHC4NOCHC4NOCHC4NOCHC4NOCHC4NOCHC4NOCHC4NOCHC4NOCHC4NOCHC4NOCHC4NOCHC4NOCHC2NOCHC2NOCHC2NOCHC2NOCHC2NOCHC2NOCHC4NOCHC4NOCHC4NOCHC4NOCHC4NOCHC4NOCHC4NOCHC4NOCHC4NOCHC4NOCHC4NOCHC4NOCH
_chemical_formula_sum              "C432 N72 O72 H144"
_cell_length_a       54.7323
_cell_length_b       54.7324
_cell_length_c       14.8454
_cell_angle_alpha    90
_cell_angle_beta     90
_cell_angle_gamma    120

_space_group_name_H-M_alt    "P 1"
_space_group_IT_number       1

loop_
  _space_group_symop_operation_xyz
  'x, y, z'

loop_
  _atom_site_type_symbol
  _atom_site_label
  _atom_site_symmetry_multiplicity
  _atom_site_fract_x
  _atom_site_fract_y
  _atom_site_fract_z
  _atom_site_occupancy
  C   C1        1.0  0.11706  0.39898  0.35037  1.0000
  C   C2        1.0  0.11674  0.41410  0.27340  1.0000
  C   C3        1.0  0.13073  0.44366  0.27314  1.0000
  C   C4        1.0  0.14460  0.46005  0.34998  1.0000
  N   N1        1.0  0.13008  0.45165  0.18890  1.0000
  O   O1        1.0  0.10724  0.40337  0.18965  1.0000
  C   C5        1.0  0.11571  0.42767  0.14164  1.0000
  H   H1        1.0  0.11255  0.42760  0.07381  1.0000
  C   C6        1.0  0.61388  0.72075  0.35817  1.0000
  C   C7        1.0  0.59830  0.70396  0.28382  1.0000
  C   C8        1.0  0.56875  0.68837  0.28543  1.0000
  C   C9        1.0  0.55280  0.68734  0.36181  1.0000
  N   N2        1.0  0.56030  0.67834  0.20262  1.0000
  O   O2        1.0  0.60857  0.70371  0.20044  1.0000
  C   C10       1.0  0.58402  0.68700  0.15466  1.0000
  H   H2        1.0  0.58372  0.68310  0.08726  1.0000
  C   C11       1.0  0.29229  0.89580  0.35091  1.0000
  C   C12       1.0  0.30781  0.89616  0.27412  1.0000
  C   C13       1.0  0.32347  0.88225  0.27413  1.0000
  C   C14       1.0  0.32583  0.86830  0.35102  1.0000
  N   N3        1.0  0.33203  0.88277  0.18986  1.0000
  O   O3        1.0  0.30656  0.90557  0.19026  1.0000
  C   C15       1.0  0.32252  0.89721  0.14248  1.0000
  H   H3        1.0  0.32526  0.89997  0.07443  1.0000
  C   C16       1.0  0.89834  0.61111  0.33242  1.0000
  C   C17       1.0  0.88362  0.59513  0.25583  1.0000
  C   C18       1.0  0.86996  0.56565  0.25629  1.0000
  C   C19       1.0  0.87045  0.54997  0.33139  1.0000
  N   N4        1.0  0.85584  0.55685  0.17899  1.0000
  O   O4        1.0  0.87836  0.60506  0.17836  1.0000
  C   C20       1.0  0.86144  0.58033  0.13391  1.0000
  H   H4        1.0  0.85294  0.57976  0.07214  1.0000
  C   C21       1.0  0.40154  0.28968  0.34958  1.0000
  C   C22       1.0  0.41633  0.30497  0.27198  1.0000
  C   C23       1.0  0.44588  0.32055  0.27044  1.0000
  C   C24       1.0  0.46256  0.32315  0.34654  1.0000
  N   N5        1.0  0.45352  0.32908  0.18592  1.0000
  O   O5        1.0  0.40525  0.30362  0.18875  1.0000
  C   C25       1.0  0.42934  0.31939  0.13972  1.0000
  H   H5        1.0  0.42898  0.32237  0.07192  1.0000
  C   C26       1.0  0.72319  0.11458  0.36033  1.0000
  C   C27       1.0  0.70660  0.11346  0.28555  1.0000
  C   C28       1.0  0.69101  0.12743  0.28673  1.0000
  C   C29       1.0  0.68974  0.14226  0.36301  1.0000
  N   N6        1.0  0.68119  0.12593  0.20365  1.0000
  O   O6        1.0  0.70655  0.10304  0.20219  1.0000
  C   C30       1.0  0.68997  0.11093  0.15594  1.0000
  H   H6        1.0  0.68623  0.10741  0.08845  1.0000
  C   C31       1.0  0.44660  0.14146  0.25800  1.0000
  C   C32       1.0  0.41716  0.12808  0.26082  1.0000
  N   N7        1.0  0.40872  0.13325  0.18256  1.0000
  O   O7        1.0  0.45689  0.15562  0.17892  1.0000
  C   C33       1.0  0.43236  0.14883  0.13480  1.0000
  H   H7        1.0  0.43215  0.15673  0.07265  1.0000
  C   C34       1.0  0.69124  0.56592  0.27715  1.0000
  C   C35       1.0  0.70724  0.59546  0.27485  1.0000
  N   N8        1.0  0.70647  0.60328  0.19048  1.0000
  O   O8        1.0  0.68069  0.55505  0.19435  1.0000
  C   C36       1.0  0.69004  0.57929  0.14526  1.0000
  H   H8        1.0  0.68685  0.57904  0.07740  1.0000
  C   C37       1.0  0.87193  0.30772  0.24975  1.0000
  C   C38       1.0  0.88511  0.29148  0.25362  1.0000
  N   N9        1.0  0.87979  0.27754  0.17599  1.0000
  O   O9        1.0  0.85786  0.30376  0.17046  1.0000
  C   C39       1.0  0.86421  0.28548  0.12772  1.0000
  H   H9        1.0  0.85664  0.27755  0.06514  1.0000
  C   C40       1.0  0.56912  0.86896  0.24921  1.0000
  C   C41       1.0  0.59854  0.88212  0.25276  1.0000
  N   N10       1.0  0.60707  0.87677  0.17502  1.0000
  O   O10       1.0  0.55891  0.85479  0.17014  1.0000
  C   C42       1.0  0.58349  0.86112  0.12710  1.0000
  H   H10       1.0  0.58379  0.85353  0.06450  1.0000
  C   C43       1.0  0.31045  0.44403  0.25804  1.0000
  C   C44       1.0  0.29433  0.41460  0.26081  1.0000
  N   N11       1.0  0.28069  0.40620  0.18260  1.0000
  O   O11       1.0  0.30658  0.45437  0.17908  1.0000
  C   C45       1.0  0.28878  0.42986  0.13492  1.0000
  H   H11       1.0  0.28065  0.42968  0.07284  1.0000
  C   C46       1.0  0.13086  0.68927  0.28133  1.0000
  C   C47       1.0  0.11729  0.70524  0.28166  1.0000
  N   N12       1.0  0.10851  0.70501  0.19787  1.0000
  O   O12       1.0  0.13100  0.67924  0.19749  1.0000
  C   C48       1.0  0.11604  0.68893  0.15042  1.0000
  H   H12       1.0  0.11292  0.68613  0.08250  1.0000
  C   C49       1.0  0.27888  0.52160  0.25363  1.0000
  C   C50       1.0  0.25326  0.52133  0.25351  1.0000
  N   N13       1.0  0.24042  0.50968  0.17607  1.0000
  O   O13       1.0  0.28235  0.51001  0.17687  1.0000
  C   C51       1.0  0.25810  0.50365  0.13166  1.0000
  H   H13       1.0  0.25334  0.49406  0.07003  1.0000
  C   C52       1.0  0.49129  0.75934  0.25384  1.0000
  C   C53       1.0  0.49153  0.73399  0.25609  1.0000
  N   N14       1.0  0.50297  0.73212  0.17906  1.0000
  O   O14       1.0  0.50267  0.77373  0.17585  1.0000
  C   C54       1.0  0.50894  0.75548  0.13257  1.0000
  H   H14       1.0  0.51833  0.75976  0.07066  1.0000
  C   C55       1.0  0.25319  0.73387  0.25586  1.0000
  C   C56       1.0  0.27852  0.75952  0.25567  1.0000
  N   N15       1.0  0.27980  0.77221  0.17784  1.0000
  O   O15       1.0  0.23816  0.73030  0.17896  1.0000
  C   C57       1.0  0.25621  0.75437  0.13314  1.0000
  H   H15       1.0  0.25127  0.75921  0.07183  1.0000
  C   C58       1.0  0.72754  0.47016  0.28665  1.0000
  C   C59       1.0  0.75321  0.47042  0.28713  1.0000
  N   N16       1.0  0.75705  0.46352  0.20445  1.0000
  O   O16       1.0  0.71508  0.46320  0.20400  1.0000
  C   C60       1.0  0.73403  0.45858  0.15768  1.0000
  H   H16       1.0  0.73194  0.45399  0.09046  1.0000
  C   C61       1.0  0.52433  0.25058  0.25115  1.0000
  C   C62       1.0  0.52413  0.27597  0.25007  1.0000
  N   N17       1.0  0.51256  0.27700  0.17227  1.0000
  O   O17       1.0  0.51280  0.23535  0.17462  1.0000
  C   C63       1.0  0.50652  0.25317  0.12858  1.0000
  H   H17       1.0  0.49699  0.24823  0.06687  1.0000
  C   C64       1.0  0.76212  0.27571  0.25349  1.0000
  C   C65       1.0  0.73675  0.25012  0.25594  1.0000
  N   N18       1.0  0.73488  0.23671  0.17914  1.0000
  O   O18       1.0  0.77651  0.27861  0.17560  1.0000
  C   C66       1.0  0.75825  0.25404  0.13257  1.0000
  H   H18       1.0  0.76254  0.24884  0.07080  1.0000
  C   C67       1.0  0.17524  0.61545  0.35902  1.0000
  C   C68       1.0  0.16485  0.59695  0.28426  1.0000
  C   C69       1.0  0.16511  0.57147  0.28331  1.0000
  C   C70       1.0  0.17499  0.56236  0.35683  1.0000
  N   N19       1.0  0.15756  0.56076  0.20081  1.0000
  O   O19       1.0  0.15730  0.60244  0.20259  1.0000
  C   C71       1.0  0.15232  0.57888  0.15552  1.0000
  H   H19       1.0  0.14721  0.57639  0.08868  1.0000
  C   C72       1.0  0.39754  0.56219  0.33864  1.0000
  C   C73       1.0  0.40691  0.57996  0.26205  1.0000
  C   C74       1.0  0.43237  0.60557  0.26279  1.0000
  C   C75       1.0  0.45057  0.61506  0.33834  1.0000
  N   N20       1.0  0.43409  0.61830  0.18464  1.0000
  O   O20       1.0  0.39236  0.57648  0.18410  1.0000
  C   C76       1.0  0.41058  0.60067  0.13919  1.0000
  H   H20       1.0  0.40621  0.60536  0.07678  1.0000
  C   C77       1.0  0.45086  0.83794  0.35740  1.0000
  C   C78       1.0  0.44298  0.84935  0.28483  1.0000
  C   C79       1.0  0.41712  0.84887  0.28479  1.0000
  C   C80       1.0  0.39787  0.83797  0.35746  1.0000
  N   N21       1.0  0.41425  0.85762  0.20387  1.0000
  O   O21       1.0  0.45630  0.85808  0.20389  1.0000
  C   C81       1.0  0.43777  0.86350  0.15840  1.0000
  H   H21       1.0  0.44081  0.86994  0.09275  1.0000
  C   C82       1.0  0.84076  0.39483  0.35769  1.0000
  C   C83       1.0  0.85161  0.41412  0.28500  1.0000
  C   C84       1.0  0.85116  0.43951  0.28632  1.0000
  C   C85       1.0  0.84065  0.44780  0.36026  1.0000
  N   N22       1.0  0.85945  0.45117  0.20523  1.0000
  O   O22       1.0  0.85999  0.40962  0.20328  1.0000
  C   C86       1.0  0.86524  0.43365  0.15862  1.0000
  H   H22       1.0  0.87104  0.43695  0.09238  1.0000
  C   C87       1.0  0.61794  0.44817  0.35195  1.0000
  C   C88       1.0  0.59993  0.43982  0.27595  1.0000
  C   C89       1.0  0.57441  0.41410  0.27469  1.0000
  C   C90       1.0  0.56473  0.39544  0.34910  1.0000
  N   N23       1.0  0.56421  0.41062  0.19136  1.0000
  O   O23       1.0  0.60595  0.45251  0.19366  1.0000
  C   C91       1.0  0.58265  0.43376  0.14584  1.0000
  H   H23       1.0  0.58057  0.43613  0.07852  1.0000
  C   C92       1.0  0.56484  0.17272  0.33868  1.0000
  C   C93       1.0  0.58269  0.18116  0.26226  1.0000
  C   C94       1.0  0.60829  0.18129  0.26314  1.0000
  C   C95       1.0  0.61772  0.17251  0.33868  1.0000
  N   N24       1.0  0.62105  0.19230  0.18503  1.0000
  O   O24       1.0  0.57926  0.19225  0.18427  1.0000
  C   C96       1.0  0.60346  0.19820  0.13950  1.0000
  H   H24       1.0  0.60819  0.20727  0.07707  1.0000
  C   C97       1.0  0.02313  0.30237  0.26191  1.0000
  C   C98       1.0  0.99354  0.28770  0.26266  1.0000
  N   N25       1.0  0.98530  0.29516  0.18823  1.0000
  O   O25       1.0  0.03352  0.31912  0.18765  1.0000
  C   C99       1.0  0.00906  0.31331  0.14497  1.0000
  H   H25       1.0  0.00890  0.32265  0.08557  1.0000
  C   C100      1.0  0.70900  0.72203  0.25829  1.0000
  C   C101      1.0  0.72366  0.70709  0.25842  1.0000
  N   N26       1.0  0.71493  0.69026  0.18659  1.0000
  O   O26       1.0  0.69100  0.71455  0.18693  1.0000
  C   C102      1.0  0.69602  0.69520  0.14536  1.0000
  H   H26       1.0  0.68568  0.68481  0.08815  1.0000
  C   C103      1.0  0.28974  0.99012  0.26568  1.0000
  C   C104      1.0  0.30474  0.01971  0.26763  1.0000
  N   N27       1.0  0.32038  0.02823  0.19314  1.0000
  O   O27       1.0  0.29607  0.98001  0.19068  1.0000
  C   C105      1.0  0.31461  0.00463  0.14850  1.0000
  H   H27       1.0  0.32428  0.00500  0.08927  1.0000
  C   C106      1.0  0.99259  0.72829  0.28954  1.0000
  C   C107      1.0  0.02231  0.74282  0.29041  1.0000
  N   N28       1.0  0.03082  0.75627  0.21201  1.0000
  O   O28       1.0  0.98251  0.73258  0.21086  1.0000
  C   C108      1.0  0.00718  0.75056  0.16763  1.0000
  H   H28       1.0  0.00755  0.75748  0.10347  1.0000
  C   C109      1.0  0.30474  0.28710  0.26626  1.0000
  C   C110      1.0  0.29015  0.30211  0.26804  1.0000
  N   N29       1.0  0.29738  0.31781  0.19367  1.0000
  O   O29       1.0  0.32120  0.29340  0.19131  1.0000
  C   C111      1.0  0.31532  0.31212  0.14938  1.0000
  H   H29       1.0  0.32446  0.32160  0.08976  1.0000
  C   C112      1.0  0.72521  0.02086  0.26208  1.0000
  C   C113      1.0  0.71024  0.99126  0.26235  1.0000
  N   N30       1.0  0.69404  0.98318  0.18901  1.0000
  O   O30       1.0  0.71832  0.03140  0.18937  1.0000
  C   C114      1.0  0.69935  0.00703  0.14695  1.0000
  H   H30       1.0  0.68945  0.00698  0.08859  1.0000
  C   C115      1.0  0.18349  0.33024  0.26279  1.0000
  C   C116      1.0  0.15806  0.33066  0.26396  1.0000
  N   N31       1.0  0.15593  0.34085  0.18472  1.0000
  O   O31       1.0  0.19748  0.34042  0.18344  1.0000
  C   C117      1.0  0.17890  0.34571  0.13787  1.0000
  H   H31       1.0  0.18321  0.35472  0.07537  1.0000
  C   C118      1.0  0.69754  0.86315  0.28056  1.0000
  C   C119      1.0  0.69722  0.83726  0.28224  1.0000
  N   N32       1.0  0.70202  0.83218  0.19832  1.0000
  O   O32       1.0  0.70251  0.87424  0.19597  1.0000
  C   C120      1.0  0.70593  0.85452  0.14966  1.0000
  H   H32       1.0  0.70884  0.85555  0.08150  1.0000
  C   C121      1.0  0.15707  0.82929  0.26350  1.0000
  C   C122      1.0  0.18291  0.85475  0.26442  1.0000
  N   N33       1.0  0.19523  0.85676  0.18528  1.0000
  O   O33       1.0  0.15319  0.81524  0.18424  1.0000
  C   C123      1.0  0.17720  0.83364  0.13890  1.0000
  H   H33       1.0  0.18165  0.82949  0.07583  1.0000
  C   C124      1.0  0.83171  0.67988  0.25406  1.0000
  C   C125      1.0  0.85712  0.67941  0.25423  1.0000
  N   N34       1.0  0.85888  0.66899  0.17496  1.0000
  O   O34       1.0  0.81737  0.66953  0.17536  1.0000
  C   C126      1.0  0.83560  0.66382  0.12940  1.0000
  H   H34       1.0  0.83127  0.65517  0.06639  1.0000
  C   C127      1.0  0.33274  0.15451  0.26364  1.0000
  C   C128      1.0  0.33316  0.18034  0.26496  1.0000
  N   N35       1.0  0.34334  0.19270  0.18574  1.0000
  O   O35       1.0  0.34291  0.15072  0.18422  1.0000
  C   C129      1.0  0.34821  0.17462  0.13877  1.0000
  H   H35       1.0  0.35720  0.17933  0.07626  1.0000
  C   C130      1.0  0.86564  0.17325  0.28320  1.0000
  C   C131      1.0  0.83974  0.14772  0.28509  1.0000
  N   N36       1.0  0.83467  0.13769  0.20133  1.0000
  O   O36       1.0  0.87675  0.17924  0.19863  1.0000
  C   C132      1.0  0.85704  0.15603  0.15257  1.0000
  H   H36       1.0  0.85808  0.15405  0.08447  1.0000
  C   C133      1.0  0.21566  0.52446  0.33396  1.0000
  C   C134      1.0  0.19365  0.49613  0.33457  1.0000
  C   C135      1.0  0.16516  0.48908  0.34256  1.0000
  C   C136      1.0  0.15872  0.51109  0.34785  1.0000
  C   C137      1.0  0.18056  0.53974  0.34859  1.0000
  C   C138      1.0  0.20896  0.54608  0.34263  1.0000
  H   H37       1.0  0.13814  0.50623  0.35457  1.0000
  H   H38       1.0  0.22496  0.56670  0.34275  1.0000
  H   H39       1.0  0.19853  0.48031  0.33130  1.0000
  C   C139      1.0  0.48845  0.69394  0.33997  1.0000
  C   C140      1.0  0.51670  0.70035  0.34763  1.0000
  C   C141      1.0  0.52374  0.67887  0.35457  1.0000
  C   C142      1.0  0.50177  0.65033  0.35198  1.0000
  C   C143      1.0  0.47317  0.64340  0.34368  1.0000
  C   C144      1.0  0.46684  0.66549  0.33901  1.0000
  H   H40       1.0  0.50664  0.63456  0.35538  1.0000
  H   H41       1.0  0.44629  0.66087  0.33327  1.0000
  H   H42       1.0  0.53245  0.72111  0.34823  1.0000
  C   C145      1.0  0.31919  0.79723  0.33603  1.0000
  C   C146      1.0  0.31289  0.81925  0.33634  1.0000
  C   C147      1.0  0.33433  0.84775  0.34374  1.0000
  C   C148      1.0  0.36280  0.85421  0.34854  1.0000
  C   C149      1.0  0.36963  0.83238  0.34979  1.0000
  C   C150      1.0  0.34754  0.80397  0.34436  1.0000
  H   H43       1.0  0.37850  0.87479  0.35494  1.0000
  H   H44       1.0  0.35214  0.78796  0.34450  1.0000
  H   H45       1.0  0.29218  0.81435  0.33334  1.0000
  C   C151      1.0  0.79958  0.48566  0.35590  1.0000
  C   C152      1.0  0.82138  0.51388  0.34700  1.0000
  C   C153      1.0  0.84990  0.52093  0.34023  1.0000
  C   C154      1.0  0.85650  0.49899  0.34460  1.0000
  C   C155      1.0  0.83489  0.47041  0.35443  1.0000
  C   C156      1.0  0.80646  0.46409  0.35860  1.0000
  H   H46       1.0  0.87715  0.50388  0.34120  1.0000
  H   H47       1.0  0.79051  0.44356  0.36474  1.0000
  H   H48       1.0  0.81631  0.52958  0.34522  1.0000
  C   C157      1.0  0.52712  0.31680  0.32914  1.0000
  C   C158      1.0  0.49876  0.31036  0.33063  1.0000
  C   C159      1.0  0.49160  0.33173  0.33810  1.0000
  C   C160      1.0  0.51352  0.36025  0.34180  1.0000
  C   C161      1.0  0.54221  0.36720  0.34136  1.0000
  C   C162      1.0  0.54868  0.34522  0.33613  1.0000
  H   H49       1.0  0.50858  0.37591  0.34838  1.0000
  H   H50       1.0  0.56933  0.34993  0.33591  1.0000
  H   H51       1.0  0.48300  0.28962  0.32859  1.0000
  C   C163      1.0  0.69663  0.21330  0.34005  1.0000
  C   C164      1.0  0.70294  0.19140  0.34802  1.0000
  C   C165      1.0  0.68139  0.16292  0.35533  1.0000
  C   C166      1.0  0.65288  0.15646  0.35274  1.0000
  C   C167      1.0  0.64604  0.17818  0.34408  1.0000
  C   C168      1.0  0.66820  0.20656  0.33907  1.0000
  H   H52       1.0  0.63706  0.13584  0.35643  1.0000
  H   H53       1.0  0.66366  0.22254  0.33313  1.0000
  H   H54       1.0  0.72368  0.19634  0.34867  1.0000
  C   C169      1.0  0.52702  0.21374  0.33709  1.0000
  C   C170      1.0  0.49871  0.19175  0.33726  1.0000
  C   C171      1.0  0.49159  0.16315  0.34026  1.0000
  C   C172      1.0  0.51360  0.15668  0.34474  1.0000
  C   C173      1.0  0.54227  0.17847  0.34376  1.0000
  C   C174      1.0  0.54865  0.20693  0.34089  1.0000
  H   H55       1.0  0.50874  0.13602  0.34432  1.0000
  H   H56       1.0  0.56927  0.22289  0.33875  1.0000
  H   H57       1.0  0.48294  0.19671  0.33414  1.0000
  C   C175      1.0  0.69680  0.48596  0.35484  1.0000
  C   C176      1.0  0.70319  0.51429  0.35408  1.0000
  C   C177      1.0  0.68176  0.52148  0.35065  1.0000
  C   C178      1.0  0.65326  0.49948  0.34622  1.0000
  C   C179      1.0  0.64630  0.47078  0.34808  1.0000
  C   C180      1.0  0.66835  0.46437  0.35123  1.0000
  H   H58       1.0  0.63749  0.50439  0.34590  1.0000
  H   H59       1.0  0.66368  0.44374  0.35308  1.0000
  H   H60       1.0  0.72394  0.53002  0.35647  1.0000
  C   C181      1.0  0.79983  0.31622  0.33422  1.0000
  C   C182      1.0  0.82188  0.31005  0.32780  1.0000
  C   C183      1.0  0.85048  0.33149  0.33083  1.0000
  C   C184      1.0  0.85692  0.35983  0.34149  1.0000
  C   C185      1.0  0.83512  0.36658  0.34930  1.0000
  C   C186      1.0  0.80666  0.34447  0.34622  1.0000
  H   H61       1.0  0.87758  0.37560  0.34381  1.0000
  H   H62       1.0  0.79065  0.34904  0.34982  1.0000
  H   H63       1.0  0.81693  0.28938  0.32186  1.0000
  C   C187      1.0  0.48862  0.79705  0.33486  1.0000
  C   C188      1.0  0.51683  0.81909  0.32824  1.0000
  C   C189      1.0  0.52399  0.84769  0.33094  1.0000
  C   C190      1.0  0.50208  0.85413  0.34155  1.0000
  C   C191      1.0  0.47352  0.83233  0.34973  1.0000
  C   C192      1.0  0.46719  0.80388  0.34685  1.0000
  H   H64       1.0  0.50696  0.87479  0.34349  1.0000
  H   H65       1.0  0.44662  0.78786  0.35037  1.0000
  H   H66       1.0  0.53254  0.81413  0.32225  1.0000
  C   C193      1.0  0.31871  0.52443  0.33819  1.0000
  C   C194      1.0  0.31235  0.49610  0.33812  1.0000
  C   C195      1.0  0.33382  0.48896  0.34059  1.0000
  C   C196      1.0  0.36232  0.51095  0.34481  1.0000
  C   C197      1.0  0.36922  0.53963  0.34390  1.0000
  C   C198      1.0  0.34715  0.54603  0.34166  1.0000
  H   H67       1.0  0.37811  0.50607  0.34381  1.0000
  H   H68       1.0  0.35182  0.56666  0.33963  1.0000
  H   H69       1.0  0.29162  0.48035  0.33525  1.0000
  C   C199      1.0  0.21616  0.69415  0.34074  1.0000
  C   C200      1.0  0.19424  0.70057  0.34330  1.0000
  C   C201      1.0  0.16574  0.67917  0.35121  1.0000
  C   C202      1.0  0.15920  0.65065  0.35412  1.0000
  C   C203      1.0  0.18096  0.64374  0.35335  1.0000
  C   C204      1.0  0.20939  0.66575  0.34742  1.0000
  H   H70       1.0  0.13859  0.63496  0.36023  1.0000
  H   H71       1.0  0.22533  0.66106  0.34571  1.0000
  H   H72       1.0  0.19919  0.72130  0.34064  1.0000
  C   C205      1.0  0.10763  0.36962  0.34728  1.0000
  C   C206      1.0  0.12739  0.36020  0.34904  1.0000
  C   C207      1.0  0.11891  0.33117  0.34626  1.0000
  C   C208      1.0  0.08949  0.31128  0.34405  1.0000
  C   C209      1.0  0.06897  0.32002  0.34083  1.0000
  C   C210      1.0  0.07865  0.34938  0.34184  1.0000
  H   H73       1.0  0.08299  0.29021  0.34085  1.0000
  H   H74       1.0  0.06430  0.35623  0.34062  1.0000
  H   H75       1.0  0.14850  0.37489  0.35084  1.0000
  C   C211      1.0  0.64326  0.74065  0.35218  1.0000
  C   C212      1.0  0.65288  0.76983  0.35831  1.0000
  C   C213      1.0  0.68188  0.79039  0.35388  1.0000
  C   C214      1.0  0.70158  0.78078  0.34382  1.0000
  C   C215      1.0  0.69274  0.75153  0.33719  1.0000
  C   C216      1.0  0.66336  0.73193  0.34067  1.0000
  H   H76       1.0  0.72267  0.79531  0.34099  1.0000
  H   H77       1.0  0.65642  0.71073  0.33790  1.0000
  H   H78       1.0  0.63828  0.77626  0.36460  1.0000
  C   C217      1.0  0.27238  0.90525  0.34763  1.0000
  C   C218      1.0  0.24318  0.88550  0.34870  1.0000
  C   C219      1.0  0.22266  0.89401  0.34636  1.0000
  C   C220      1.0  0.23223  0.92346  0.34553  1.0000
  C   C221      1.0  0.26151  0.94397  0.34300  1.0000
  C   C222      1.0  0.28116  0.93425  0.34340  1.0000
  H   H79       1.0  0.21769  0.93000  0.34299  1.0000
  H   H80       1.0  0.30236  0.94859  0.34279  1.0000
  H   H81       1.0  0.23675  0.86438  0.34994  1.0000
  C   C223      1.0  0.90783  0.64050  0.33771  1.0000
  C   C224      1.0  0.88826  0.65011  0.33162  1.0000
  C   C225      1.0  0.89672  0.67913  0.33538  1.0000
  C   C226      1.0  0.92605  0.69885  0.34458  1.0000
  C   C227      1.0  0.94646  0.69001  0.35104  1.0000
  C   C228      1.0  0.93669  0.66063  0.34828  1.0000
  H   H82       1.0  0.93261  0.71994  0.34696  1.0000
  H   H83       1.0  0.95095  0.65369  0.35106  1.0000
  H   H84       1.0  0.86721  0.63550  0.32586  1.0000
  C   C229      1.0  0.37218  0.26975  0.34767  1.0000
  C   C230      1.0  0.36275  0.24056  0.34923  1.0000
  C   C231      1.0  0.33370  0.22002  0.34751  1.0000
  C   C232      1.0  0.31382  0.22957  0.34667  1.0000
  C   C233      1.0  0.32257  0.25884  0.34368  1.0000
  C   C234      1.0  0.35194  0.27850  0.34355  1.0000
  H   H85       1.0  0.29274  0.21502  0.34433  1.0000
  H   H86       1.0  0.35880  0.29970  0.34250  1.0000
  H   H87       1.0  0.37744  0.23413  0.35017  1.0000
  C   C235      1.0  0.74312  0.10514  0.35486  1.0000
  C   C236      1.0  0.77229  0.12475  0.36087  1.0000
  C   C237      1.0  0.79289  0.11635  0.35700  1.0000
  C   C238      1.0  0.78335  0.08704  0.34777  1.0000
  C   C239      1.0  0.75411  0.06659  0.34136  1.0000
  C   C240      1.0  0.73446  0.07630  0.34409  1.0000
  H   H88       1.0  0.79791  0.08051  0.34537  1.0000
  H   H89       1.0  0.71327  0.06200  0.34132  1.0000
  H   H90       1.0  0.77869  0.14579  0.36668  1.0000
  C   C241      1.0  0.37213  0.10445  0.34438  1.0000
  C   C242      1.0  0.36262  0.12415  0.34398  1.0000
  C   C243      1.0  0.33358  0.11559  0.34642  1.0000
  C   C244      1.0  0.31376  0.08614  0.34883  1.0000
  C   C245      1.0  0.32256  0.06564  0.34673  1.0000
  C   C246      1.0  0.35195  0.07541  0.34605  1.0000
  H   H91       1.0  0.29265  0.07954  0.34742  1.0000
  H   H92       1.0  0.35886  0.06112  0.34438  1.0000
  H   H93       1.0  0.37728  0.14527  0.34179  1.0000
  C   C247      1.0  0.74286  0.64104  0.34311  1.0000
  C   C248      1.0  0.77208  0.65057  0.34324  1.0000
  C   C249      1.0  0.79252  0.67959  0.33817  1.0000
  C   C250      1.0  0.78286  0.69938  0.33522  1.0000
  C   C251      1.0  0.75355  0.69054  0.33351  1.0000
  C   C252      1.0  0.73398  0.66116  0.33710  1.0000
  H   H94       1.0  0.79735  0.72043  0.33055  1.0000
  H   H95       1.0  0.71276  0.65421  0.33769  1.0000
  H   H96       1.0  0.77858  0.63595  0.34580  1.0000
  C   C253      1.0  0.90855  0.27017  0.33858  1.0000
  C   C254      1.0  0.88881  0.24106  0.34510  1.0000
  C   C255      1.0  0.89737  0.22061  0.35081  1.0000
  C   C256      1.0  0.92680  0.23014  0.34803  1.0000
  C   C257      1.0  0.94731  0.25933  0.34025  1.0000
  C   C258      1.0  0.93756  0.27894  0.33695  1.0000
  H   H97       1.0  0.93335  0.21561  0.35079  1.0000
  H   H98       1.0  0.95183  0.30010  0.33220  1.0000
  H   H99       1.0  0.86770  0.23467  0.34605  1.0000
  C   C259      1.0  0.64345  0.90587  0.33695  1.0000
  C   C260      1.0  0.65295  0.88622  0.34309  1.0000
  C   C261      1.0  0.68199  0.89488  0.34850  1.0000
  C   C262      1.0  0.70179  0.92435  0.34571  1.0000
  C   C263      1.0  0.69302  0.94480  0.33817  1.0000
  C   C264      1.0  0.66361  0.93491  0.33536  1.0000
  H   H100      1.0  0.72289  0.93097  0.34830  1.0000
  H   H101      1.0  0.65662  0.94910  0.33106  1.0000
  H   H102      1.0  0.63830  0.86509  0.34408  1.0000
  C   C265      1.0  0.27287  0.36954  0.34423  1.0000
  C   C266      1.0  0.24368  0.36007  0.34351  1.0000
  C   C267      1.0  0.22317  0.33104  0.34585  1.0000
  C   C268      1.0  0.23275  0.31119  0.34846  1.0000
  C   C269      1.0  0.26204  0.31995  0.34683  1.0000
  C   C270      1.0  0.28169  0.34933  0.34619  1.0000
  H   H103      1.0  0.21822  0.29009  0.34715  1.0000
  H   H104      1.0  0.30289  0.35621  0.34481  1.0000
  H   H105      1.0  0.23724  0.37474  0.34119  1.0000
  C   C271      1.0  0.10727  0.74017  0.35397  1.0000
  C   C272      1.0  0.12689  0.76936  0.34993  1.0000
  C   C273      1.0  0.11818  0.78972  0.34671  1.0000
  C   C274      1.0  0.08871  0.78001  0.34918  1.0000
  C   C275      1.0  0.06829  0.75073  0.35463  1.0000
  C   C276      1.0  0.07821  0.73123  0.35573  1.0000
  H   H106      1.0  0.08206  0.79447  0.34807  1.0000
  H   H107      1.0  0.06402  0.71001  0.35877  1.0000
  H   H108      1.0  0.14803  0.77588  0.34887  1.0000
  C   C277      1.0  0.14403  0.44479  0.42773  1.0000
  C   C278      1.0  0.13099  0.41535  0.42712  1.0000
  N   N37       1.0  0.13629  0.40762  0.50646  1.0000
  O   O37       1.0  0.15807  0.45580  0.50649  1.0000
  C   C279      1.0  0.15176  0.43167  0.55242  1.0000
  H   H109      1.0  0.15930  0.43201  0.61562  1.0000
  C   C280      1.0  0.56849  0.70321  0.43739  1.0000
  C   C281      1.0  0.59792  0.71955  0.43473  1.0000
  N   N38       1.0  0.60610  0.73367  0.51218  1.0000
  O   O38       1.0  0.55794  0.70743  0.51529  1.0000
  C   C282      1.0  0.58233  0.72583  0.55891  1.0000
  H   H110      1.0  0.58237  0.73391  0.62097  1.0000
  C   C283      1.0  0.31114  0.86891  0.42868  1.0000
  C   C284      1.0  0.29470  0.88190  0.42778  1.0000
  N   N39       1.0  0.28165  0.87665  0.50709  1.0000
  O   O39       1.0  0.30800  0.85483  0.50742  1.0000
  C   C285      1.0  0.29037  0.86136  0.55348  1.0000
  H   H111      1.0  0.28275  0.85344  0.61604  1.0000
  C   C286      1.0  0.88589  0.56598  0.40709  1.0000
  C   C287      1.0  0.89928  0.59552  0.40712  1.0000
  N   N40       1.0  0.90906  0.60405  0.49010  1.0000
  O   O40       1.0  0.88688  0.55583  0.48996  1.0000
  C   C288      1.0  0.90236  0.58047  0.53658  1.0000
  H   H112      1.0  0.90622  0.58079  0.60401  1.0000
  C   C289      1.0  0.44766  0.30864  0.42501  1.0000
  C   C290      1.0  0.41823  0.29224  0.42561  1.0000
  N   N41       1.0  0.41082  0.27938  0.50527  1.0000
  O   O41       1.0  0.45899  0.30578  0.50331  1.0000
  C   C291      1.0  0.43506  0.28805  0.55022  1.0000
  H   H113      1.0  0.43565  0.28098  0.61342  1.0000
  C   C292      1.0  0.70552  0.14242  0.43885  1.0000
  C   C293      1.0  0.72186  0.12933  0.43670  1.0000
  N   N42       1.0  0.73586  0.13526  0.51439  1.0000
  O   O42       1.0  0.70962  0.15719  0.51669  1.0000
  C   C294      1.0  0.72795  0.15120  0.56077  1.0000
  H   H114      1.0  0.73593  0.15924  0.62291  1.0000
  C   C295      1.0  0.40146  0.11399  0.33843  1.0000
  C   C296      1.0  0.41722  0.11376  0.41370  1.0000
  C   C297      1.0  0.44679  0.12804  0.41178  1.0000
  C   C298      1.0  0.46254  0.14239  0.33443  1.0000
  N   N43       1.0  0.45541  0.12756  0.49528  1.0000
  O   O43       1.0  0.40714  0.10418  0.49796  1.0000
  C   C299      1.0  0.43180  0.11276  0.54396  1.0000
  H   H115      1.0  0.43225  0.11005  0.61189  1.0000
  C   C300      1.0  0.72308  0.61170  0.34962  1.0000
  C   C301      1.0  0.72136  0.59647  0.42856  1.0000
  C   C302      1.0  0.70570  0.56700  0.43037  1.0000
  C   C303      1.0  0.69020  0.55060  0.35527  1.0000
  N   N44       1.0  0.71048  0.55893  0.50996  1.0000
  O   O44       1.0  0.73599  0.60714  0.50659  1.0000
  C   C304      1.0  0.72793  0.58283  0.55394  1.0000
  H   H116      1.0  0.73542  0.58284  0.61696  1.0000
  C   C305      1.0  0.89910  0.29000  0.33166  1.0000
  C   C306      1.0  0.89947  0.30628  0.40623  1.0000
  C   C307      1.0  0.88540  0.32176  0.40327  1.0000
  C   C308      1.0  0.87120  0.32313  0.32545  1.0000
  N   N45       1.0  0.88608  0.33129  0.48628  1.0000
  O   O45       1.0  0.90910  0.30606  0.49064  1.0000
  C   C309      1.0  0.90061  0.32235  0.53577  1.0000
  H   H117      1.0  0.90374  0.32611  0.60336  1.0000
  C   C310      1.0  0.61413  0.89631  0.33042  1.0000
  C   C311      1.0  0.59829  0.89679  0.40506  1.0000
  C   C312      1.0  0.56875  0.88279  0.40245  1.0000
  C   C313      1.0  0.55309  0.86839  0.32500  1.0000
  N   N46       1.0  0.56002  0.88375  0.48542  1.0000
  O   O46       1.0  0.60829  0.90675  0.48910  1.0000
  C   C314      1.0  0.58358  0.89852  0.53439  1.0000
  H   H118      1.0  0.58304  0.90163  0.60204  1.0000
  C   C315      1.0  0.29270  0.39887  0.33839  1.0000
  C   C316      1.0  0.30877  0.41458  0.41362  1.0000
  C   C317      1.0  0.32412  0.44414  0.41178  1.0000
  C   C318      1.0  0.32549  0.45991  0.33452  1.0000
  N   N47       1.0  0.33326  0.45273  0.49527  1.0000
  O   O47       1.0  0.30828  0.40446  0.49781  1.0000
  C   C319      1.0  0.32442  0.42909  0.54385  1.0000
  H   H119      1.0  0.32759  0.42951  0.61177  1.0000
  C   C320      1.0  0.11692  0.72046  0.35818  1.0000
  C   C321      1.0  0.13077  0.71840  0.43579  1.0000
  C   C322      1.0  0.14464  0.70279  0.43498  1.0000
  C   C323      1.0  0.14518  0.68764  0.35844  1.0000
  N   N48       1.0  0.15783  0.70722  0.51380  1.0000
  O   O48       1.0  0.13500  0.73263  0.51481  1.0000
  C   C324      1.0  0.15150  0.72442  0.55993  1.0000
  H   H120      1.0  0.15923  0.73161  0.62297  1.0000
  C   C325      1.0  0.24389  0.53038  0.32838  1.0000
  C   C326      1.0  0.26205  0.54034  0.40392  1.0000
  C   C327      1.0  0.28735  0.53984  0.40494  1.0000
  C   C328      1.0  0.29650  0.53041  0.33051  1.0000
  N   N49       1.0  0.29792  0.54694  0.48777  1.0000
  O   O49       1.0  0.25635  0.54742  0.48608  1.0000
  C   C329      1.0  0.27971  0.55194  0.53348  1.0000
  H   H121      1.0  0.28222  0.55702  0.60034  1.0000
  C   C330      1.0  0.48253  0.71616  0.33234  1.0000
  C   C331      1.0  0.47284  0.72499  0.40694  1.0000
  C   C332      1.0  0.47326  0.75075  0.40549  1.0000
  C   C333      1.0  0.48267  0.76880  0.32968  1.0000
  N   N50       1.0  0.46621  0.75476  0.48774  1.0000
  O   O50       1.0  0.46572  0.71271  0.48980  1.0000
  C   C334      1.0  0.46111  0.73181  0.53522  1.0000
  H   H122      1.0  0.45635  0.72983  0.60231  1.0000
  C   C335      1.0  0.29688  0.76900  0.33067  1.0000
  C   C336      1.0  0.28865  0.75094  0.40648  1.0000
  C   C337      1.0  0.26290  0.72558  0.40749  1.0000
  C   C338      1.0  0.24435  0.71636  0.33293  1.0000
  N   N51       1.0  0.25930  0.71525  0.49070  1.0000
  O   O51       1.0  0.30130  0.75684  0.48888  1.0000
  C   C339      1.0  0.28250  0.73349  0.53641  1.0000
  H   H123      1.0  0.28475  0.73137  0.60377  1.0000
  C   C340      1.0  0.77142  0.47973  0.36245  1.0000
  C   C341      1.0  0.76242  0.48857  0.43871  1.0000
  C   C342      1.0  0.73711  0.48892  0.43744  1.0000
  C   C343      1.0  0.71900  0.47995  0.36176  1.0000
  N   N52       1.0  0.73559  0.50046  0.51471  1.0000
  O   O52       1.0  0.77719  0.50011  0.51594  1.0000
  C   C344      1.0  0.75911  0.50641  0.56021  1.0000
  H   H124      1.0  0.76367  0.51591  0.62197  1.0000
  C   C345      1.0  0.53311  0.29454  0.32455  1.0000
  C   C346      1.0  0.54294  0.28647  0.40074  1.0000
  C   C347      1.0  0.54238  0.26064  0.40273  1.0000
  C   C348      1.0  0.53298  0.24191  0.32870  1.0000
  N   N53       1.0  0.54935  0.25733  0.48591  1.0000
  O   O53       1.0  0.54992  0.29942  0.48265  1.0000
  C   C349      1.0  0.55434  0.28065  0.53089  1.0000
  H   H125      1.0  0.55932  0.28335  0.59783  1.0000
  C   C350      1.0  0.71892  0.24141  0.33217  1.0000
  C   C351      1.0  0.72774  0.26004  0.40648  1.0000
  C   C352      1.0  0.75350  0.28536  0.40481  1.0000
  C   C353      1.0  0.77157  0.29390  0.32904  1.0000
  N   N54       1.0  0.75750  0.29655  0.48688  1.0000
  O   O54       1.0  0.71543  0.25501  0.48928  1.0000
  C   C354      1.0  0.73454  0.27877  0.53445  1.0000
  H   H126      1.0  0.73255  0.28166  0.60144  1.0000
  C   C355      1.0  0.18473  0.58056  0.43236  1.0000
  C   C356      1.0  0.18507  0.60628  0.43250  1.0000
  N   N55       1.0  0.19743  0.61942  0.50886  1.0000
  O   O55       1.0  0.19707  0.57745  0.50786  1.0000
  C   C357      1.0  0.20374  0.60184  0.55274  1.0000
  H   H127      1.0  0.21420  0.60701  0.61290  1.0000
  C   C358      1.0  0.44166  0.59685  0.41394  1.0000
  C   C359      1.0  0.41585  0.57143  0.41386  1.0000
  N   N56       1.0  0.41195  0.56090  0.49684  1.0000
  O   O56       1.0  0.45404  0.60247  0.49669  1.0000
  C   C360      1.0  0.43498  0.57906  0.54345  1.0000
  H   H128      1.0  0.43706  0.57669  0.61077  1.0000
  C   C361      1.0  0.40622  0.82746  0.43127  1.0000
  C   C362      1.0  0.43168  0.82728  0.43039  1.0000
  N   N57       1.0  0.43230  0.81409  0.50500  1.0000
  O   O57       1.0  0.39063  0.81432  0.50583  1.0000
  C   C363      1.0  0.40821  0.80707  0.54873  1.0000
  H   H129      1.0  0.40297  0.79627  0.60827  1.0000
  C   C364      1.0  0.83074  0.42890  0.43417  1.0000
  C   C365      1.0  0.83054  0.40326  0.43199  1.0000
  N   N58       1.0  0.81796  0.38943  0.50724  1.0000
  O   O58       1.0  0.81821  0.43131  0.51037  1.0000
  C   C366      1.0  0.81125  0.40646  0.55261  1.0000
  H   H130      1.0  0.80097  0.40092  0.61305  1.0000
  C   C367      1.0  0.58240  0.40421  0.42590  1.0000
  C   C368      1.0  0.60814  0.42955  0.42647  1.0000
  N   N59       1.0  0.62067  0.43066  0.50451  1.0000
  O   O59       1.0  0.57871  0.38909  0.50266  1.0000
  C   C369      1.0  0.60275  0.40701  0.54878  1.0000
  H   H131      1.0  0.60746  0.40199  0.61017  1.0000
  C   C370      1.0  0.59946  0.16321  0.41417  1.0000
  C   C371      1.0  0.57405  0.16362  0.41395  1.0000
  N   N60       1.0  0.56346  0.15694  0.49683  1.0000
  O   O60       1.0  0.60501  0.15638  0.49692  1.0000
  C   C372      1.0  0.58158  0.15203  0.54353  1.0000
  H   H132      1.0  0.57915  0.14753  0.61081  1.0000
  C   C373      1.0  0.97719  0.26988  0.33436  1.0000
  C   C374      1.0  0.99316  0.26756  0.40571  1.0000
  C   C375      1.0  0.02286  0.28270  0.40567  1.0000
  C   C376      1.0  0.03914  0.30070  0.33426  1.0000
  N   N61       1.0  0.03116  0.27845  0.48552  1.0000
  O   O61       1.0  0.98283  0.25402  0.48553  1.0000
  C   C377      1.0  0.00737  0.26115  0.53035  1.0000
  H   H133      1.0  0.00756  0.25494  0.59510  1.0000
  C   C378      1.0  0.74284  0.70974  0.32717  1.0000
  C   C379      1.0  0.74636  0.72909  0.39645  1.0000
  C   C380      1.0  0.73126  0.74370  0.39714  1.0000
  C   C381      1.0  0.71193  0.74085  0.32867  1.0000
  N   N62       1.0  0.73696  0.75748  0.47514  1.0000
  O   O62       1.0  0.76139  0.73358  0.47381  1.0000
  C   C382      1.0  0.75516  0.75177  0.51786  1.0000
  H   H134      1.0  0.76234  0.75897  0.58135  1.0000
  C   C383      1.0  0.30332  0.03577  0.34030  1.0000
  C   C384      1.0  0.28503  0.01958  0.41131  1.0000
  C   C385      1.0  0.27038  0.98987  0.41003  1.0000
  C   C386      1.0  0.27211  0.97385  0.33777  1.0000
  N   N63       1.0  0.25798  0.98131  0.49000  1.0000
  O   O63       1.0  0.28194  0.02963  0.49182  1.0000
  C   C387      1.0  0.26446  0.00494  0.53579  1.0000
  H   H135      1.0  0.25845  0.00453  0.60117  1.0000
  C   C388      1.0  0.03835  0.73997  0.36039  1.0000
  C   C389      1.0  0.02204  0.72154  0.43101  1.0000
  C   C390      1.0  0.99244  0.70673  0.42943  1.0000
  C   C391      1.0  0.97634  0.70922  0.35896  1.0000
  N   N64       1.0  0.98390  0.69018  0.50193  1.0000
  O   O64       1.0  0.03212  0.71429  0.50412  1.0000
  C   C392      1.0  0.00750  0.69516  0.54500  1.0000
  H   H136      1.0  0.00710  0.68499  0.60312  1.0000
  C   C393      1.0  0.27261  0.30067  0.34055  1.0000
  C   C394      1.0  0.27048  0.28239  0.41163  1.0000
  C   C395      1.0  0.28556  0.26776  0.41056  1.0000
  C   C396      1.0  0.30328  0.26942  0.33835  1.0000
  N   N65       1.0  0.28153  0.25522  0.49033  1.0000
  O   O65       1.0  0.25719  0.27920  0.49190  1.0000
  C   C397      1.0  0.26443  0.26177  0.53605  1.0000
  H   H137      1.0  0.25840  0.25537  0.60092  1.0000
  C   C398      1.0  0.71227  0.97474  0.33249  1.0000
  C   C399      1.0  0.73123  0.99059  0.40261  1.0000
  C   C400      1.0  0.74589  0.02030  0.40305  1.0000
  C   C401      1.0  0.74350  0.03674  0.33348  1.0000
  N   N66       1.0  0.75922  0.02841  0.48179  1.0000
  O   O66       1.0  0.73523  0.98009  0.48088  1.0000
  C   C402      1.0  0.75321  0.00453  0.52520  1.0000
  H   H138      1.0  0.76002  0.00458  0.58929  1.0000
  C   C403      1.0  0.14055  0.32371  0.34104  1.0000
  C   C404      1.0  0.15071  0.31635  0.41829  1.0000
  C   C405      1.0  0.17658  0.31665  0.41773  1.0000
  C   C406      1.0  0.19403  0.32351  0.34046  1.0000
  N   N67       1.0  0.18179  0.31262  0.50237  1.0000
  O   O67       1.0  0.13981  0.31231  0.50298  1.0000
  C   C407      1.0  0.15956  0.30926  0.55049  1.0000
  H   H139      1.0  0.15857  0.30687  0.61886  1.0000
  C   C408      1.0  0.68946  0.81959  0.35919  1.0000
  C   C409      1.0  0.68191  0.83005  0.43537  1.0000
  C   C410      1.0  0.68164  0.85555  0.43305  1.0000
  C   C411      1.0  0.68955  0.87333  0.35637  1.0000
  N   N68       1.0  0.67074  0.85762  0.51095  1.0000
  O   O68       1.0  0.67105  0.81601  0.51425  1.0000
  C   C412      1.0  0.66515  0.83446  0.55794  1.0000
  H   H140      1.0  0.65612  0.83037  0.62040  1.0000
  C   C413      1.0  0.19352  0.87241  0.34126  1.0000
  C   C414      1.0  0.17605  0.86221  0.41860  1.0000
  C   C415      1.0  0.15050  0.83632  0.41826  1.0000
  C   C416      1.0  0.13971  0.81888  0.34103  1.0000
  N   N69       1.0  0.14124  0.83120  0.50289  1.0000
  O   O69       1.0  0.18294  0.87318  0.50321  1.0000
  C   C417      1.0  0.16024  0.85339  0.55094  1.0000
  H   H141      1.0  0.15865  0.85462  0.61914  1.0000
  C   C418      1.0  0.87511  0.68671  0.33033  1.0000
  C   C419      1.0  0.86530  0.69441  0.40774  1.0000
  C   C420      1.0  0.83943  0.69410  0.40834  1.0000
  C   C421      1.0  0.82163  0.68703  0.33193  1.0000
  N   N70       1.0  0.83473  0.69866  0.49298  1.0000
  O   O70       1.0  0.87670  0.69894  0.49184  1.0000
  C   C422      1.0  0.85721  0.70222  0.54009  1.0000
  H   H142      1.0  0.85862  0.70503  0.60830  1.0000
  C   C423      1.0  0.32621  0.19090  0.34208  1.0000
  C   C424      1.0  0.31889  0.17334  0.41926  1.0000
  C   C425      1.0  0.31920  0.14777  0.41857  1.0000
  C   C426      1.0  0.32603  0.13719  0.34122  1.0000
  N   N71       1.0  0.31519  0.13851  0.50317  1.0000
  O   O71       1.0  0.31487  0.18018  0.50402  1.0000
  C   C427      1.0  0.31184  0.15737  0.55142  1.0000
  H   H143      1.0  0.30947  0.15595  0.61979  1.0000
  C   C428      1.0  0.82206  0.13801  0.36206  1.0000
  C   C429      1.0  0.83253  0.15604  0.43816  1.0000
  C   C430      1.0  0.85804  0.18180  0.43560  1.0000
  C   C431      1.0  0.87574  0.19154  0.35872  1.0000
  N   N72       1.0  0.86015  0.19485  0.51336  1.0000
  O   O72       1.0  0.81852  0.15295  0.51702  1.0000
  C   C432      1.0  0.83700  0.17733  0.56051  1.0000
  H   H144      1.0  0.83295  0.18233  0.62291  1.0000
