data_image0
_chemical_formula_structural       C4HNO2C4HNO2C4HNO2C4HNO2C4HNO2C4HNO2C2H2C2H2C2H2C2H2C2H2C2H2C2H2C2H2C2H2C2H2C2H2C2H2C4HNO2C4HNO2C4HNO2C4HNO2C4HNO2C4HNO2C2H2C2H2C2H2C2H2C2H2C2H2C2H2C2H2C2H2C2H2C2H2C2H2C6H3C6H3C6H3C6H3C6H3C6H3C6H3C6H3C6H3C6H3C6H3C6H3C6H3C6H3C6H3C6H3C6H3C6H3C6H3C6H3C6H3C6H3C6H3C6H3C2H2C2H2C2H2C2H2C2H2C2H2C4HNO2C4HNO2C4HNO2C4HNO2C4HNO2C4HNO2C4HNO2C4HNO2C4HNO2C4HNO2C4HNO2C4HNO2C2H2C2H2C2H2C2H2C2H2C2H2C4HNO2C4HNO2C4HNO2C4HNO2C4HNO2C4HNO2C4HNO2C4HNO2C4HNO2C4HNO2C4HNO2C4HNO2
_chemical_formula_sum              "C360 H180 N36 O72"
_cell_length_a       54.3505
_cell_length_b       54.3506
_cell_length_c       14.8196
_cell_angle_alpha    90
_cell_angle_beta     90
_cell_angle_gamma    120

_space_group_name_H-M_alt    "P 1"
_space_group_IT_number       1

loop_
  _space_group_symop_operation_xyz
  'x, y, z'

loop_
  _atom_site_type_symbol
  _atom_site_label
  _atom_site_symmetry_multiplicity
  _atom_site_fract_x
  _atom_site_fract_y
  _atom_site_fract_z
  _atom_site_occupancy
  C   C1        1.0  0.14544  0.46015  0.34206  1.0000
  C   C2        1.0  0.13960  0.44501  0.25999  1.0000
  C   C3        1.0  0.12573  0.41491  0.25833  1.0000
  C   C4        1.0  0.11737  0.39958  0.34078  1.0000
  H   H1        1.0  0.14716  0.45596  0.20076  1.0000
  N   N1        1.0  0.12135  0.39989  0.17631  1.0000
  O   O1        1.0  0.14446  0.40670  0.13757  1.0000
  O   O2        1.0  0.10596  0.40434  0.12326  1.0000
  C   C5        1.0  0.55507  0.68829  0.34242  1.0000
  C   C6        1.0  0.57019  0.69763  0.26030  1.0000
  C   C7        1.0  0.60029  0.71390  0.25861  1.0000
  C   C8        1.0  0.61563  0.72084  0.34105  1.0000
  H   H2        1.0  0.55923  0.69432  0.20112  1.0000
  N   N2        1.0  0.61529  0.72458  0.17658  1.0000
  O   O3        1.0  0.60844  0.74087  0.13797  1.0000
  O   O4        1.0  0.61086  0.70476  0.12344  1.0000
  C   C9        1.0  0.32688  0.86977  0.34207  1.0000
  C   C10       1.0  0.31756  0.87560  0.26000  1.0000
  C   C11       1.0  0.30133  0.88946  0.25833  1.0000
  C   C12       1.0  0.29437  0.89783  0.34081  1.0000
  H   H3        1.0  0.32095  0.86803  0.20077  1.0000
  N   N3        1.0  0.29069  0.89385  0.17632  1.0000
  O   O5        1.0  0.27439  0.87073  0.13759  1.0000
  O   O6        1.0  0.31053  0.90923  0.12327  1.0000
  C   C13       1.0  0.87285  0.55204  0.34239  1.0000
  C   C14       1.0  0.87867  0.56715  0.26025  1.0000
  C   C15       1.0  0.89249  0.59725  0.25859  1.0000
  C   C16       1.0  0.90088  0.61259  0.34103  1.0000
  H   H4        1.0  0.87103  0.55619  0.20106  1.0000
  N   N4        1.0  0.89683  0.61225  0.17656  1.0000
  O   O7        1.0  0.87370  0.60541  0.13789  1.0000
  O   O8        1.0  0.91222  0.60782  0.12346  1.0000
  C   C17       1.0  0.46318  0.32381  0.34213  1.0000
  C   C18       1.0  0.44805  0.31449  0.26003  1.0000
  C   C19       1.0  0.41796  0.29826  0.25835  1.0000
  C   C20       1.0  0.40262  0.29131  0.34080  1.0000
  H   H5        1.0  0.45902  0.31788  0.20081  1.0000
  N   N5        1.0  0.40294  0.28762  0.17633  1.0000
  O   O9        1.0  0.40976  0.27132  0.13763  1.0000
  O   O10       1.0  0.40740  0.30746  0.12325  1.0000
  C   C21       1.0  0.69135  0.14238  0.34237  1.0000
  C   C22       1.0  0.70068  0.13656  0.26028  1.0000
  C   C23       1.0  0.71695  0.12274  0.25860  1.0000
  C   C24       1.0  0.72390  0.11435  0.34105  1.0000
  H   H6        1.0  0.69736  0.14419  0.20108  1.0000
  N   N6        1.0  0.72762  0.11840  0.17656  1.0000
  O   O11       1.0  0.74390  0.14153  0.13791  1.0000
  O   O12       1.0  0.70779  0.10301  0.12346  1.0000
  C   C25       1.0  0.41802  0.11938  0.26959  1.0000
  C   C26       1.0  0.44792  0.13333  0.26974  1.0000
  H   H7        1.0  0.40762  0.11454  0.20891  1.0000
  H   H8        1.0  0.45842  0.13852  0.20922  1.0000
  C   C27       1.0  0.71354  0.59718  0.26957  1.0000
  C   C28       1.0  0.69754  0.56729  0.26968  1.0000
  H   H9        1.0  0.71902  0.60760  0.20890  1.0000
  H   H10       1.0  0.69220  0.55678  0.20917  1.0000
  C   C29       1.0  0.89583  0.30169  0.26969  1.0000
  C   C30       1.0  0.88189  0.31764  0.26983  1.0000
  H   H11       1.0  0.90067  0.29612  0.20901  1.0000
  H   H12       1.0  0.87669  0.32294  0.20932  1.0000
  C   C31       1.0  0.60024  0.89280  0.26955  1.0000
  C   C32       1.0  0.57034  0.87890  0.26962  1.0000
  H   H13       1.0  0.61066  0.89776  0.20890  1.0000
  H   H14       1.0  0.55984  0.87375  0.20911  1.0000
  C   C33       1.0  0.30473  0.41500  0.26963  1.0000
  C   C34       1.0  0.32068  0.44490  0.26978  1.0000
  H   H15       1.0  0.29916  0.40460  0.20895  1.0000
  H   H16       1.0  0.32599  0.45540  0.20928  1.0000
  C   C35       1.0  0.12245  0.71051  0.26953  1.0000
  C   C36       1.0  0.13636  0.69451  0.26961  1.0000
  H   H17       1.0  0.11752  0.71599  0.20888  1.0000
  H   H18       1.0  0.14152  0.68917  0.20911  1.0000
  C   C37       1.0  0.26061  0.53490  0.26975  1.0000
  C   C38       1.0  0.28650  0.53494  0.26941  1.0000
  H   H19       1.0  0.25181  0.53553  0.20928  1.0000
  H   H20       1.0  0.29592  0.53564  0.20888  1.0000
  C   C39       1.0  0.48038  0.72879  0.26958  1.0000
  C   C40       1.0  0.48028  0.75461  0.26928  1.0000
  H   H21       1.0  0.47967  0.71932  0.20913  1.0000
  H   H22       1.0  0.47956  0.76333  0.20878  1.0000
  C   C41       1.0  0.28646  0.75460  0.26982  1.0000
  C   C42       1.0  0.26061  0.72870  0.26949  1.0000
  H   H23       1.0  0.29589  0.76340  0.20934  1.0000
  H   H24       1.0  0.25189  0.71928  0.20897  1.0000
  C   C43       1.0  0.75768  0.47733  0.26959  1.0000
  C   C44       1.0  0.73175  0.47723  0.26929  1.0000
  H   H25       1.0  0.76644  0.47663  0.20915  1.0000
  H   H26       1.0  0.72231  0.47651  0.20879  1.0000
  C   C45       1.0  0.53794  0.28342  0.26975  1.0000
  C   C46       1.0  0.53799  0.25757  0.26939  1.0000
  H   H27       1.0  0.53856  0.29285  0.20930  1.0000
  H   H28       1.0  0.53868  0.24884  0.20886  1.0000
  C   C47       1.0  0.73185  0.25755  0.26950  1.0000
  C   C48       1.0  0.75767  0.28347  0.26918  1.0000
  H   H29       1.0  0.72237  0.24878  0.20906  1.0000
  H   H30       1.0  0.76639  0.29290  0.20868  1.0000
  C   C49       1.0  0.17549  0.61549  0.34021  1.0000
  C   C50       1.0  0.17770  0.60349  0.25820  1.0000
  C   C51       1.0  0.17787  0.57748  0.25638  1.0000
  C   C52       1.0  0.17562  0.56306  0.33854  1.0000
  H   H31       1.0  0.18069  0.61445  0.19919  1.0000
  N   N7        1.0  0.18144  0.56618  0.17452  1.0000
  O   O13       1.0  0.20469  0.58295  0.13732  1.0000
  O   O14       1.0  0.16164  0.56083  0.12020  1.0000
  C   C53       1.0  0.39973  0.56307  0.34026  1.0000
  C   C54       1.0  0.41171  0.57727  0.25824  1.0000
  C   C55       1.0  0.43771  0.60347  0.25648  1.0000
  C   C56       1.0  0.45213  0.61561  0.33867  1.0000
  H   H32       1.0  0.40073  0.56934  0.19926  1.0000
  N   N8        1.0  0.44900  0.61835  0.17463  1.0000
  O   O15       1.0  0.43222  0.62483  0.13747  1.0000
  O   O16       1.0  0.45436  0.60392  0.12027  1.0000
  C   C57       1.0  0.45215  0.83971  0.34019  1.0000
  C   C58       1.0  0.43795  0.83751  0.25818  1.0000
  C   C59       1.0  0.41177  0.83734  0.25639  1.0000
  C   C60       1.0  0.39962  0.83959  0.33859  1.0000
  H   H33       1.0  0.44592  0.83453  0.19917  1.0000
  N   N9        1.0  0.39690  0.83378  0.17454  1.0000
  O   O17       1.0  0.39042  0.81053  0.13732  1.0000
  O   O18       1.0  0.41135  0.85359  0.12023  1.0000
  C   C61       1.0  0.84278  0.39670  0.34031  1.0000
  C   C62       1.0  0.84055  0.40869  0.25829  1.0000
  C   C63       1.0  0.84034  0.43467  0.25650  1.0000
  C   C64       1.0  0.84263  0.44911  0.33867  1.0000
  H   H34       1.0  0.83749  0.39770  0.19931  1.0000
  N   N10       1.0  0.83674  0.44595  0.17465  1.0000
  O   O19       1.0  0.81349  0.42917  0.13751  1.0000
  O   O20       1.0  0.85653  0.45132  0.12028  1.0000
  C   C65       1.0  0.61851  0.44910  0.34018  1.0000
  C   C66       1.0  0.60652  0.43489  0.25818  1.0000
  C   C67       1.0  0.58051  0.40871  0.25638  1.0000
  C   C68       1.0  0.56608  0.39655  0.33856  1.0000
  H   H35       1.0  0.61747  0.44286  0.19916  1.0000
  N   N11       1.0  0.56920  0.39384  0.17453  1.0000
  O   O21       1.0  0.58596  0.38735  0.13734  1.0000
  O   O22       1.0  0.56385  0.40829  0.12020  1.0000
  C   C69       1.0  0.56610  0.17246  0.34020  1.0000
  C   C70       1.0  0.58031  0.17466  0.25821  1.0000
  C   C71       1.0  0.60651  0.17488  0.25646  1.0000
  C   C72       1.0  0.61867  0.17263  0.33867  1.0000
  H   H36       1.0  0.57238  0.17770  0.19922  1.0000
  N   N12       1.0  0.62140  0.17846  0.17461  1.0000
  O   O23       1.0  0.62786  0.20170  0.13739  1.0000
  O   O24       1.0  0.60696  0.15864  0.12029  1.0000
  C   C73       1.0  0.99399  0.27576  0.26692  1.0000
  C   C74       1.0  0.02398  0.29078  0.26640  1.0000
  H   H37       1.0  0.98348  0.27061  0.20641  1.0000
  H   H38       1.0  0.03435  0.29604  0.20567  1.0000
  C   C75       1.0  0.73944  0.72124  0.26686  1.0000
  C   C76       1.0  0.72445  0.73625  0.26635  1.0000
  H   H39       1.0  0.74466  0.71596  0.20636  1.0000
  H   H40       1.0  0.71921  0.74139  0.20563  1.0000
  C   C77       1.0  0.29397  0.02123  0.26690  1.0000
  C   C78       1.0  0.27899  0.99123  0.26641  1.0000
  H   H41       1.0  0.29932  0.03174  0.20639  1.0000
  H   H42       1.0  0.27388  0.98086  0.20569  1.0000
  C   C79       1.0  0.02427  0.73640  0.26679  1.0000
  C   C80       1.0  0.99427  0.72142  0.26629  1.0000
  H   H43       1.0  0.03478  0.74164  0.20630  1.0000
  H   H44       1.0  0.98390  0.71620  0.20558  1.0000
  C   C81       1.0  0.27885  0.29095  0.26690  1.0000
  C   C82       1.0  0.29386  0.27596  0.26639  1.0000
  H   H45       1.0  0.27370  0.29631  0.20639  1.0000
  H   H46       1.0  0.29913  0.27086  0.20567  1.0000
  C   C83       1.0  0.72433  0.99096  0.26683  1.0000
  C   C84       1.0  0.73935  0.02096  0.26632  1.0000
  H   H47       1.0  0.71907  0.98045  0.20633  1.0000
  H   H48       1.0  0.74452  0.03134  0.20562  1.0000
  C   C85       1.0  0.15425  0.32256  0.26724  1.0000
  C   C86       1.0  0.18027  0.32262  0.26668  1.0000
  H   H49       1.0  0.14556  0.32330  0.20672  1.0000
  H   H50       1.0  0.18957  0.32336  0.20591  1.0000
  C   C87       1.0  0.69269  0.83476  0.26719  1.0000
  C   C88       1.0  0.69267  0.86074  0.26659  1.0000
  H   H51       1.0  0.69205  0.82537  0.20667  1.0000
  H   H52       1.0  0.69198  0.86932  0.20581  1.0000
  C   C89       1.0  0.18047  0.86097  0.26731  1.0000
  C   C90       1.0  0.15452  0.83495  0.26672  1.0000
  H   H53       1.0  0.18992  0.86966  0.20679  1.0000
  H   H54       1.0  0.14597  0.82564  0.20594  1.0000
  C   C91       1.0  0.86403  0.68968  0.26718  1.0000
  C   C92       1.0  0.83804  0.68966  0.26657  1.0000
  H   H55       1.0  0.87280  0.68907  0.20666  1.0000
  H   H56       1.0  0.82875  0.68898  0.20581  1.0000
  C   C93       1.0  0.32560  0.17743  0.26729  1.0000
  C   C94       1.0  0.32567  0.15148  0.26670  1.0000
  H   H57       1.0  0.32637  0.18689  0.20678  1.0000
  H   H58       1.0  0.32644  0.14293  0.20592  1.0000
  C   C95       1.0  0.83783  0.15119  0.26714  1.0000
  C   C96       1.0  0.86380  0.17719  0.26652  1.0000
  H   H59       1.0  0.82844  0.14241  0.20663  1.0000
  H   H60       1.0  0.87241  0.18646  0.20576  1.0000
  C   C97       1.0  0.21714  0.52523  0.34702  1.0000
  C   C98       1.0  0.19511  0.49664  0.34692  1.0000
  C   C99       1.0  0.16630  0.48945  0.34407  1.0000
  C   C100      1.0  0.15961  0.51149  0.34177  1.0000
  C   C101      1.0  0.18149  0.54035  0.34194  1.0000
  C   C102      1.0  0.21019  0.54697  0.34418  1.0000
  H   H61       1.0  0.13879  0.50651  0.33927  1.0000
  H   H62       1.0  0.22619  0.56777  0.34448  1.0000
  H   H63       1.0  0.20017  0.48080  0.34865  1.0000
  C   C103      1.0  0.49001  0.69496  0.34693  1.0000
  C   C104      1.0  0.51860  0.70151  0.34692  1.0000
  C   C105      1.0  0.52577  0.67988  0.34419  1.0000
  C   C106      1.0  0.50372  0.65115  0.34197  1.0000
  C   C107      1.0  0.47486  0.64419  0.34197  1.0000
  C   C108      1.0  0.46826  0.66629  0.34409  1.0000
  H   H64       1.0  0.50868  0.63530  0.33958  1.0000
  H   H65       1.0  0.44747  0.66150  0.34432  1.0000
  H   H66       1.0  0.53444  0.72240  0.34867  1.0000
  C   C109      1.0  0.32027  0.79807  0.34705  1.0000
  C   C110      1.0  0.31370  0.82010  0.34694  1.0000
  C   C111      1.0  0.33531  0.84891  0.34408  1.0000
  C   C112      1.0  0.36405  0.85560  0.34181  1.0000
  C   C113      1.0  0.37103  0.83372  0.34197  1.0000
  C   C114      1.0  0.34895  0.80502  0.34423  1.0000
  H   H67       1.0  0.37989  0.87642  0.33928  1.0000
  H   H68       1.0  0.35375  0.78902  0.34453  1.0000
  H   H69       1.0  0.29281  0.81504  0.34865  1.0000
  C   C115      1.0  0.80113  0.48697  0.34695  1.0000
  C   C116      1.0  0.82317  0.51556  0.34694  1.0000
  C   C117      1.0  0.85197  0.52274  0.34420  1.0000
  C   C118      1.0  0.85866  0.50069  0.34196  1.0000
  C   C119      1.0  0.83677  0.47183  0.34199  1.0000
  C   C120      1.0  0.80807  0.46522  0.34413  1.0000
  H   H70       1.0  0.87947  0.50566  0.33957  1.0000
  H   H71       1.0  0.79206  0.44443  0.34435  1.0000
  H   H72       1.0  0.81811  0.53140  0.34867  1.0000
  C   C121      1.0  0.52827  0.31721  0.34703  1.0000
  C   C122      1.0  0.49968  0.31063  0.34695  1.0000
  C   C123      1.0  0.49248  0.33225  0.34410  1.0000
  C   C124      1.0  0.51451  0.36098  0.34180  1.0000
  C   C125      1.0  0.54338  0.36797  0.34194  1.0000
  C   C126      1.0  0.55000  0.34589  0.34420  1.0000
  H   H73       1.0  0.50953  0.37682  0.33931  1.0000
  H   H74       1.0  0.57080  0.35069  0.34447  1.0000
  H   H75       1.0  0.48385  0.28974  0.34868  1.0000
  C   C127      1.0  0.69802  0.21410  0.34688  1.0000
  C   C128      1.0  0.70457  0.19206  0.34689  1.0000
  C   C129      1.0  0.68294  0.16326  0.34418  1.0000
  C   C130      1.0  0.65421  0.15658  0.34193  1.0000
  C   C131      1.0  0.64724  0.17847  0.34197  1.0000
  C   C132      1.0  0.66934  0.20717  0.34408  1.0000
  H   H76       1.0  0.63836  0.13577  0.33957  1.0000
  H   H77       1.0  0.66456  0.22318  0.34430  1.0000
  H   H78       1.0  0.72545  0.19711  0.34861  1.0000
  C   C133      1.0  0.52846  0.21414  0.34835  1.0000
  C   C134      1.0  0.49987  0.19213  0.35132  1.0000
  C   C135      1.0  0.49261  0.16329  0.34951  1.0000
  C   C136      1.0  0.51461  0.15655  0.34542  1.0000
  C   C137      1.0  0.54347  0.17840  0.34267  1.0000
  C   C138      1.0  0.55013  0.20713  0.34352  1.0000
  H   H79       1.0  0.50959  0.13572  0.34458  1.0000
  H   H80       1.0  0.57093  0.22311  0.34199  1.0000
  H   H81       1.0  0.48407  0.19723  0.35417  1.0000
  C   C139      1.0  0.69784  0.48674  0.34836  1.0000
  C   C140      1.0  0.70442  0.51533  0.35132  1.0000
  C   C141      1.0  0.68283  0.52258  0.34954  1.0000
  C   C142      1.0  0.65410  0.50059  0.34545  1.0000
  C   C143      1.0  0.64709  0.47173  0.34271  1.0000
  C   C144      1.0  0.66915  0.46507  0.34358  1.0000
  H   H82       1.0  0.63828  0.50560  0.34457  1.0000
  H   H83       1.0  0.66433  0.44427  0.34197  1.0000
  H   H84       1.0  0.72531  0.53113  0.35412  1.0000
  C   C145      1.0  0.80110  0.31738  0.34824  1.0000
  C   C146      1.0  0.82311  0.31079  0.35126  1.0000
  C   C147      1.0  0.85195  0.33238  0.34957  1.0000
  C   C148      1.0  0.85869  0.36112  0.34555  1.0000
  C   C149      1.0  0.83684  0.36813  0.34270  1.0000
  C   C150      1.0  0.80811  0.34606  0.34344  1.0000
  H   H85       1.0  0.87953  0.37693  0.34479  1.0000
  H   H86       1.0  0.79213  0.35089  0.34188  1.0000
  H   H87       1.0  0.81801  0.28990  0.35409  1.0000
  C   C151      1.0  0.48980  0.79804  0.34835  1.0000
  C   C152      1.0  0.51839  0.82005  0.35129  1.0000
  C   C153      1.0  0.52565  0.84889  0.34952  1.0000
  C   C154      1.0  0.50365  0.85562  0.34543  1.0000
  C   C155      1.0  0.47479  0.83378  0.34271  1.0000
  C   C156      1.0  0.46813  0.80505  0.34354  1.0000
  H   H88       1.0  0.50867  0.87646  0.34456  1.0000
  H   H89       1.0  0.44732  0.78907  0.34201  1.0000
  H   H90       1.0  0.53419  0.81495  0.35408  1.0000
  C   C157      1.0  0.32040  0.52541  0.34833  1.0000
  C   C158      1.0  0.31383  0.49682  0.35134  1.0000
  C   C159      1.0  0.33541  0.48957  0.34954  1.0000
  C   C160      1.0  0.36414  0.51157  0.34547  1.0000
  C   C161      1.0  0.37116  0.54043  0.34268  1.0000
  C   C162      1.0  0.34909  0.54709  0.34349  1.0000
  H   H91       1.0  0.37997  0.50655  0.34466  1.0000
  H   H92       1.0  0.35391  0.56789  0.34197  1.0000
  H   H93       1.0  0.29293  0.48102  0.35419  1.0000
  C   C163      1.0  0.21718  0.69481  0.34844  1.0000
  C   C164      1.0  0.19518  0.70139  0.35137  1.0000
  C   C165      1.0  0.16634  0.67982  0.34951  1.0000
  C   C166      1.0  0.15959  0.65108  0.34540  1.0000
  C   C167      1.0  0.18144  0.64406  0.34272  1.0000
  C   C168      1.0  0.21017  0.66612  0.34363  1.0000
  H   H94       1.0  0.13876  0.63526  0.34450  1.0000
  H   H95       1.0  0.22615  0.66130  0.34211  1.0000
  H   H96       1.0  0.20027  0.72229  0.35419  1.0000
  C   C169      1.0  0.10795  0.37000  0.34361  1.0000
  C   C170      1.0  0.12815  0.36090  0.34410  1.0000
  C   C171      1.0  0.11983  0.33173  0.34576  1.0000
  C   C172      1.0  0.09033  0.31142  0.34663  1.0000
  C   C173      1.0  0.06953  0.31999  0.34601  1.0000
  C   C174      1.0  0.07877  0.34942  0.34469  1.0000
  H   H97       1.0  0.08397  0.29024  0.34844  1.0000
  H   H98       1.0  0.06408  0.35600  0.34407  1.0000
  H   H99       1.0  0.14936  0.37584  0.34361  1.0000
  C   C175      1.0  0.64522  0.74099  0.34376  1.0000
  C   C176      1.0  0.65433  0.77030  0.34420  1.0000
  C   C177      1.0  0.68350  0.79114  0.34577  1.0000
  C   C178      1.0  0.70380  0.78195  0.34657  1.0000
  C   C179      1.0  0.69523  0.75257  0.34604  1.0000
  C   C180      1.0  0.66580  0.73239  0.34482  1.0000
  H   H100      1.0  0.72499  0.79676  0.34828  1.0000
  H   H101      1.0  0.65921  0.71112  0.34424  1.0000
  H   H102      1.0  0.63939  0.77657  0.34373  1.0000
  C   C181      1.0  0.27423  0.90726  0.34362  1.0000
  C   C182      1.0  0.24491  0.88707  0.34413  1.0000
  C   C183      1.0  0.22408  0.89541  0.34583  1.0000
  C   C184      1.0  0.23328  0.92490  0.34668  1.0000
  C   C185      1.0  0.26265  0.94570  0.34603  1.0000
  C   C186      1.0  0.28283  0.93644  0.34470  1.0000
  H   H103      1.0  0.21847  0.93128  0.34849  1.0000
  H   H104      1.0  0.30410  0.95112  0.34408  1.0000
  H   H105      1.0  0.23864  0.86586  0.34364  1.0000
  C   C187      1.0  0.91031  0.64217  0.34377  1.0000
  C   C188      1.0  0.89011  0.65129  0.34423  1.0000
  C   C189      1.0  0.89844  0.68046  0.34580  1.0000
  C   C190      1.0  0.92794  0.70076  0.34656  1.0000
  C   C191      1.0  0.94873  0.69219  0.34603  1.0000
  C   C192      1.0  0.93949  0.66275  0.34480  1.0000
  H   H106      1.0  0.93431  0.72194  0.34825  1.0000
  H   H107      1.0  0.95417  0.65617  0.34421  1.0000
  H   H108      1.0  0.86890  0.63634  0.34375  1.0000
  C   C193      1.0  0.37304  0.27117  0.34359  1.0000
  C   C194      1.0  0.36391  0.24185  0.34411  1.0000
  C   C195      1.0  0.33474  0.22102  0.34579  1.0000
  C   C196      1.0  0.31445  0.23022  0.34666  1.0000
  C   C197      1.0  0.32303  0.25960  0.34601  1.0000
  C   C198      1.0  0.35246  0.27977  0.34468  1.0000
  H   H109      1.0  0.29326  0.21541  0.34848  1.0000
  H   H110      1.0  0.35906  0.30105  0.34405  1.0000
  H   H111      1.0  0.37885  0.23558  0.34362  1.0000
  C   C199      1.0  0.74405  0.10492  0.34377  1.0000
  C   C200      1.0  0.77336  0.12511  0.34421  1.0000
  C   C201      1.0  0.79420  0.11678  0.34577  1.0000
  C   C202      1.0  0.78500  0.08728  0.34653  1.0000
  C   C203      1.0  0.75563  0.06649  0.34603  1.0000
  C   C204      1.0  0.73545  0.07574  0.34484  1.0000
  H   H112      1.0  0.79981  0.08091  0.34825  1.0000
  H   H113      1.0  0.71417  0.06106  0.34426  1.0000
  H   H114      1.0  0.77963  0.14632  0.34372  1.0000
  C   C205      1.0  0.37316  0.10514  0.34719  1.0000
  C   C206      1.0  0.36397  0.12529  0.34728  1.0000
  C   C207      1.0  0.33478  0.11689  0.34607  1.0000
  C   C208      1.0  0.31453  0.08739  0.34518  1.0000
  C   C209      1.0  0.32318  0.06664  0.34557  1.0000
  C   C210      1.0  0.35262  0.07595  0.34651  1.0000
  H   H115      1.0  0.29333  0.08095  0.34565  1.0000
  H   H116      1.0  0.35925  0.06130  0.34791  1.0000
  H   H117      1.0  0.37888  0.14651  0.34865  1.0000
  C   C211      1.0  0.74416  0.64204  0.34726  1.0000
  C   C212      1.0  0.77349  0.65123  0.34731  1.0000
  C   C213      1.0  0.79429  0.68042  0.34607  1.0000
  C   C214      1.0  0.78503  0.70067  0.34514  1.0000
  C   C215      1.0  0.75563  0.69202  0.34555  1.0000
  C   C216      1.0  0.73550  0.66257  0.34657  1.0000
  H   H118      1.0  0.79980  0.72187  0.34551  1.0000
  H   H119      1.0  0.71422  0.65595  0.34793  1.0000
  H   H120      1.0  0.77980  0.63632  0.34864  1.0000
  C   C217      1.0  0.91008  0.27107  0.34728  1.0000
  C   C218      1.0  0.88993  0.24174  0.34729  1.0000
  C   C219      1.0  0.89831  0.22093  0.34601  1.0000
  C   C220      1.0  0.92782  0.23019  0.34511  1.0000
  C   C221      1.0  0.94857  0.25958  0.34556  1.0000
  C   C222      1.0  0.93927  0.27972  0.34661  1.0000
  H   H121      1.0  0.93425  0.21542  0.34547  1.0000
  H   H122      1.0  0.95393  0.30099  0.34804  1.0000
  H   H123      1.0  0.86871  0.23543  0.34863  1.0000
  C   C223      1.0  0.64509  0.90703  0.34726  1.0000
  C   C224      1.0  0.65429  0.88689  0.34730  1.0000
  C   C225      1.0  0.68348  0.89529  0.34605  1.0000
  C   C226      1.0  0.70372  0.92480  0.34514  1.0000
  C   C227      1.0  0.69507  0.94554  0.34553  1.0000
  C   C228      1.0  0.66562  0.93622  0.34655  1.0000
  H   H124      1.0  0.72493  0.93124  0.34548  1.0000
  H   H125      1.0  0.65899  0.95087  0.34790  1.0000
  H   H126      1.0  0.63939  0.86567  0.34863  1.0000
  C   C229      1.0  0.27411  0.37013  0.34725  1.0000
  C   C230      1.0  0.24478  0.36095  0.34730  1.0000
  C   C231      1.0  0.22398  0.33175  0.34609  1.0000
  C   C232      1.0  0.23325  0.31151  0.34520  1.0000
  C   C233      1.0  0.26264  0.32016  0.34553  1.0000
  C   C234      1.0  0.28277  0.34960  0.34655  1.0000
  H   H127      1.0  0.21848  0.29030  0.34560  1.0000
  H   H128      1.0  0.30405  0.35622  0.34792  1.0000
  H   H129      1.0  0.23847  0.37585  0.34866  1.0000
  C   C235      1.0  0.10819  0.74111  0.34724  1.0000
  C   C236      1.0  0.12834  0.77045  0.34732  1.0000
  C   C237      1.0  0.11993  0.79124  0.34612  1.0000
  C   C238      1.0  0.09042  0.78197  0.34518  1.0000
  C   C239      1.0  0.06969  0.75257  0.34551  1.0000
  C   C240      1.0  0.07900  0.73245  0.34652  1.0000
  H   H130      1.0  0.08398  0.79673  0.34556  1.0000
  H   H131      1.0  0.06435  0.71117  0.34783  1.0000
  H   H132      1.0  0.14956  0.77676  0.34867  1.0000
  C   C241      1.0  0.12260  0.41469  0.42280  1.0000
  C   C242      1.0  0.13668  0.44459  0.42346  1.0000
  H   H133      1.0  0.11798  0.40414  0.48318  1.0000
  H   H134      1.0  0.14215  0.45496  0.48421  1.0000
  C   C243      1.0  0.60053  0.71092  0.42305  1.0000
  C   C244      1.0  0.57064  0.69505  0.42376  1.0000
  H   H135      1.0  0.61110  0.71676  0.48342  1.0000
  H   H136      1.0  0.56027  0.69011  0.48451  1.0000
  C   C245      1.0  0.30426  0.89261  0.42281  1.0000
  C   C246      1.0  0.32009  0.87853  0.42347  1.0000
  H   H137      1.0  0.29834  0.89724  0.48320  1.0000
  H   H138      1.0  0.32499  0.87307  0.48422  1.0000
  C   C247      1.0  0.89566  0.59749  0.42304  1.0000
  C   C248      1.0  0.88163  0.56759  0.42377  1.0000
  H   H139      1.0  0.90037  0.60805  0.48342  1.0000
  H   H140      1.0  0.87619  0.55722  0.48451  1.0000
  C   C249      1.0  0.41773  0.30121  0.42282  1.0000
  C   C250      1.0  0.44763  0.31703  0.42353  1.0000
  H   H141      1.0  0.40717  0.29529  0.48320  1.0000
  H   H142      1.0  0.45799  0.32193  0.48428  1.0000
  C   C251      1.0  0.71400  0.11956  0.42303  1.0000
  C   C252      1.0  0.69814  0.13359  0.42371  1.0000
  H   H143      1.0  0.71985  0.11484  0.48342  1.0000
  H   H144      1.0  0.69320  0.13902  0.48446  1.0000
  C   C253      1.0  0.46331  0.14246  0.35139  1.0000
  C   C254      1.0  0.44795  0.13698  0.43293  1.0000
  C   C255      1.0  0.41785  0.12315  0.43382  1.0000
  C   C256      1.0  0.40273  0.11457  0.35103  1.0000
  H   H145      1.0  0.45876  0.14470  0.49229  1.0000
  N   N13       1.0  0.40263  0.11892  0.51534  1.0000
  O   O25       1.0  0.40945  0.14210  0.55364  1.0000
  O   O26       1.0  0.40686  0.10352  0.56902  1.0000
  C   C257      1.0  0.69130  0.55189  0.35130  1.0000
  C   C258      1.0  0.70117  0.56724  0.43289  1.0000
  C   C259      1.0  0.71748  0.59734  0.43378  1.0000
  C   C260      1.0  0.72402  0.61247  0.35100  1.0000
  H   H146      1.0  0.69815  0.55642  0.49221  1.0000
  N   N14       1.0  0.72848  0.61254  0.51531  1.0000
  O   O27       1.0  0.74483  0.60570  0.55358  1.0000
  O   O28       1.0  0.70887  0.60833  0.56902  1.0000
  C   C261      1.0  0.87278  0.32390  0.35151  1.0000
  C   C262      1.0  0.87827  0.31405  0.43307  1.0000
  C   C263      1.0  0.89210  0.29778  0.43394  1.0000
  C   C264      1.0  0.90066  0.29122  0.35113  1.0000
  H   H147      1.0  0.87055  0.31714  0.49243  1.0000
  N   N15       1.0  0.89634  0.28679  0.51544  1.0000
  O   O29       1.0  0.87317  0.27043  0.55379  1.0000
  O   O30       1.0  0.91175  0.30643  0.56910  1.0000
  C   C265      1.0  0.55496  0.86973  0.35124  1.0000
  C   C266      1.0  0.57029  0.87518  0.43285  1.0000
  C   C267      1.0  0.60038  0.88897  0.43376  1.0000
  C   C268      1.0  0.61552  0.89758  0.35099  1.0000
  H   H148      1.0  0.55946  0.86737  0.49216  1.0000
  N   N16       1.0  0.61558  0.89315  0.51528  1.0000
  O   O31       1.0  0.60874  0.86996  0.55351  1.0000
  O   O32       1.0  0.61136  0.90855  0.56903  1.0000
  C   C269      1.0  0.32694  0.46026  0.35147  1.0000
  C   C270      1.0  0.31708  0.44491  0.43302  1.0000
  C   C271      1.0  0.30081  0.41481  0.43389  1.0000
  C   C272      1.0  0.29425  0.39970  0.35107  1.0000
  H   H149      1.0  0.32018  0.45573  0.49239  1.0000
  N   N17       1.0  0.28983  0.39959  0.51539  1.0000
  O   O33       1.0  0.27348  0.40640  0.55375  1.0000
  O   O34       1.0  0.30946  0.40381  0.56904  1.0000
  C   C273      1.0  0.14550  0.68829  0.35126  1.0000
  C   C274      1.0  0.14002  0.69813  0.43289  1.0000
  C   C275      1.0  0.12622  0.71443  0.43376  1.0000
  C   C276      1.0  0.11763  0.72098  0.35098  1.0000
  H   H150      1.0  0.14781  0.69510  0.49221  1.0000
  N   N18       1.0  0.12202  0.72543  0.51529  1.0000
  O   O35       1.0  0.14521  0.74178  0.55357  1.0000
  O   O36       1.0  0.10662  0.70581  0.56899  1.0000
  C   C277      1.0  0.29799  0.53151  0.35064  1.0000
  C   C278      1.0  0.28351  0.52877  0.43240  1.0000
  C   C279      1.0  0.25736  0.52857  0.43371  1.0000
  C   C280      1.0  0.24567  0.53130  0.35125  1.0000
  H   H151      1.0  0.29119  0.52535  0.49133  1.0000
  N   N19       1.0  0.24212  0.52453  0.51508  1.0000
  O   O37       1.0  0.23552  0.50111  0.55119  1.0000
  O   O38       1.0  0.25629  0.54407  0.57053  1.0000
  C   C281      1.0  0.48370  0.76952  0.35052  1.0000
  C   C282      1.0  0.48643  0.75777  0.43228  1.0000
  C   C283      1.0  0.48668  0.73185  0.43356  1.0000
  C   C284      1.0  0.48396  0.71743  0.35107  1.0000
  H   H152      1.0  0.48990  0.76889  0.49120  1.0000
  N   N20       1.0  0.49072  0.72064  0.51493  1.0000
  O   O39       1.0  0.51413  0.73748  0.55109  1.0000
  O   O40       1.0  0.47116  0.71525  0.57034  1.0000
  C   C285      1.0  0.24570  0.71722  0.35074  1.0000
  C   C286      1.0  0.25744  0.73171  0.43249  1.0000
  C   C287      1.0  0.28339  0.75786  0.43378  1.0000
  C   C288      1.0  0.29781  0.76954  0.35130  1.0000
  H   H153      1.0  0.24634  0.72403  0.49143  1.0000
  N   N21       1.0  0.29460  0.77310  0.51513  1.0000
  O   O41       1.0  0.27778  0.77970  0.55126  1.0000
  O   O42       1.0  0.29996  0.75893  0.57058  1.0000
  C   C289      1.0  0.72025  0.48064  0.35053  1.0000
  C   C290      1.0  0.73473  0.48337  0.43230  1.0000
  C   C291      1.0  0.76091  0.48362  0.43357  1.0000
  C   C292      1.0  0.77260  0.48091  0.35108  1.0000
  H   H154      1.0  0.72708  0.48683  0.49122  1.0000
  N   N22       1.0  0.77615  0.48766  0.51495  1.0000
  O   O43       1.0  0.78272  0.51107  0.55111  1.0000
  O   O44       1.0  0.76199  0.46810  0.57037  1.0000
  C   C293      1.0  0.53456  0.24266  0.35064  1.0000
  C   C294      1.0  0.53182  0.25439  0.43242  1.0000
  C   C295      1.0  0.53162  0.28033  0.43374  1.0000
  C   C296      1.0  0.53435  0.29476  0.35128  1.0000
  H   H155      1.0  0.52840  0.24328  0.49134  1.0000
  N   N23       1.0  0.52758  0.29154  0.51511  1.0000
  O   O45       1.0  0.50416  0.27471  0.55122  1.0000
  O   O46       1.0  0.54712  0.29690  0.57055  1.0000
  C   C297      1.0  0.77259  0.29496  0.35041  1.0000
  C   C298      1.0  0.76083  0.28049  0.43219  1.0000
  C   C299      1.0  0.73491  0.25432  0.43349  1.0000
  C   C300      1.0  0.72049  0.24263  0.35100  1.0000
  H   H156      1.0  0.77195  0.28815  0.49111  1.0000
  N   N24       1.0  0.72370  0.23908  0.51486  1.0000
  O   O47       1.0  0.74054  0.23251  0.55103  1.0000
  O   O48       1.0  0.71831  0.25325  0.57028  1.0000
  C   C301      1.0  0.17294  0.57485  0.42047  1.0000
  C   C302      1.0  0.17294  0.60077  0.42131  1.0000
  H   H157      1.0  0.17277  0.56559  0.48082  1.0000
  H   H158      1.0  0.17274  0.60962  0.48210  1.0000
  C   C303      1.0  0.44035  0.60111  0.42056  1.0000
  C   C304      1.0  0.41446  0.57518  0.42138  1.0000
  H   H159      1.0  0.44968  0.61015  0.48090  1.0000
  H   H160      1.0  0.40563  0.56608  0.48214  1.0000
  C   C305      1.0  0.41410  0.84228  0.42051  1.0000
  C   C306      1.0  0.44000  0.84227  0.42132  1.0000
  H   H161      1.0  0.40500  0.84245  0.48086  1.0000
  H   H162      1.0  0.44906  0.84248  0.48210  1.0000
  C   C307      1.0  0.84534  0.43733  0.42056  1.0000
  C   C308      1.0  0.84539  0.41144  0.42140  1.0000
  H   H163      1.0  0.84562  0.44665  0.48090  1.0000
  H   H164      1.0  0.84565  0.40261  0.48217  1.0000
  C   C309      1.0  0.57788  0.41104  0.42047  1.0000
  C   C310      1.0  0.60380  0.43695  0.42130  1.0000
  H   H165      1.0  0.56862  0.40196  0.48082  1.0000
  H   H166      1.0  0.61265  0.44601  0.48208  1.0000
  C   C311      1.0  0.60417  0.16993  0.42054  1.0000
  C   C312      1.0  0.57825  0.16989  0.42133  1.0000
  H   H167      1.0  0.61322  0.16968  0.48090  1.0000
  H   H168      1.0  0.56916  0.16965  0.48209  1.0000
  C   C313      1.0  0.03965  0.30022  0.34755  1.0000
  C   C314      1.0  0.02421  0.29413  0.42919  1.0000
  C   C315      1.0  0.99400  0.27920  0.43067  1.0000
  C   C316      1.0  0.97850  0.26978  0.34854  1.0000
  H   H169      1.0  0.03503  0.30179  0.48857  1.0000
  N   N25       1.0  0.97886  0.27440  0.51262  1.0000
  O   O49       1.0  0.98470  0.29734  0.55074  1.0000
  O   O50       1.0  0.98413  0.25971  0.56622  1.0000
  C   C317      1.0  0.71499  0.74246  0.34749  1.0000
  C   C318      1.0  0.72109  0.73311  0.42914  1.0000
  C   C319      1.0  0.73600  0.71781  0.43061  1.0000
  C   C320      1.0  0.74542  0.71174  0.34848  1.0000
  H   H170      1.0  0.71338  0.73622  0.48851  1.0000
  N   N26       1.0  0.74078  0.70746  0.51256  1.0000
  O   O51       1.0  0.71783  0.69036  0.55067  1.0000
  O   O52       1.0  0.75547  0.72741  0.56617  1.0000
  C   C321      1.0  0.27278  0.97558  0.34759  1.0000
  C   C322      1.0  0.28209  0.99101  0.42923  1.0000
  C   C323      1.0  0.29737  0.02123  0.43071  1.0000
  C   C324      1.0  0.30346  0.03670  0.34855  1.0000
  H   H171      1.0  0.27893  0.98020  0.48862  1.0000
  N   N27       1.0  0.30769  0.03638  0.51266  1.0000
  O   O53       1.0  0.32479  0.03054  0.55084  1.0000
  O   O54       1.0  0.28773  0.03111  0.56620  1.0000
  C   C325      1.0  0.97862  0.71194  0.34744  1.0000
  C   C326      1.0  0.99405  0.71803  0.42910  1.0000
  C   C327      1.0  0.02426  0.73293  0.43056  1.0000
  C   C328      1.0  0.03975  0.74236  0.34842  1.0000
  H   H172      1.0  0.98324  0.71032  0.48846  1.0000
  N   N28       1.0  0.03940  0.73772  0.51252  1.0000
  O   O55       1.0  0.03354  0.71476  0.55061  1.0000
  O   O56       1.0  0.03415  0.75241  0.56613  1.0000
  C   C329      1.0  0.30328  0.26973  0.34757  1.0000
  C   C330      1.0  0.29716  0.27904  0.42922  1.0000
  C   C331      1.0  0.28223  0.29432  0.43069  1.0000
  C   C332      1.0  0.27284  0.30042  0.34854  1.0000
  H   H173      1.0  0.30480  0.27587  0.48861  1.0000
  N   N29       1.0  0.27740  0.30464  0.51264  1.0000
  O   O57       1.0  0.30034  0.32174  0.55084  1.0000
  O   O58       1.0  0.26270  0.28468  0.56618  1.0000
  C   C333      1.0  0.74549  0.03660  0.34748  1.0000
  C   C334      1.0  0.73614  0.02117  0.42915  1.0000
  C   C335      1.0  0.72084  0.99096  0.43060  1.0000
  C   C336      1.0  0.71479  0.97548  0.34844  1.0000
  H   H174      1.0  0.73924  0.03199  0.48851  1.0000
  N   N30       1.0  0.71047  0.97582  0.51254  1.0000
  O   O59       1.0  0.69338  0.98167  0.55062  1.0000
  O   O60       1.0  0.73041  0.98106  0.56617  1.0000
  C   C337      1.0  0.19472  0.32430  0.34780  1.0000
  C   C338      1.0  0.18205  0.32575  0.42951  1.0000
  C   C339      1.0  0.15600  0.32597  0.43108  1.0000
  C   C340      1.0  0.14177  0.32440  0.34894  1.0000
  H   H175      1.0  0.19280  0.32855  0.48885  1.0000
  N   N31       1.0  0.14463  0.32937  0.51307  1.0000
  O   O61       1.0  0.16139  0.35252  0.55085  1.0000
  O   O62       1.0  0.13916  0.30942  0.56692  1.0000
  C   C341      1.0  0.69095  0.87349  0.34767  1.0000
  C   C342      1.0  0.68947  0.85936  0.42940  1.0000
  C   C343      1.0  0.68921  0.83307  0.43095  1.0000
  C   C344      1.0  0.69083  0.82040  0.34884  1.0000
  H   H176      1.0  0.68658  0.86726  0.48870  1.0000
  N   N32       1.0  0.68577  0.81829  0.51295  1.0000
  O   O63       1.0  0.66261  0.81191  0.55062  1.0000
  O   O64       1.0  0.70569  0.83275  0.56689  1.0000
  C   C345      1.0  0.14174  0.82050  0.34782  1.0000
  C   C346      1.0  0.15586  0.83317  0.42953  1.0000
  C   C347      1.0  0.18213  0.85923  0.43110  1.0000
  C   C348      1.0  0.19481  0.87348  0.34899  1.0000
  H   H177      1.0  0.14790  0.82242  0.48887  1.0000
  N   N33       1.0  0.19689  0.87059  0.51310  1.0000
  O   O65       1.0  0.20328  0.85383  0.55086  1.0000
  O   O66       1.0  0.18241  0.87606  0.56696  1.0000
  C   C349      1.0  0.82356  0.68787  0.34769  1.0000
  C   C350      1.0  0.83619  0.68640  0.42946  1.0000
  C   C351      1.0  0.86223  0.68615  0.43098  1.0000
  C   C352      1.0  0.87650  0.68778  0.34883  1.0000
  H   H178      1.0  0.82539  0.68350  0.48875  1.0000
  N   N34       1.0  0.87357  0.68271  0.51297  1.0000
  O   O67       1.0  0.85680  0.65955  0.55063  1.0000
  O   O68       1.0  0.87904  0.70263  0.56692  1.0000
  C   C353      1.0  0.32733  0.13871  0.34784  1.0000
  C   C354      1.0  0.32874  0.15279  0.42957  1.0000
  C   C355      1.0  0.32895  0.17907  0.43113  1.0000
  C   C356      1.0  0.32740  0.19175  0.34900  1.0000
  H   H179      1.0  0.33152  0.14483  0.48891  1.0000
  N   N35       1.0  0.33233  0.19382  0.51312  1.0000
  O   O69       1.0  0.35547  0.20021  0.55094  1.0000
  O   O70       1.0  0.31238  0.17934  0.56694  1.0000
  C   C357      1.0  0.87649  0.19167  0.34764  1.0000
  C   C358      1.0  0.86239  0.17904  0.42941  1.0000
  C   C359      1.0  0.83610  0.15299  0.43094  1.0000
  C   C360      1.0  0.82347  0.13872  0.34880  1.0000
  H   H180      1.0  0.87029  0.18984  0.48870  1.0000
  N   N36       1.0  0.82133  0.14166  0.51293  1.0000
  O   O71       1.0  0.81493  0.15843  0.55059  1.0000
  O   O72       1.0  0.83578  0.13619  0.56689  1.0000
