data_image0
_chemical_formula_structural       C3HC2H2CH3C3HC2H2CH4NCHCOCN2CH4C4H2CH3NCHCOCN2CH4C4H2CH3CONCH3C4H2NH2CONCH3C4H2NHC3H2C3HC3H2C3HC3H3CNCOHCNCOHCNCOHCNCOHC3NH2C3NC3NH4C3NC3NH3CH3C2NC2H3CH3CH3C2NC2H3CH3CH3C2NC2H3CH3CH3C2NC2H3CH3CH3C3H2C3HC3H2C3HC3H3CNCOHCNCOHCNCOHCNCOHC3NH2C3NC3NH4C3NC3NH3CH3C2NC2H3CH3CH3C2NC2H3CH3CH3C2NC2H3CH3CH3C2NC2H3CH3CH3C3HC3H3C3HC3H3C3HC3H3CNCOHCNCOHCNCOHCNCOHCNCOHCNCOHC3NC3NH4C3NC3NH4C3NC3NH4C2NC2H3CH3CH3C2NC2H3CH3CH3C2NC2H3CH3CH3C2NC2H3CH3CH3C2NC2H3CH3CH3C2NC2H3CH3CH3C3HC3H3C3HC3H3C3HC3H3CNCOHCNCOHCNCOHCNCOHCNCOHCNCOHC3NC3NH4C3NC3NH4C3NC3NH4C2NC2H3CH3CH3C2NC2H3CH3CH3C2NC2H3CH3CH3C2NC2H3CH3CH3C2NC2H3CH3CH3C2NC2H3CH3CH3
_chemical_formula_sum              "C336 H336 N72 O24"
_cell_length_a       46.6848
_cell_length_b       46.6848
_cell_length_c       14.8867
_cell_angle_alpha    90
_cell_angle_beta     90
_cell_angle_gamma    120

_space_group_name_H-M_alt    "P 1"
_space_group_IT_number       1

loop_
  _space_group_symop_operation_xyz
  'x, y, z'

loop_
  _atom_site_type_symbol
  _atom_site_label
  _atom_site_symmetry_multiplicity
  _atom_site_fract_x
  _atom_site_fract_y
  _atom_site_fract_z
  _atom_site_occupancy
  C   C1        1.0  0.02370  0.26283  0.34489  1.0000
  C   C2        1.0  0.07787  0.31652  0.33687  1.0000
  C   C3        1.0  0.04289  0.29828  0.34119  1.0000
  H   H1        1.0  0.03173  0.31221  0.34105  1.0000
  C   C4        1.0  0.04286  0.24655  0.34811  1.0000
  C   C5        1.0  0.07774  0.26316  0.34143  1.0000
  H   H2        1.0  0.03175  0.22159  0.35524  1.0000
  H   H3        1.0  0.08066  0.30064  0.50911  1.0000
  C   C6        1.0  0.06819  0.35130  0.54008  1.0000
  H   H4        1.0  0.06883  0.37465  0.52704  1.0000
  H   H5        1.0  0.06027  0.34412  0.60955  1.0000
  H   H6        1.0  0.04929  0.33246  0.49720  1.0000
  C   C7        1.0  0.02370  0.76283  0.34489  1.0000
  C   C8        1.0  0.07787  0.81652  0.33687  1.0000
  C   C9        1.0  0.04289  0.79828  0.34119  1.0000
  H   H7        1.0  0.03173  0.81221  0.34105  1.0000
  C   C10       1.0  0.04287  0.74655  0.34811  1.0000
  C   C11       1.0  0.07774  0.76316  0.34143  1.0000
  H   H8        1.0  0.03175  0.72159  0.35524  1.0000
  H   H9        1.0  0.08066  0.80064  0.50911  1.0000
  C   C12       1.0  0.06819  0.85130  0.54008  1.0000
  H   H10       1.0  0.06884  0.87465  0.52704  1.0000
  H   H11       1.0  0.06027  0.84412  0.60955  1.0000
  H   H12       1.0  0.04930  0.83246  0.49720  1.0000
  H   H13       1.0  0.13714  0.33346  0.28086  1.0000
  N   N1        1.0  0.11036  0.24294  0.26617  1.0000
  C   C13       1.0  0.09613  0.24622  0.34278  1.0000
  H   H14       1.0  0.10103  0.24392  0.20835  1.0000
  C   C14       1.0  0.11061  0.37046  0.26582  1.0000
  O   O1        1.0  0.09773  0.35685  0.18474  1.0000
  C   C15       1.0  0.09443  0.29802  0.33032  1.0000
  N   N2        1.0  0.12715  0.31321  0.31462  1.0000
  N   N3        1.0  0.11332  0.24939  0.41913  1.0000
  C   C16       1.0  0.12919  0.24858  0.59586  1.0000
  H   H15       1.0  0.12610  0.27022  0.59030  1.0000
  H   H16       1.0  0.13756  0.24815  0.66416  1.0000
  H   H17       1.0  0.10494  0.22647  0.58749  1.0000
  H   H18       1.0  0.13459  0.19597  0.52693  1.0000
  C   C17       1.0  0.11400  0.36727  0.42732  1.0000
  C   C18       1.0  0.09656  0.35185  0.34572  1.0000
  C   C19       1.0  0.10290  0.35488  0.52295  1.0000
  C   C20       1.0  0.12684  0.37999  0.59569  1.0000
  H   H19       1.0  0.11804  0.37149  0.66392  1.0000
  H   H20       1.0  0.12893  0.40424  0.58775  1.0000
  C   C21       1.0  0.10143  0.32124  0.54270  1.0000
  H   H21       1.0  0.12430  0.32227  0.52131  1.0000
  H   H22       1.0  0.09818  0.31538  0.61438  1.0000
  H   H23       1.0  0.13714  0.83346  0.28086  1.0000
  N   N4        1.0  0.11036  0.74295  0.26617  1.0000
  C   C22       1.0  0.09613  0.74622  0.34278  1.0000
  H   H24       1.0  0.10103  0.74392  0.20835  1.0000
  C   C23       1.0  0.11061  0.87046  0.26582  1.0000
  O   O2        1.0  0.09773  0.85685  0.18474  1.0000
  C   C24       1.0  0.09443  0.79802  0.33032  1.0000
  N   N5        1.0  0.12715  0.81321  0.31462  1.0000
  N   N6        1.0  0.11332  0.74939  0.41913  1.0000
  C   C25       1.0  0.12919  0.74858  0.59586  1.0000
  H   H25       1.0  0.12610  0.77022  0.59030  1.0000
  H   H26       1.0  0.13755  0.74815  0.66416  1.0000
  H   H27       1.0  0.10494  0.72647  0.58749  1.0000
  H   H28       1.0  0.13459  0.69597  0.52693  1.0000
  C   C26       1.0  0.11400  0.86727  0.42732  1.0000
  C   C27       1.0  0.09656  0.85185  0.34572  1.0000
  C   C28       1.0  0.10290  0.85488  0.52295  1.0000
  C   C29       1.0  0.12684  0.87999  0.59569  1.0000
  H   H29       1.0  0.11804  0.87149  0.66392  1.0000
  H   H30       1.0  0.12893  0.90424  0.58775  1.0000
  C   C30       1.0  0.10143  0.82124  0.54270  1.0000
  H   H31       1.0  0.12430  0.82227  0.52131  1.0000
  H   H32       1.0  0.09818  0.81538  0.61438  1.0000
  H   H33       1.0  0.17562  0.30567  0.28475  1.0000
  C   C31       1.0  0.13925  0.24206  0.26628  1.0000
  O   O3        1.0  0.15288  0.24268  0.18529  1.0000
  N   N7        1.0  0.14031  0.39942  0.26623  1.0000
  C   C32       1.0  0.15757  0.41354  0.34314  1.0000
  H   H34       1.0  0.15076  0.40883  0.20862  1.0000
  H   H35       1.0  0.13968  0.31242  0.36535  1.0000
  H   H36       1.0  0.17818  0.36938  0.36544  1.0000
  C   C33       1.0  0.14217  0.24870  0.42766  1.0000
  C   C34       1.0  0.15767  0.24648  0.34655  1.0000
  C   C35       1.0  0.15441  0.24983  0.52339  1.0000
  C   C36       1.0  0.15794  0.21866  0.54028  1.0000
  H   H37       1.0  0.16503  0.21781  0.60978  1.0000
  H   H38       1.0  0.17682  0.21865  0.49746  1.0000
  N   N8        1.0  0.14346  0.39624  0.41932  1.0000
  H   H39       1.0  0.15159  0.38314  0.58999  1.0000
  H   H40       1.0  0.17562  0.80567  0.28475  1.0000
  C   C37       1.0  0.13925  0.74206  0.26628  1.0000
  O   O4        1.0  0.15288  0.74268  0.18529  1.0000
  N   N9        1.0  0.14031  0.89942  0.26623  1.0000
  C   C38       1.0  0.15757  0.91355  0.34314  1.0000
  H   H41       1.0  0.15076  0.90883  0.20862  1.0000
  H   H42       1.0  0.13969  0.81243  0.36535  1.0000
  H   H43       1.0  0.17818  0.86938  0.36544  1.0000
  C   C39       1.0  0.14217  0.74870  0.42766  1.0000
  C   C40       1.0  0.15767  0.74648  0.34655  1.0000
  C   C41       1.0  0.15441  0.74983  0.52339  1.0000
  C   C42       1.0  0.15794  0.71866  0.54028  1.0000
  H   H44       1.0  0.16503  0.71781  0.60978  1.0000
  H   H45       1.0  0.17682  0.71865  0.49746  1.0000
  N   N10       1.0  0.14346  0.89624  0.41932  1.0000
  H   H46       1.0  0.15159  0.88314  0.58999  1.0000
  C   C43       1.0  0.48779  0.24489  0.34485  1.0000
  C   C44       1.0  0.46861  0.20944  0.34131  1.0000
  C   C45       1.0  0.43364  0.19118  0.33692  1.0000
  H   H47       1.0  0.47978  0.19552  0.34133  1.0000
  H   H48       1.0  0.37444  0.17438  0.28039  1.0000
  C   C46       1.0  0.26465  0.24480  0.34402  1.0000
  C   C47       1.0  0.30010  0.26107  0.34076  1.0000
  C   C48       1.0  0.31837  0.24436  0.33796  1.0000
  H   H49       1.0  0.31401  0.28616  0.34016  1.0000
  C   C49       1.0  0.24671  0.26279  0.34393  1.0000
  C   C50       1.0  0.19298  0.26321  0.33733  1.0000
  C   C51       1.0  0.21126  0.24652  0.34083  1.0000
  H   H50       1.0  0.19733  0.22143  0.34078  1.0000
  H   H51       1.0  0.33607  0.20200  0.28875  1.0000
  C   C52       1.0  0.26464  0.02178  0.34444  1.0000
  C   C53       1.0  0.24841  0.04099  0.34058  1.0000
  C   C54       1.0  0.26516  0.07596  0.33651  1.0000
  H   H52       1.0  0.22332  0.02984  0.34007  1.0000
  C   C55       1.0  0.24665  0.48587  0.34450  1.0000
  C   C56       1.0  0.24617  0.43170  0.33715  1.0000
  C   C57       1.0  0.26290  0.46668  0.34067  1.0000
  H   H53       1.0  0.28799  0.47785  0.33985  1.0000
  H   H54       1.0  0.20364  0.37147  0.28698  1.0000
  H   H55       1.0  0.30771  0.13603  0.28359  1.0000
  C   C58       1.0  0.26722  0.39910  0.26577  1.0000
  N   N11       1.0  0.26636  0.36933  0.26567  1.0000
  C   C59       1.0  0.26330  0.35183  0.34211  1.0000
  O   O5        1.0  0.26648  0.41206  0.18483  1.0000
  H   H56       1.0  0.26527  0.35898  0.20786  1.0000
  C   C60       1.0  0.37209  0.26556  0.26650  1.0000
  N   N12       1.0  0.40096  0.26464  0.26615  1.0000
  C   C61       1.0  0.41527  0.26141  0.34264  1.0000
  O   O6        1.0  0.35837  0.26486  0.18561  1.0000
  H   H57       1.0  0.41026  0.26369  0.20827  1.0000
  C   C62       1.0  0.24405  0.10869  0.26537  1.0000
  N   N13       1.0  0.24495  0.13847  0.26576  1.0000
  C   C63       1.0  0.24795  0.15574  0.34255  1.0000
  O   O7        1.0  0.24490  0.09588  0.18427  1.0000
  H   H58       1.0  0.24599  0.14891  0.20814  1.0000
  C   C64       1.0  0.40090  0.13732  0.26611  1.0000
  N   N14       1.0  0.37115  0.10841  0.26635  1.0000
  C   C65       1.0  0.35371  0.09412  0.34300  1.0000
  O   O8        1.0  0.41385  0.15086  0.18502  1.0000
  H   H59       1.0  0.36082  0.09903  0.20860  1.0000
  C   C66       1.0  0.41707  0.20967  0.33036  1.0000
  C   C67       1.0  0.43373  0.24453  0.34116  1.0000
  C   C68       1.0  0.46861  0.26117  0.34788  1.0000
  N   N15       1.0  0.38435  0.19446  0.31477  1.0000
  H   H60       1.0  0.37201  0.19459  0.36697  1.0000
  H   H61       1.0  0.47972  0.28613  0.35490  1.0000
  C   C69       1.0  0.29995  0.20924  0.33361  1.0000
  C   C70       1.0  0.26503  0.19108  0.34300  1.0000
  C   C71       1.0  0.24837  0.20935  0.34710  1.0000
  N   N16       1.0  0.31549  0.19189  0.32080  1.0000
  C   C72       1.0  0.26299  0.29825  0.34694  1.0000
  C   C73       1.0  0.24633  0.31650  0.34178  1.0000
  C   C74       1.0  0.21143  0.29831  0.33196  1.0000
  N   N17       1.0  0.19602  0.31567  0.31750  1.0000
  H   H62       1.0  0.19708  0.32913  0.36845  1.0000
  H   H63       1.0  0.31338  0.17715  0.36926  1.0000
  H   H64       1.0  0.22335  0.19547  0.35260  1.0000
  H   H65       1.0  0.28799  0.31212  0.35303  1.0000
  C   C75       1.0  0.30025  0.09256  0.33101  1.0000
  C   C76       1.0  0.31838  0.07584  0.34224  1.0000
  C   C77       1.0  0.30009  0.04094  0.34809  1.0000
  N   N18       1.0  0.31756  0.12529  0.31566  1.0000
  C   C78       1.0  0.21121  0.46672  0.34795  1.0000
  C   C79       1.0  0.19291  0.43179  0.34314  1.0000
  C   C80       1.0  0.21106  0.41505  0.33268  1.0000
  N   N19       1.0  0.19378  0.38222  0.31887  1.0000
  H   H66       1.0  0.33289  0.13817  0.36277  1.0000
  H   H67       1.0  0.31391  0.02979  0.35522  1.0000
  H   H68       1.0  0.19737  0.47787  0.35436  1.0000
  C   C81       1.0  0.18805  0.28192  0.54368  1.0000
  H   H69       1.0  0.18706  0.30383  0.52281  1.0000
  H   H70       1.0  0.20867  0.28181  0.50999  1.0000
  H   H71       1.0  0.19384  0.28431  0.61540  1.0000
  C   C82       1.0  0.26080  0.39543  0.42716  1.0000
  C   C83       1.0  0.26294  0.41314  0.34614  1.0000
  N   N20       1.0  0.26014  0.36591  0.41847  1.0000
  C   C84       1.0  0.25964  0.40644  0.52297  1.0000
  C   C85       1.0  0.26093  0.38244  0.59527  1.0000
  H   H72       1.0  0.23931  0.35771  0.58964  1.0000
  H   H73       1.0  0.26137  0.39120  0.66363  1.0000
  H   H74       1.0  0.28306  0.38033  0.58681  1.0000
  C   C86       1.0  0.22751  0.40791  0.54330  1.0000
  H   H75       1.0  0.20565  0.38512  0.52161  1.0000
  H   H76       1.0  0.22773  0.42881  0.51029  1.0000
  H   H77       1.0  0.22494  0.41099  0.61511  1.0000
  C   C87       1.0  0.29079  0.44116  0.53999  1.0000
  H   H78       1.0  0.31349  0.44052  0.52672  1.0000
  H   H79       1.0  0.29159  0.44906  0.60951  1.0000
  H   H80       1.0  0.29080  0.46005  0.49718  1.0000
  C   C88       1.0  0.36928  0.25894  0.42777  1.0000
  C   C89       1.0  0.35370  0.26118  0.34682  1.0000
  N   N21       1.0  0.39812  0.25822  0.41908  1.0000
  C   C90       1.0  0.35714  0.25788  0.52358  1.0000
  C   C91       1.0  0.38244  0.25922  0.59588  1.0000
  H   H81       1.0  0.38553  0.23758  0.59043  1.0000
  H   H82       1.0  0.37416  0.25973  0.66424  1.0000
  H   H83       1.0  0.40669  0.28133  0.58726  1.0000
  C   C92       1.0  0.32353  0.22581  0.54425  1.0000
  H   H84       1.0  0.32446  0.20389  0.52320  1.0000
  H   H85       1.0  0.30285  0.22593  0.51093  1.0000
  H   H86       1.0  0.31787  0.22343  0.61604  1.0000
  C   C93       1.0  0.35360  0.28906  0.54033  1.0000
  H   H87       1.0  0.37693  0.31174  0.52683  1.0000
  H   H88       1.0  0.34655  0.28996  0.60984  1.0000
  H   H89       1.0  0.33469  0.28903  0.49753  1.0000
  C   C94       1.0  0.25053  0.11208  0.42693  1.0000
  C   C95       1.0  0.24849  0.09463  0.34540  1.0000
  N   N22       1.0  0.25109  0.14157  0.41872  1.0000
  C   C96       1.0  0.25183  0.10103  0.52260  1.0000
  C   C97       1.0  0.25063  0.12500  0.59521  1.0000
  H   H90       1.0  0.27223  0.14974  0.58949  1.0000
  H   H91       1.0  0.25032  0.11622  0.66348  1.0000
  H   H92       1.0  0.22848  0.12709  0.58717  1.0000
  C   C98       1.0  0.28401  0.09960  0.54237  1.0000
  H   H93       1.0  0.30583  0.12238  0.52039  1.0000
  H   H94       1.0  0.28374  0.07869  0.50927  1.0000
  H   H95       1.0  0.28674  0.09657  0.61411  1.0000
  C   C99       1.0  0.22071  0.06632  0.53979  1.0000
  H   H96       1.0  0.19799  0.06695  0.52681  1.0000
  H   H97       1.0  0.22000  0.05841  0.60926  1.0000
  H   H98       1.0  0.22064  0.04743  0.49687  1.0000
  C   C100      1.0  0.39738  0.14036  0.42740  1.0000
  C   C101      1.0  0.41498  0.15587  0.34613  1.0000
  N   N23       1.0  0.36788  0.11145  0.41911  1.0000
  C   C102      1.0  0.40846  0.15268  0.52309  1.0000
  C   C103      1.0  0.38449  0.12753  0.59568  1.0000
  H   H99       1.0  0.35976  0.12441  0.59000  1.0000
  H   H100      1.0  0.39327  0.13597  0.66396  1.0000
  H   H101      1.0  0.38237  0.10327  0.58759  1.0000
  C   C104      1.0  0.40998  0.18633  0.54305  1.0000
  H   H102      1.0  0.38707  0.18529  0.52211  1.0000
  H   H103      1.0  0.43068  0.20692  0.50921  1.0000
  H   H104      1.0  0.41339  0.19219  0.61471  1.0000
  C   C105      1.0  0.44316  0.15622  0.54018  1.0000
  H   H105      1.0  0.44250  0.13287  0.52698  1.0000
  H   H106      1.0  0.45106  0.16334  0.60970  1.0000
  H   H107      1.0  0.46207  0.17508  0.49740  1.0000
  C   C106      1.0  0.48779  0.74489  0.34485  1.0000
  C   C107      1.0  0.46861  0.70944  0.34131  1.0000
  C   C108      1.0  0.43364  0.69118  0.33692  1.0000
  H   H108      1.0  0.47978  0.69552  0.34133  1.0000
  H   H109      1.0  0.37445  0.67438  0.28039  1.0000
  C   C109      1.0  0.26465  0.74481  0.34402  1.0000
  C   C110      1.0  0.30010  0.76107  0.34076  1.0000
  C   C111      1.0  0.31837  0.74436  0.33796  1.0000
  H   H110      1.0  0.31401  0.78616  0.34016  1.0000
  C   C112      1.0  0.24671  0.76279  0.34393  1.0000
  C   C113      1.0  0.19298  0.76321  0.33733  1.0000
  C   C114      1.0  0.21126  0.74652  0.34083  1.0000
  H   H111      1.0  0.19733  0.72143  0.34078  1.0000
  H   H112      1.0  0.33607  0.70200  0.28875  1.0000
  C   C115      1.0  0.26464  0.52179  0.34444  1.0000
  C   C116      1.0  0.24841  0.54099  0.34058  1.0000
  C   C117      1.0  0.26516  0.57596  0.33651  1.0000
  H   H113      1.0  0.22332  0.52984  0.34007  1.0000
  C   C118      1.0  0.24665  0.98587  0.34450  1.0000
  C   C119      1.0  0.24618  0.93170  0.33715  1.0000
  C   C120      1.0  0.26290  0.96668  0.34067  1.0000
  H   H114      1.0  0.28799  0.97785  0.33985  1.0000
  H   H115      1.0  0.20364  0.87147  0.28698  1.0000
  H   H116      1.0  0.30771  0.63603  0.28359  1.0000
  C   C121      1.0  0.26722  0.89910  0.26577  1.0000
  N   N24       1.0  0.26636  0.86933  0.26567  1.0000
  C   C122      1.0  0.26330  0.85183  0.34211  1.0000
  O   O9        1.0  0.26648  0.91206  0.18483  1.0000
  H   H117      1.0  0.26527  0.85898  0.20786  1.0000
  C   C123      1.0  0.37209  0.76556  0.26650  1.0000
  N   N25       1.0  0.40096  0.76464  0.26615  1.0000
  C   C124      1.0  0.41527  0.76141  0.34264  1.0000
  O   O10       1.0  0.35837  0.76486  0.18561  1.0000
  H   H118      1.0  0.41026  0.76369  0.20827  1.0000
  C   C125      1.0  0.24405  0.60869  0.26537  1.0000
  N   N26       1.0  0.24495  0.63847  0.26576  1.0000
  C   C126      1.0  0.24795  0.65575  0.34255  1.0000
  O   O11       1.0  0.24490  0.59588  0.18427  1.0000
  H   H119      1.0  0.24599  0.64891  0.20814  1.0000
  C   C127      1.0  0.40090  0.63732  0.26611  1.0000
  N   N27       1.0  0.37115  0.60841  0.26635  1.0000
  C   C128      1.0  0.35371  0.59412  0.34300  1.0000
  O   O12       1.0  0.41385  0.65086  0.18502  1.0000
  H   H120      1.0  0.36082  0.59903  0.20860  1.0000
  C   C129      1.0  0.41707  0.70968  0.33036  1.0000
  C   C130      1.0  0.43373  0.74453  0.34116  1.0000
  C   C131      1.0  0.46861  0.76117  0.34788  1.0000
  N   N28       1.0  0.38435  0.69446  0.31477  1.0000
  H   H121      1.0  0.37201  0.69459  0.36697  1.0000
  H   H122      1.0  0.47972  0.78614  0.35490  1.0000
  C   C132      1.0  0.29995  0.70924  0.33361  1.0000
  C   C133      1.0  0.26503  0.69108  0.34300  1.0000
  C   C134      1.0  0.24837  0.70935  0.34710  1.0000
  N   N29       1.0  0.31549  0.69189  0.32080  1.0000
  C   C135      1.0  0.26299  0.79824  0.34694  1.0000
  C   C136      1.0  0.24633  0.81650  0.34178  1.0000
  C   C137      1.0  0.21143  0.79831  0.33196  1.0000
  N   N30       1.0  0.19602  0.81567  0.31750  1.0000
  H   H123      1.0  0.19708  0.82913  0.36845  1.0000
  H   H124      1.0  0.31337  0.67715  0.36926  1.0000
  H   H125      1.0  0.22335  0.69548  0.35260  1.0000
  H   H126      1.0  0.28799  0.81212  0.35303  1.0000
  C   C138      1.0  0.30025  0.59256  0.33101  1.0000
  C   C139      1.0  0.31839  0.57584  0.34224  1.0000
  C   C140      1.0  0.30009  0.54094  0.34809  1.0000
  N   N31       1.0  0.31756  0.62529  0.31566  1.0000
  C   C141      1.0  0.21121  0.96672  0.34795  1.0000
  C   C142      1.0  0.19292  0.93179  0.34314  1.0000
  C   C143      1.0  0.21106  0.91505  0.33268  1.0000
  N   N32       1.0  0.19378  0.88222  0.31887  1.0000
  H   H127      1.0  0.33289  0.63817  0.36277  1.0000
  H   H128      1.0  0.31391  0.52979  0.35522  1.0000
  H   H129      1.0  0.19737  0.97788  0.35436  1.0000
  C   C144      1.0  0.18805  0.78192  0.54368  1.0000
  H   H130      1.0  0.18706  0.80383  0.52281  1.0000
  H   H131      1.0  0.20867  0.78181  0.50999  1.0000
  H   H132      1.0  0.19384  0.78431  0.61540  1.0000
  C   C145      1.0  0.26080  0.89543  0.42716  1.0000
  C   C146      1.0  0.26294  0.91314  0.34614  1.0000
  N   N33       1.0  0.26014  0.86591  0.41847  1.0000
  C   C147      1.0  0.25964  0.90644  0.52297  1.0000
  C   C148      1.0  0.26093  0.88244  0.59527  1.0000
  H   H133      1.0  0.23931  0.85771  0.58964  1.0000
  H   H134      1.0  0.26137  0.89120  0.66363  1.0000
  H   H135      1.0  0.28306  0.88034  0.58681  1.0000
  C   C149      1.0  0.22751  0.90791  0.54330  1.0000
  H   H136      1.0  0.20564  0.88513  0.52161  1.0000
  H   H137      1.0  0.22773  0.92881  0.51029  1.0000
  H   H138      1.0  0.22494  0.91099  0.61511  1.0000
  C   C150      1.0  0.29079  0.94115  0.53999  1.0000
  H   H139      1.0  0.31349  0.94052  0.52672  1.0000
  H   H140      1.0  0.29159  0.94907  0.60951  1.0000
  H   H141      1.0  0.29080  0.96005  0.49718  1.0000
  C   C151      1.0  0.36928  0.75894  0.42777  1.0000
  C   C152      1.0  0.35370  0.76118  0.34682  1.0000
  N   N34       1.0  0.39812  0.75823  0.41908  1.0000
  C   C153      1.0  0.35714  0.75789  0.52358  1.0000
  C   C154      1.0  0.38244  0.75922  0.59588  1.0000
  H   H142      1.0  0.38553  0.73758  0.59043  1.0000
  H   H143      1.0  0.37416  0.75973  0.66424  1.0000
  H   H144      1.0  0.40669  0.78133  0.58726  1.0000
  C   C155      1.0  0.32353  0.72581  0.54425  1.0000
  H   H145      1.0  0.32446  0.70389  0.52320  1.0000
  H   H146      1.0  0.30286  0.72593  0.51093  1.0000
  H   H147      1.0  0.31787  0.72343  0.61604  1.0000
  C   C156      1.0  0.35360  0.78906  0.54033  1.0000
  H   H148      1.0  0.37693  0.81174  0.52683  1.0000
  H   H149      1.0  0.34655  0.78996  0.60984  1.0000
  H   H150      1.0  0.33469  0.78903  0.49753  1.0000
  C   C157      1.0  0.25053  0.61208  0.42693  1.0000
  C   C158      1.0  0.24849  0.59463  0.34540  1.0000
  N   N35       1.0  0.25109  0.64157  0.41872  1.0000
  C   C159      1.0  0.25183  0.60103  0.52260  1.0000
  C   C160      1.0  0.25063  0.62500  0.59521  1.0000
  H   H151      1.0  0.27223  0.64974  0.58949  1.0000
  H   H152      1.0  0.25032  0.61623  0.66348  1.0000
  H   H153      1.0  0.22848  0.62709  0.58717  1.0000
  C   C161      1.0  0.28401  0.59960  0.54237  1.0000
  H   H154      1.0  0.30583  0.62238  0.52039  1.0000
  H   H155      1.0  0.28374  0.57869  0.50927  1.0000
  H   H156      1.0  0.28674  0.59657  0.61411  1.0000
  C   C162      1.0  0.22071  0.56632  0.53979  1.0000
  H   H157      1.0  0.19799  0.56695  0.52681  1.0000
  H   H158      1.0  0.22000  0.55841  0.60926  1.0000
  H   H159      1.0  0.22064  0.54743  0.49687  1.0000
  C   C163      1.0  0.39738  0.64036  0.42740  1.0000
  C   C164      1.0  0.41498  0.65587  0.34613  1.0000
  N   N36       1.0  0.36788  0.61145  0.41911  1.0000
  C   C165      1.0  0.40846  0.65268  0.52309  1.0000
  C   C166      1.0  0.38449  0.62753  0.59568  1.0000
  H   H160      1.0  0.35976  0.62441  0.59000  1.0000
  H   H161      1.0  0.39327  0.63597  0.66396  1.0000
  H   H162      1.0  0.38237  0.60327  0.58759  1.0000
  C   C167      1.0  0.40998  0.68633  0.54305  1.0000
  H   H163      1.0  0.38707  0.68529  0.52211  1.0000
  H   H164      1.0  0.43068  0.70691  0.50921  1.0000
  H   H165      1.0  0.41339  0.69220  0.61471  1.0000
  C   C168      1.0  0.44316  0.65622  0.54018  1.0000
  H   H166      1.0  0.44250  0.63287  0.52698  1.0000
  H   H167      1.0  0.45106  0.66334  0.60970  1.0000
  H   H168      1.0  0.46207  0.67508  0.49740  1.0000
  C   C169      1.0  0.98779  0.24489  0.34485  1.0000
  C   C170      1.0  0.96861  0.20944  0.34131  1.0000
  C   C171      1.0  0.93364  0.19118  0.33692  1.0000
  H   H169      1.0  0.97978  0.19552  0.34133  1.0000
  C   C172      1.0  0.52370  0.26283  0.34489  1.0000
  C   C173      1.0  0.57787  0.31652  0.33687  1.0000
  C   C174      1.0  0.54289  0.29828  0.34119  1.0000
  H   H170      1.0  0.53173  0.31221  0.34105  1.0000
  H   H171      1.0  0.63714  0.33346  0.28086  1.0000
  H   H172      1.0  0.87444  0.17438  0.28039  1.0000
  C   C175      1.0  0.76465  0.24480  0.34402  1.0000
  C   C176      1.0  0.80010  0.26107  0.34076  1.0000
  C   C177      1.0  0.81837  0.24436  0.33796  1.0000
  H   H173      1.0  0.81401  0.28616  0.34016  1.0000
  C   C178      1.0  0.74671  0.26279  0.34393  1.0000
  C   C179      1.0  0.69298  0.26321  0.33733  1.0000
  C   C180      1.0  0.71126  0.24652  0.34083  1.0000
  H   H174      1.0  0.69733  0.22143  0.34078  1.0000
  H   H175      1.0  0.67562  0.30567  0.28475  1.0000
  H   H176      1.0  0.83607  0.20200  0.28875  1.0000
  C   C181      1.0  0.76464  0.02178  0.34444  1.0000
  C   C182      1.0  0.74841  0.04099  0.34058  1.0000
  C   C183      1.0  0.76516  0.07596  0.33651  1.0000
  H   H177      1.0  0.72332  0.02984  0.34007  1.0000
  C   C184      1.0  0.74665  0.48587  0.34450  1.0000
  C   C185      1.0  0.74618  0.43170  0.33715  1.0000
  C   C186      1.0  0.76290  0.46668  0.34067  1.0000
  H   H178      1.0  0.78799  0.47785  0.33985  1.0000
  H   H179      1.0  0.70364  0.37147  0.28698  1.0000
  H   H180      1.0  0.80771  0.13603  0.28359  1.0000
  C   C187      1.0  0.63925  0.24206  0.26628  1.0000
  N   N37       1.0  0.61036  0.24294  0.26617  1.0000
  C   C188      1.0  0.59613  0.24622  0.34278  1.0000
  O   O13       1.0  0.65287  0.24268  0.18529  1.0000
  H   H181      1.0  0.60103  0.24392  0.20835  1.0000
  C   C189      1.0  0.76722  0.39910  0.26577  1.0000
  N   N38       1.0  0.76636  0.36933  0.26567  1.0000
  C   C190      1.0  0.76329  0.35183  0.34211  1.0000
  O   O14       1.0  0.76648  0.41206  0.18483  1.0000
  H   H182      1.0  0.76527  0.35898  0.20786  1.0000
  C   C191      1.0  0.61061  0.37046  0.26582  1.0000
  N   N39       1.0  0.64031  0.39942  0.26623  1.0000
  C   C192      1.0  0.65757  0.41354  0.34314  1.0000
  O   O15       1.0  0.59773  0.35685  0.18474  1.0000
  H   H183      1.0  0.65076  0.40883  0.20862  1.0000
  C   C193      1.0  0.87209  0.26556  0.26650  1.0000
  N   N40       1.0  0.90096  0.26464  0.26615  1.0000
  C   C194      1.0  0.91527  0.26141  0.34264  1.0000
  O   O16       1.0  0.85837  0.26486  0.18561  1.0000
  H   H184      1.0  0.91026  0.26369  0.20827  1.0000
  C   C195      1.0  0.74405  0.10869  0.26537  1.0000
  N   N41       1.0  0.74495  0.13847  0.26576  1.0000
  C   C196      1.0  0.74795  0.15574  0.34255  1.0000
  O   O17       1.0  0.74490  0.09588  0.18427  1.0000
  H   H185      1.0  0.74599  0.14891  0.20814  1.0000
  C   C197      1.0  0.90090  0.13732  0.26611  1.0000
  N   N42       1.0  0.87115  0.10841  0.26635  1.0000
  C   C198      1.0  0.85371  0.09412  0.34300  1.0000
  O   O18       1.0  0.91385  0.15086  0.18502  1.0000
  H   H186      1.0  0.86082  0.09903  0.20860  1.0000
  C   C199      1.0  0.91707  0.20967  0.33036  1.0000
  C   C200      1.0  0.93373  0.24453  0.34116  1.0000
  C   C201      1.0  0.96861  0.26117  0.34788  1.0000
  N   N43       1.0  0.88435  0.19446  0.31477  1.0000
  C   C202      1.0  0.54287  0.24655  0.34811  1.0000
  C   C203      1.0  0.57774  0.26316  0.34143  1.0000
  C   C204      1.0  0.59443  0.29802  0.33032  1.0000
  N   N44       1.0  0.62715  0.31321  0.31462  1.0000
  H   H187      1.0  0.63968  0.31242  0.36535  1.0000
  H   H188      1.0  0.87201  0.19459  0.36697  1.0000
  H   H189      1.0  0.97972  0.28613  0.35490  1.0000
  H   H190      1.0  0.53175  0.22159  0.35524  1.0000
  C   C205      1.0  0.79995  0.20924  0.33361  1.0000
  C   C206      1.0  0.76503  0.19108  0.34300  1.0000
  C   C207      1.0  0.74837  0.20935  0.34710  1.0000
  N   N45       1.0  0.81549  0.19189  0.32080  1.0000
  C   C208      1.0  0.76299  0.29825  0.34694  1.0000
  C   C209      1.0  0.74633  0.31650  0.34178  1.0000
  C   C210      1.0  0.71143  0.29831  0.33196  1.0000
  N   N46       1.0  0.69602  0.31567  0.31750  1.0000
  H   H191      1.0  0.69708  0.32913  0.36845  1.0000
  H   H192      1.0  0.81338  0.17715  0.36926  1.0000
  H   H193      1.0  0.72335  0.19547  0.35260  1.0000
  H   H194      1.0  0.78798  0.31212  0.35303  1.0000
  C   C211      1.0  0.80025  0.09256  0.33101  1.0000
  C   C212      1.0  0.81838  0.07584  0.34224  1.0000
  C   C213      1.0  0.80009  0.04094  0.34809  1.0000
  N   N47       1.0  0.81756  0.12529  0.31566  1.0000
  C   C214      1.0  0.71121  0.46672  0.34795  1.0000
  C   C215      1.0  0.69291  0.43179  0.34314  1.0000
  C   C216      1.0  0.71106  0.41505  0.33268  1.0000
  N   N48       1.0  0.69378  0.38222  0.31887  1.0000
  H   H195      1.0  0.67818  0.36938  0.36544  1.0000
  H   H196      1.0  0.83290  0.13817  0.36277  1.0000
  H   H197      1.0  0.81391  0.02979  0.35522  1.0000
  H   H198      1.0  0.69737  0.47787  0.35436  1.0000
  C   C217      1.0  0.64217  0.24870  0.42766  1.0000
  C   C218      1.0  0.65767  0.24648  0.34655  1.0000
  N   N49       1.0  0.61332  0.24939  0.41913  1.0000
  C   C219      1.0  0.65441  0.24983  0.52339  1.0000
  C   C220      1.0  0.62919  0.24858  0.59586  1.0000
  H   H199      1.0  0.62610  0.27022  0.59030  1.0000
  H   H200      1.0  0.63755  0.24815  0.66416  1.0000
  H   H201      1.0  0.60494  0.22647  0.58749  1.0000
  C   C221      1.0  0.68805  0.28192  0.54368  1.0000
  H   H202      1.0  0.68706  0.30383  0.52281  1.0000
  H   H203      1.0  0.70867  0.28181  0.50999  1.0000
  H   H204      1.0  0.69384  0.28431  0.61540  1.0000
  C   C222      1.0  0.65794  0.21866  0.54028  1.0000
  H   H205      1.0  0.63459  0.19597  0.52693  1.0000
  H   H206      1.0  0.66503  0.21781  0.60978  1.0000
  H   H207      1.0  0.67682  0.21865  0.49746  1.0000
  C   C223      1.0  0.76080  0.39543  0.42716  1.0000
  C   C224      1.0  0.76295  0.41314  0.34614  1.0000
  N   N50       1.0  0.76014  0.36591  0.41847  1.0000
  C   C225      1.0  0.75964  0.40644  0.52297  1.0000
  C   C226      1.0  0.76093  0.38244  0.59527  1.0000
  H   H208      1.0  0.73931  0.35771  0.58964  1.0000
  H   H209      1.0  0.76137  0.39120  0.66363  1.0000
  H   H210      1.0  0.78306  0.38033  0.58681  1.0000
  C   C227      1.0  0.72751  0.40791  0.54330  1.0000
  H   H211      1.0  0.70564  0.38512  0.52161  1.0000
  H   H212      1.0  0.72773  0.42881  0.51029  1.0000
  H   H213      1.0  0.72494  0.41099  0.61511  1.0000
  C   C228      1.0  0.79079  0.44116  0.53999  1.0000
  H   H214      1.0  0.81349  0.44052  0.52672  1.0000
  H   H215      1.0  0.79158  0.44906  0.60951  1.0000
  H   H216      1.0  0.79080  0.46005  0.49718  1.0000
  C   C229      1.0  0.61400  0.36727  0.42732  1.0000
  C   C230      1.0  0.59656  0.35185  0.34572  1.0000
  N   N51       1.0  0.64346  0.39624  0.41932  1.0000
  C   C231      1.0  0.60290  0.35488  0.52295  1.0000
  C   C232      1.0  0.62684  0.37999  0.59569  1.0000
  H   H217      1.0  0.65159  0.38314  0.58999  1.0000
  H   H218      1.0  0.61804  0.37149  0.66392  1.0000
  H   H219      1.0  0.62893  0.40424  0.58775  1.0000
  C   C233      1.0  0.60143  0.32124  0.54270  1.0000
  H   H220      1.0  0.62430  0.32227  0.52131  1.0000
  H   H221      1.0  0.58066  0.30064  0.50911  1.0000
  H   H222      1.0  0.59818  0.31538  0.61438  1.0000
  C   C234      1.0  0.56819  0.35130  0.54008  1.0000
  H   H223      1.0  0.56884  0.37465  0.52704  1.0000
  H   H224      1.0  0.56027  0.34412  0.60955  1.0000
  H   H225      1.0  0.54930  0.33246  0.49720  1.0000
  C   C235      1.0  0.86928  0.25894  0.42777  1.0000
  C   C236      1.0  0.85370  0.26118  0.34682  1.0000
  N   N52       1.0  0.89812  0.25822  0.41908  1.0000
  C   C237      1.0  0.85714  0.25788  0.52358  1.0000
  C   C238      1.0  0.88244  0.25922  0.59588  1.0000
  H   H226      1.0  0.88553  0.23758  0.59043  1.0000
  H   H227      1.0  0.87416  0.25973  0.66424  1.0000
  H   H228      1.0  0.90669  0.28133  0.58726  1.0000
  C   C239      1.0  0.82353  0.22581  0.54425  1.0000
  H   H229      1.0  0.82446  0.20389  0.52320  1.0000
  H   H230      1.0  0.80285  0.22593  0.51093  1.0000
  H   H231      1.0  0.81787  0.22343  0.61604  1.0000
  C   C240      1.0  0.85360  0.28906  0.54033  1.0000
  H   H232      1.0  0.87693  0.31174  0.52683  1.0000
  H   H233      1.0  0.84655  0.28996  0.60984  1.0000
  H   H234      1.0  0.83469  0.28903  0.49753  1.0000
  C   C241      1.0  0.75053  0.11208  0.42693  1.0000
  C   C242      1.0  0.74849  0.09463  0.34540  1.0000
  N   N53       1.0  0.75109  0.14157  0.41872  1.0000
  C   C243      1.0  0.75183  0.10103  0.52260  1.0000
  C   C244      1.0  0.75064  0.12500  0.59521  1.0000
  H   H235      1.0  0.77223  0.14974  0.58949  1.0000
  H   H236      1.0  0.75032  0.11622  0.66348  1.0000
  H   H237      1.0  0.72848  0.12709  0.58717  1.0000
  C   C245      1.0  0.78401  0.09960  0.54237  1.0000
  H   H238      1.0  0.80583  0.12238  0.52039  1.0000
  H   H239      1.0  0.78374  0.07869  0.50927  1.0000
  H   H240      1.0  0.78674  0.09657  0.61411  1.0000
  C   C246      1.0  0.72071  0.06632  0.53979  1.0000
  H   H241      1.0  0.69799  0.06695  0.52681  1.0000
  H   H242      1.0  0.72000  0.05841  0.60926  1.0000
  H   H243      1.0  0.72064  0.04743  0.49687  1.0000
  C   C247      1.0  0.89738  0.14036  0.42740  1.0000
  C   C248      1.0  0.91498  0.15587  0.34613  1.0000
  N   N54       1.0  0.86788  0.11145  0.41911  1.0000
  C   C249      1.0  0.90846  0.15268  0.52309  1.0000
  C   C250      1.0  0.88449  0.12753  0.59568  1.0000
  H   H244      1.0  0.85976  0.12441  0.59000  1.0000
  H   H245      1.0  0.89327  0.13597  0.66396  1.0000
  H   H246      1.0  0.88237  0.10327  0.58759  1.0000
  C   C251      1.0  0.90998  0.18633  0.54305  1.0000
  H   H247      1.0  0.88707  0.18529  0.52211  1.0000
  H   H248      1.0  0.93068  0.20692  0.50921  1.0000
  H   H249      1.0  0.91339  0.19219  0.61471  1.0000
  C   C252      1.0  0.94316  0.15622  0.54018  1.0000
  H   H250      1.0  0.94250  0.13287  0.52698  1.0000
  H   H251      1.0  0.95106  0.16334  0.60970  1.0000
  H   H252      1.0  0.96207  0.17508  0.49740  1.0000
  C   C253      1.0  0.98779  0.74489  0.34485  1.0000
  C   C254      1.0  0.96861  0.70944  0.34131  1.0000
  C   C255      1.0  0.93364  0.69118  0.33692  1.0000
  H   H253      1.0  0.97978  0.69552  0.34133  1.0000
  C   C256      1.0  0.52370  0.76283  0.34489  1.0000
  C   C257      1.0  0.57787  0.81652  0.33687  1.0000
  C   C258      1.0  0.54289  0.79828  0.34119  1.0000
  H   H254      1.0  0.53173  0.81221  0.34105  1.0000
  H   H255      1.0  0.63714  0.83346  0.28086  1.0000
  H   H256      1.0  0.87444  0.67438  0.28039  1.0000
  C   C259      1.0  0.76465  0.74481  0.34402  1.0000
  C   C260      1.0  0.80010  0.76107  0.34076  1.0000
  C   C261      1.0  0.81837  0.74436  0.33796  1.0000
  H   H257      1.0  0.81401  0.78616  0.34016  1.0000
  C   C262      1.0  0.74671  0.76279  0.34393  1.0000
  C   C263      1.0  0.69298  0.76321  0.33733  1.0000
  C   C264      1.0  0.71126  0.74652  0.34083  1.0000
  H   H258      1.0  0.69733  0.72143  0.34078  1.0000
  H   H259      1.0  0.67562  0.80567  0.28475  1.0000
  H   H260      1.0  0.83607  0.70200  0.28875  1.0000
  C   C265      1.0  0.76464  0.52179  0.34444  1.0000
  C   C266      1.0  0.74841  0.54099  0.34058  1.0000
  C   C267      1.0  0.76516  0.57596  0.33651  1.0000
  H   H261      1.0  0.72332  0.52984  0.34007  1.0000
  C   C268      1.0  0.74665  0.98587  0.34450  1.0000
  C   C269      1.0  0.74618  0.93170  0.33715  1.0000
  C   C270      1.0  0.76290  0.96668  0.34067  1.0000
  H   H262      1.0  0.78799  0.97785  0.33985  1.0000
  H   H263      1.0  0.70364  0.87147  0.28698  1.0000
  H   H264      1.0  0.80771  0.63603  0.28359  1.0000
  C   C271      1.0  0.63925  0.74206  0.26628  1.0000
  N   N55       1.0  0.61036  0.74295  0.26617  1.0000
  C   C272      1.0  0.59613  0.74622  0.34278  1.0000
  O   O19       1.0  0.65288  0.74268  0.18529  1.0000
  H   H265      1.0  0.60103  0.74392  0.20835  1.0000
  C   C273      1.0  0.76722  0.89910  0.26577  1.0000
  N   N56       1.0  0.76636  0.86933  0.26567  1.0000
  C   C274      1.0  0.76329  0.85183  0.34211  1.0000
  O   O20       1.0  0.76648  0.91206  0.18483  1.0000
  H   H266      1.0  0.76527  0.85898  0.20786  1.0000
  C   C275      1.0  0.61061  0.87046  0.26582  1.0000
  N   N57       1.0  0.64031  0.89942  0.26623  1.0000
  C   C276      1.0  0.65757  0.91355  0.34314  1.0000
  O   O21       1.0  0.59773  0.85685  0.18474  1.0000
  H   H267      1.0  0.65076  0.90883  0.20862  1.0000
  C   C277      1.0  0.87209  0.76556  0.26650  1.0000
  N   N58       1.0  0.90096  0.76464  0.26615  1.0000
  C   C278      1.0  0.91527  0.76141  0.34264  1.0000
  O   O22       1.0  0.85837  0.76486  0.18561  1.0000
  H   H268      1.0  0.91026  0.76369  0.20827  1.0000
  C   C279      1.0  0.74405  0.60869  0.26537  1.0000
  N   N59       1.0  0.74495  0.63847  0.26576  1.0000
  C   C280      1.0  0.74795  0.65575  0.34255  1.0000
  O   O23       1.0  0.74490  0.59588  0.18427  1.0000
  H   H269      1.0  0.74599  0.64891  0.20814  1.0000
  C   C281      1.0  0.90090  0.63732  0.26611  1.0000
  N   N60       1.0  0.87115  0.60841  0.26635  1.0000
  C   C282      1.0  0.85371  0.59412  0.34300  1.0000
  O   O24       1.0  0.91385  0.65086  0.18502  1.0000
  H   H270      1.0  0.86082  0.59903  0.20860  1.0000
  C   C283      1.0  0.91707  0.70968  0.33036  1.0000
  C   C284      1.0  0.93373  0.74453  0.34116  1.0000
  C   C285      1.0  0.96861  0.76117  0.34788  1.0000
  N   N61       1.0  0.88435  0.69446  0.31477  1.0000
  C   C286      1.0  0.54286  0.74655  0.34811  1.0000
  C   C287      1.0  0.57774  0.76316  0.34143  1.0000
  C   C288      1.0  0.59443  0.79802  0.33032  1.0000
  N   N62       1.0  0.62715  0.81321  0.31462  1.0000
  H   H271      1.0  0.63969  0.81243  0.36535  1.0000
  H   H272      1.0  0.87201  0.69459  0.36697  1.0000
  H   H273      1.0  0.97972  0.78614  0.35490  1.0000
  H   H274      1.0  0.53175  0.72159  0.35524  1.0000
  C   C289      1.0  0.79995  0.70924  0.33361  1.0000
  C   C290      1.0  0.76503  0.69108  0.34300  1.0000
  C   C291      1.0  0.74836  0.70935  0.34710  1.0000
  N   N63       1.0  0.81549  0.69189  0.32080  1.0000
  C   C292      1.0  0.76299  0.79824  0.34694  1.0000
  C   C293      1.0  0.74633  0.81650  0.34178  1.0000
  C   C294      1.0  0.71143  0.79831  0.33196  1.0000
  N   N64       1.0  0.69602  0.81567  0.31750  1.0000
  H   H275      1.0  0.69708  0.82913  0.36845  1.0000
  H   H276      1.0  0.81338  0.67715  0.36926  1.0000
  H   H277      1.0  0.72335  0.69548  0.35260  1.0000
  H   H278      1.0  0.78798  0.81212  0.35303  1.0000
  C   C295      1.0  0.80025  0.59256  0.33101  1.0000
  C   C296      1.0  0.81838  0.57584  0.34224  1.0000
  C   C297      1.0  0.80009  0.54094  0.34809  1.0000
  N   N65       1.0  0.81756  0.62529  0.31566  1.0000
  C   C298      1.0  0.71121  0.96672  0.34795  1.0000
  C   C299      1.0  0.69291  0.93179  0.34314  1.0000
  C   C300      1.0  0.71106  0.91505  0.33268  1.0000
  N   N66       1.0  0.69378  0.88222  0.31887  1.0000
  H   H279      1.0  0.67818  0.86938  0.36544  1.0000
  H   H280      1.0  0.83290  0.63817  0.36277  1.0000
  H   H281      1.0  0.81391  0.52979  0.35522  1.0000
  H   H282      1.0  0.69737  0.97788  0.35436  1.0000
  C   C301      1.0  0.64217  0.74870  0.42766  1.0000
  C   C302      1.0  0.65767  0.74648  0.34655  1.0000
  N   N67       1.0  0.61332  0.74939  0.41913  1.0000
  C   C303      1.0  0.65441  0.74983  0.52339  1.0000
  C   C304      1.0  0.62919  0.74858  0.59586  1.0000
  H   H283      1.0  0.62610  0.77022  0.59030  1.0000
  H   H284      1.0  0.63755  0.74815  0.66416  1.0000
  H   H285      1.0  0.60494  0.72647  0.58749  1.0000
  C   C305      1.0  0.68805  0.78192  0.54368  1.0000
  H   H286      1.0  0.68706  0.80383  0.52281  1.0000
  H   H287      1.0  0.70867  0.78181  0.50999  1.0000
  H   H288      1.0  0.69384  0.78431  0.61540  1.0000
  C   C306      1.0  0.65794  0.71866  0.54028  1.0000
  H   H289      1.0  0.63459  0.69597  0.52693  1.0000
  H   H290      1.0  0.66503  0.71781  0.60978  1.0000
  H   H291      1.0  0.67682  0.71865  0.49746  1.0000
  C   C307      1.0  0.76080  0.89543  0.42716  1.0000
  C   C308      1.0  0.76295  0.91314  0.34614  1.0000
  N   N68       1.0  0.76014  0.86591  0.41847  1.0000
  C   C309      1.0  0.75964  0.90644  0.52297  1.0000
  C   C310      1.0  0.76093  0.88244  0.59527  1.0000
  H   H292      1.0  0.73931  0.85771  0.58964  1.0000
  H   H293      1.0  0.76137  0.89120  0.66363  1.0000
  H   H294      1.0  0.78306  0.88034  0.58681  1.0000
  C   C311      1.0  0.72751  0.90791  0.54330  1.0000
  H   H295      1.0  0.70564  0.88513  0.52161  1.0000
  H   H296      1.0  0.72773  0.92881  0.51029  1.0000
  H   H297      1.0  0.72494  0.91099  0.61511  1.0000
  C   C312      1.0  0.79079  0.94115  0.53999  1.0000
  H   H298      1.0  0.81349  0.94052  0.52672  1.0000
  H   H299      1.0  0.79159  0.94907  0.60951  1.0000
  H   H300      1.0  0.79080  0.96005  0.49718  1.0000
  C   C313      1.0  0.61400  0.86727  0.42732  1.0000
  C   C314      1.0  0.59656  0.85185  0.34572  1.0000
  N   N69       1.0  0.64346  0.89624  0.41932  1.0000
  C   C315      1.0  0.60290  0.85488  0.52295  1.0000
  C   C316      1.0  0.62684  0.87999  0.59569  1.0000
  H   H301      1.0  0.65159  0.88314  0.58999  1.0000
  H   H302      1.0  0.61804  0.87149  0.66392  1.0000
  H   H303      1.0  0.62893  0.90424  0.58775  1.0000
  C   C317      1.0  0.60143  0.82124  0.54270  1.0000
  H   H304      1.0  0.62430  0.82227  0.52131  1.0000
  H   H305      1.0  0.58066  0.80064  0.50911  1.0000
  H   H306      1.0  0.59818  0.81538  0.61438  1.0000
  C   C318      1.0  0.56819  0.85130  0.54008  1.0000
  H   H307      1.0  0.56883  0.87465  0.52704  1.0000
  H   H308      1.0  0.56027  0.84412  0.60955  1.0000
  H   H309      1.0  0.54929  0.83246  0.49720  1.0000
  C   C319      1.0  0.86928  0.75894  0.42777  1.0000
  C   C320      1.0  0.85370  0.76118  0.34682  1.0000
  N   N70       1.0  0.89812  0.75823  0.41908  1.0000
  C   C321      1.0  0.85714  0.75789  0.52358  1.0000
  C   C322      1.0  0.88244  0.75922  0.59588  1.0000
  H   H310      1.0  0.88553  0.73758  0.59043  1.0000
  H   H311      1.0  0.87416  0.75973  0.66424  1.0000
  H   H312      1.0  0.90669  0.78133  0.58726  1.0000
  C   C323      1.0  0.82353  0.72581  0.54425  1.0000
  H   H313      1.0  0.82446  0.70389  0.52320  1.0000
  H   H314      1.0  0.80285  0.72593  0.51093  1.0000
  H   H315      1.0  0.81787  0.72343  0.61604  1.0000
  C   C324      1.0  0.85360  0.78906  0.54033  1.0000
  H   H316      1.0  0.87693  0.81174  0.52683  1.0000
  H   H317      1.0  0.84655  0.78996  0.60984  1.0000
  H   H318      1.0  0.83469  0.78903  0.49753  1.0000
  C   C325      1.0  0.75053  0.61208  0.42693  1.0000
  C   C326      1.0  0.74849  0.59463  0.34540  1.0000
  N   N71       1.0  0.75109  0.64157  0.41872  1.0000
  C   C327      1.0  0.75183  0.60103  0.52260  1.0000
  C   C328      1.0  0.75064  0.62500  0.59521  1.0000
  H   H319      1.0  0.77223  0.64974  0.58949  1.0000
  H   H320      1.0  0.75032  0.61623  0.66348  1.0000
  H   H321      1.0  0.72848  0.62709  0.58717  1.0000
  C   C329      1.0  0.78401  0.59960  0.54237  1.0000
  H   H322      1.0  0.80583  0.62238  0.52039  1.0000
  H   H323      1.0  0.78374  0.57869  0.50927  1.0000
  H   H324      1.0  0.78674  0.59657  0.61411  1.0000
  C   C330      1.0  0.72071  0.56632  0.53979  1.0000
  H   H325      1.0  0.69799  0.56695  0.52681  1.0000
  H   H326      1.0  0.72000  0.55841  0.60926  1.0000
  H   H327      1.0  0.72064  0.54743  0.49687  1.0000
  C   C331      1.0  0.89738  0.64036  0.42740  1.0000
  C   C332      1.0  0.91498  0.65587  0.34613  1.0000
  N   N72       1.0  0.86788  0.61145  0.41911  1.0000
  C   C333      1.0  0.90846  0.65268  0.52309  1.0000
  C   C334      1.0  0.88449  0.62753  0.59568  1.0000
  H   H328      1.0  0.85976  0.62441  0.59000  1.0000
  H   H329      1.0  0.89327  0.63597  0.66396  1.0000
  H   H330      1.0  0.88237  0.60327  0.58759  1.0000
  C   C335      1.0  0.90998  0.68633  0.54305  1.0000
  H   H331      1.0  0.88707  0.68529  0.52211  1.0000
  H   H332      1.0  0.93068  0.70691  0.50921  1.0000
  H   H333      1.0  0.91339  0.69220  0.61471  1.0000
  C   C336      1.0  0.94316  0.65622  0.54018  1.0000
  H   H334      1.0  0.94250  0.63287  0.52698  1.0000
  H   H335      1.0  0.95106  0.66334  0.60970  1.0000
  H   H336      1.0  0.96207  0.67508  0.49740  1.0000
