data_image0
_chemical_formula_structural       CNC2NC4NC18H14C2NC16H12C3NC2NC5NC4NC18H14CNC16H12C11H11CNCNC4NC16H13C7H2NH2NO2C7H2NH2NO2C7H2NH2NO2C7H2NH2NO2C7H2NH2NO2C7H2NH2NO2C7H2NH2NO2C7H2NH2NO2C7H2NH2NO2C7H2NH2NO2C7H2NH2NO2C7H2NH2NO2C7NC12H12C2NC3NC3NC18H14C12H12C3NC3NC3NC18H14C3NC3NC2NC5NC20H15C8NC14H13C2HC3HNH2NO2C2HC3HNH2NO2C2HC3HNH2NO2C2HC3HNH2NO2C2HC3HNH2NO2C2HC3HNH2NO2C2HC3HNH2NO2C2HC3HNH2NO2C2HC3HNH2NO2C2HC3HNH2NO2C2HC3HNH2NO2C2HC3HNH2NO2
_chemical_formula_sum              "C408 N72 H252 O48"
_cell_length_a       68.8654
_cell_length_b       68.8656
_cell_length_c       14.9592
_cell_angle_alpha    90.0014
_cell_angle_beta     89.9714
_cell_angle_gamma    120

_space_group_name_H-M_alt    "P 1"
_space_group_IT_number       1

loop_
  _space_group_symop_operation_xyz
  'x, y, z'

loop_
  _atom_site_type_symbol
  _atom_site_label
  _atom_site_symmetry_multiplicity
  _atom_site_fract_x
  _atom_site_fract_y
  _atom_site_fract_z
  _atom_site_occupancy
  C   C1        1.0  0.27533  0.51305  0.35831  1.0000
  N   N1        1.0  0.26821  0.47846  0.34209  1.0000
  C   C2        1.0  0.29087  0.49113  0.34680  1.0000
  C   C3        1.0  0.30748  0.48460  0.34179  1.0000
  N   N2        1.0  0.28231  0.44310  0.33633  1.0000
  C   C4        1.0  0.28398  0.42435  0.33335  1.0000
  C   C5        1.0  0.30696  0.43182  0.33468  1.0000
  C   C6        1.0  0.31842  0.45493  0.33544  1.0000
  C   C7        1.0  0.26637  0.40159  0.32958  1.0000
  N   N3        1.0  0.23286  0.40718  0.33399  1.0000
  C   C8        1.0  0.21015  0.39456  0.33166  1.0000
  C   C9        1.0  0.22560  0.37249  0.32338  1.0000
  C   C10       1.0  0.21717  0.46147  0.33997  1.0000
  C   C11       1.0  0.23480  0.48407  0.34500  1.0000
  C   C12       1.0  0.22891  0.50119  0.34633  1.0000
  C   C13       1.0  0.22539  0.50951  0.26526  1.0000
  C   C14       1.0  0.22218  0.52815  0.26523  1.0000
  C   C15       1.0  0.22264  0.53891  0.34624  1.0000
  C   C16       1.0  0.15942  0.37417  0.25318  1.0000
  C   C17       1.0  0.13602  0.35968  0.25162  1.0000
  C   C18       1.0  0.27273  0.38472  0.32534  1.0000
  C   C19       1.0  0.29060  0.35497  0.32574  1.0000
  C   C20       1.0  0.29314  0.36860  0.25061  1.0000
  C   C21       1.0  0.28406  0.38292  0.24973  1.0000
  C   C22       1.0  0.33047  0.50204  0.34004  1.0000
  C   C23       1.0  0.33896  0.51666  0.26587  1.0000
  C   C24       1.0  0.36067  0.53546  0.26780  1.0000
  C   C25       1.0  0.37490  0.53994  0.34265  1.0000
  H   H1        1.0  0.36569  0.54632  0.21486  1.0000
  H   H2        1.0  0.32897  0.51435  0.21163  1.0000
  H   H3        1.0  0.27399  0.52709  0.36510  1.0000
  H   H4        1.0  0.26033  0.46258  0.33127  1.0000
  H   H5        1.0  0.24084  0.42322  0.33946  1.0000
  H   H6        1.0  0.33549  0.46469  0.33614  1.0000
  H   H7        1.0  0.31456  0.42233  0.33445  1.0000
  H   H8        1.0  0.28692  0.39303  0.19533  1.0000
  H   H9        1.0  0.30244  0.36892  0.19669  1.0000
  H   H10       1.0  0.22691  0.35841  0.31774  1.0000
  H   H11       1.0  0.16819  0.37791  0.19443  1.0000
  H   H12       1.0  0.12830  0.35311  0.19179  1.0000
  H   H13       1.0  0.22044  0.53436  0.20546  1.0000
  H   H14       1.0  0.22594  0.50256  0.20548  1.0000
  C   C26       1.0  0.54597  0.76302  0.36082  1.0000
  C   C27       1.0  0.56786  0.80046  0.34811  1.0000
  N   N4        1.0  0.61586  0.83991  0.33689  1.0000
  C   C28       1.0  0.63460  0.86032  0.33345  1.0000
  C   C29       1.0  0.62713  0.87583  0.33404  1.0000
  C   C30       1.0  0.60401  0.86417  0.33486  1.0000
  C   C31       1.0  0.65736  0.86547  0.33000  1.0000
  C   C32       1.0  0.66439  0.81628  0.33247  1.0000
  C   C33       1.0  0.68647  0.85380  0.32496  1.0000
  C   C34       1.0  0.59747  0.75639  0.34003  1.0000
  C   C35       1.0  0.54921  0.71677  0.26527  1.0000
  C   C36       1.0  0.53056  0.69492  0.26516  1.0000
  C   C37       1.0  0.68491  0.78608  0.25382  1.0000
  C   C38       1.0  0.69942  0.77719  0.25227  1.0000
  C   C39       1.0  0.67424  0.88870  0.32578  1.0000
  C   C40       1.0  0.69046  0.92519  0.25074  1.0000
  C   C41       1.0  0.67614  0.90179  0.24992  1.0000
  C   C42       1.0  0.54218  0.82277  0.26665  1.0000
  C   C43       1.0  0.52340  0.82570  0.26848  1.0000
  H   H15       1.0  0.51249  0.81975  0.21573  1.0000
  H   H16       1.0  0.54445  0.81498  0.21264  1.0000
  H   H17       1.0  0.53194  0.74764  0.36827  1.0000
  H   H18       1.0  0.59425  0.87148  0.33500  1.0000
  H   H19       1.0  0.63661  0.89292  0.33331  1.0000
  H   H20       1.0  0.66608  0.89452  0.19545  1.0000
  H   H21       1.0  0.69018  0.93416  0.19671  1.0000
  H   H22       1.0  0.70058  0.86920  0.31965  1.0000
  H   H23       1.0  0.68130  0.79125  0.19513  1.0000
  H   H24       1.0  0.70609  0.77614  0.19252  1.0000
  H   H25       1.0  0.52420  0.68709  0.20532  1.0000
  H   H26       1.0  0.55600  0.72439  0.20549  1.0000
  C   C44       1.0  0.27599  0.76357  0.35925  1.0000
  C   C45       1.0  0.29594  0.78363  0.35910  1.0000
  C   C46       1.0  0.29114  0.80096  0.34861  1.0000
  N   N5        1.0  0.26850  0.79074  0.34206  1.0000
  C   C47       1.0  0.25850  0.76809  0.34696  1.0000
  C   C48       1.0  0.23537  0.75148  0.34158  1.0000
  N   N6        1.0  0.21904  0.77665  0.33609  1.0000
  C   C49       1.0  0.19863  0.77498  0.33280  1.0000
  C   C50       1.0  0.18312  0.75200  0.33367  1.0000
  C   C51       1.0  0.19478  0.74054  0.33454  1.0000
  C   C52       1.0  0.19349  0.79260  0.32922  1.0000
  C   C53       1.0  0.20987  0.81588  0.32947  1.0000
  N   N7        1.0  0.23258  0.82610  0.33369  1.0000
  C   C54       1.0  0.24268  0.84882  0.33163  1.0000
  C   C55       1.0  0.22516  0.85348  0.32625  1.0000
  C   C56       1.0  0.20516  0.83337  0.32390  1.0000
  C   C57       1.0  0.26589  0.86529  0.33373  1.0000
  N   N8        1.0  0.28215  0.84011  0.33932  1.0000
  C   C58       1.0  0.30256  0.84178  0.33971  1.0000
  C   C59       1.0  0.30752  0.82415  0.34492  1.0000
  C   C60       1.0  0.33053  0.83003  0.34627  1.0000
  C   C61       1.0  0.34233  0.83340  0.26516  1.0000
  C   C62       1.0  0.36418  0.83660  0.26520  1.0000
  C   C63       1.0  0.37451  0.83629  0.34631  1.0000
  C   C64       1.0  0.27210  0.88845  0.33380  1.0000
  C   C65       1.0  0.27293  0.89954  0.25316  1.0000
  C   C66       1.0  0.28178  0.92294  0.25166  1.0000
  C   C67       1.0  0.29033  0.93576  0.33047  1.0000
  C   C68       1.0  0.17025  0.78624  0.32500  1.0000
  C   C69       1.0  0.12264  0.76834  0.32536  1.0000
  C   C70       1.0  0.13376  0.76592  0.25008  1.0000
  C   C71       1.0  0.15717  0.77500  0.24925  1.0000
  C   C72       1.0  0.22983  0.72849  0.33978  1.0000
  C   C73       1.0  0.23608  0.72006  0.26578  1.0000
  C   C74       1.0  0.23318  0.69835  0.26775  1.0000
  C   C75       1.0  0.22329  0.68406  0.34238  1.0000
  H   H27       1.0  0.23909  0.69337  0.21490  1.0000
  H   H28       1.0  0.24386  0.73010  0.21171  1.0000
  H   H29       1.0  0.31133  0.78497  0.36632  1.0000
  H   H30       1.0  0.26053  0.79862  0.33028  1.0000
  H   H31       1.0  0.24065  0.81811  0.33839  1.0000
  H   H32       1.0  0.18747  0.72347  0.33484  1.0000
  H   H33       1.0  0.16603  0.74439  0.33311  1.0000
  H   H34       1.0  0.16444  0.77221  0.19477  1.0000
  H   H35       1.0  0.12480  0.75665  0.19610  1.0000
  H   H36       1.0  0.18976  0.83207  0.31854  1.0000
  H   H37       1.0  0.26782  0.89077  0.19444  1.0000
  H   H38       1.0  0.28290  0.93066  0.19186  1.0000
  H   H39       1.0  0.37211  0.83826  0.20543  1.0000
  H   H40       1.0  0.33482  0.83275  0.20534  1.0000
  C   C76       1.0  0.78726  0.54865  0.34746  1.0000
  N   N9        1.0  0.79583  0.59668  0.33697  1.0000
  C   C77       1.0  0.79416  0.61543  0.33381  1.0000
  C   C78       1.0  0.77118  0.60796  0.33494  1.0000
  C   C79       1.0  0.75973  0.58485  0.33592  1.0000
  C   C80       1.0  0.81178  0.63818  0.33001  1.0000
  C   C81       1.0  0.86800  0.64521  0.33216  1.0000
  C   C82       1.0  0.85256  0.66728  0.32415  1.0000
  C   C83       1.0  0.86096  0.57829  0.34050  1.0000
  C   C84       1.0  0.85269  0.53022  0.26575  1.0000
  C   C85       1.0  0.85587  0.51156  0.26574  1.0000
  C   C86       1.0  0.91872  0.66562  0.25349  1.0000
  C   C87       1.0  0.94212  0.68012  0.25183  1.0000
  C   C88       1.0  0.80543  0.65506  0.32572  1.0000
  C   C89       1.0  0.78506  0.67119  0.25085  1.0000
  C   C90       1.0  0.79418  0.65690  0.24997  1.0000
  C   C91       1.0  0.73920  0.52311  0.26660  1.0000
  C   C92       1.0  0.71748  0.50432  0.26855  1.0000
  H   H41       1.0  0.71248  0.49344  0.21566  1.0000
  H   H42       1.0  0.74921  0.52540  0.21239  1.0000
  H   H43       1.0  0.80413  0.51268  0.36600  1.0000
  H   H44       1.0  0.74266  0.57509  0.33616  1.0000
  H   H45       1.0  0.76358  0.61745  0.33437  1.0000
  H   H46       1.0  0.79131  0.64677  0.19565  1.0000
  H   H47       1.0  0.77577  0.67086  0.19692  1.0000
  H   H48       1.0  0.85126  0.68138  0.31862  1.0000
  H   H49       1.0  0.90995  0.66189  0.19477  1.0000
  H   H50       1.0  0.94983  0.68668  0.19196  1.0000
  H   H51       1.0  0.85762  0.50535  0.20597  1.0000
  H   H52       1.0  0.85211  0.53715  0.20597  1.0000
  C   C93       1.0  0.44354  0.17944  0.33397  1.0000
  C   C94       1.0  0.45101  0.16393  0.33528  1.0000
  C   C95       1.0  0.47413  0.17560  0.33612  1.0000
  C   C96       1.0  0.52872  0.32320  0.26618  1.0000
  C   C97       1.0  0.54736  0.34505  0.26618  1.0000
  C   C98       1.0  0.39337  0.25383  0.25372  1.0000
  C   C99       1.0  0.37887  0.26273  0.25209  1.0000
  C   C100      1.0  0.38782  0.11457  0.25085  1.0000
  C   C101      1.0  0.40215  0.13798  0.25010  1.0000
  C   C102      1.0  0.53586  0.21680  0.26670  1.0000
  C   C103      1.0  0.55466  0.21388  0.26862  1.0000
  H   H53       1.0  0.56553  0.21975  0.21568  1.0000
  H   H54       1.0  0.53356  0.22451  0.21249  1.0000
  H   H55       1.0  0.54627  0.29217  0.36616  1.0000
  H   H56       1.0  0.48388  0.16828  0.33683  1.0000
  H   H57       1.0  0.41227  0.14525  0.19575  1.0000
  H   H58       1.0  0.38816  0.10561  0.19690  1.0000
  H   H59       1.0  0.37760  0.17057  0.31817  1.0000
  H   H60       1.0  0.39712  0.24880  0.19498  1.0000
  H   H61       1.0  0.37232  0.26389  0.19225  1.0000
  H   H62       1.0  0.55359  0.35300  0.20640  1.0000
  H   H63       1.0  0.52180  0.31570  0.20638  1.0000
  C   C104      1.0  0.78221  0.25612  0.36090  1.0000
  N   N10       1.0  0.80965  0.24902  0.34298  1.0000
  C   C105      1.0  0.81965  0.27167  0.34811  1.0000
  N   N11       1.0  0.85910  0.26312  0.33681  1.0000
  C   C106      1.0  0.87951  0.26479  0.33334  1.0000
  C   C107      1.0  0.89502  0.28778  0.33393  1.0000
  C   C108      1.0  0.88336  0.29923  0.33478  1.0000
  C   C109      1.0  0.88466  0.24718  0.32986  1.0000
  N   N12       1.0  0.84556  0.21368  0.33433  1.0000
  C   C110      1.0  0.83547  0.19096  0.33234  1.0000
  C   C111      1.0  0.87299  0.20640  0.32477  1.0000
  C   C112      1.0  0.77558  0.19800  0.34010  1.0000
  C   C113      1.0  0.77062  0.21562  0.34554  1.0000
  C   C114      1.0  0.73593  0.20662  0.26555  1.0000
  C   C115      1.0  0.71409  0.20341  0.26553  1.0000
  C   C116      1.0  0.70364  0.20349  0.34668  1.0000
  C   C117      1.0  0.80525  0.14025  0.25364  1.0000
  C   C118      1.0  0.79636  0.11686  0.25206  1.0000
  C   C119      1.0  0.90790  0.25353  0.32564  1.0000
  C   C120      1.0  0.95551  0.27141  0.32590  1.0000
  C   C121      1.0  0.94439  0.27382  0.25061  1.0000
  C   C122      1.0  0.92099  0.26474  0.24979  1.0000
  C   C123      1.0  0.84830  0.31127  0.34047  1.0000
  C   C124      1.0  0.84195  0.31966  0.26665  1.0000
  C   C125      1.0  0.84489  0.34138  0.26850  1.0000
  H   H64       1.0  0.83893  0.34634  0.21577  1.0000
  H   H65       1.0  0.83417  0.30962  0.21264  1.0000
  H   H66       1.0  0.76683  0.25477  0.36837  1.0000
  H   H67       1.0  0.81760  0.24117  0.33002  1.0000
  H   H68       1.0  0.89067  0.31630  0.33492  1.0000
  H   H69       1.0  0.91211  0.29539  0.33319  1.0000
  H   H70       1.0  0.91372  0.26753  0.19532  1.0000
  H   H71       1.0  0.95336  0.28308  0.19658  1.0000
  H   H72       1.0  0.88839  0.20770  0.31944  1.0000
  H   H73       1.0  0.81041  0.14904  0.19496  1.0000
  H   H74       1.0  0.79532  0.10915  0.19229  1.0000
  H   H75       1.0  0.70624  0.20194  0.20572  1.0000
  H   H76       1.0  0.74354  0.20744  0.20572  1.0000
  C   C126      1.0  0.22182  0.55905  0.34522  1.0000
  C   C127      1.0  0.20128  0.55899  0.34045  1.0000
  C   C128      1.0  0.20165  0.57972  0.33901  1.0000
  C   C129      1.0  0.22203  0.60043  0.33955  1.0000
  C   C130      1.0  0.22100  0.62061  0.33900  1.0000
  C   C131      1.0  0.21346  0.62770  0.26392  1.0000
  C   C132      1.0  0.21355  0.64828  0.26939  1.0000
  H   H77       1.0  0.20805  0.65332  0.21533  1.0000
  H   H78       1.0  0.18671  0.57958  0.33683  1.0000
  N   N13       1.0  0.20683  0.61594  0.18596  1.0000
  H   H79       1.0  0.20740  0.60227  0.17711  1.0000
  H   H80       1.0  0.20213  0.62136  0.13491  1.0000
  N   N14       1.0  0.18089  0.53829  0.33755  1.0000
  O   O1        1.0  0.17031  0.53642  0.26666  1.0000
  O   O2        1.0  0.16854  0.53617  0.40297  1.0000
  C   C133      1.0  0.49989  0.66349  0.34534  1.0000
  C   C134      1.0  0.49995  0.64300  0.34133  1.0000
  C   C135      1.0  0.47923  0.62265  0.33992  1.0000
  C   C136      1.0  0.45852  0.62232  0.33986  1.0000
  C   C137      1.0  0.43834  0.60111  0.33933  1.0000
  C   C138      1.0  0.43131  0.58642  0.26439  1.0000
  C   C139      1.0  0.41073  0.56595  0.26984  1.0000
  H   H81       1.0  0.40575  0.55537  0.21591  1.0000
  H   H82       1.0  0.47937  0.60785  0.33820  1.0000
  N   N15       1.0  0.44316  0.59151  0.18660  1.0000
  H   H83       1.0  0.45684  0.60574  0.17777  1.0000
  H   H84       1.0  0.43778  0.58136  0.13563  1.0000
  N   N16       1.0  0.52067  0.64333  0.33895  1.0000
  O   O3        1.0  0.52260  0.63454  0.26836  1.0000
  O   O4        1.0  0.52272  0.63315  0.40471  1.0000
  C   C140      1.0  0.39548  0.83712  0.34539  1.0000
  C   C141      1.0  0.41596  0.85766  0.34066  1.0000
  C   C142      1.0  0.43632  0.85729  0.33930  1.0000
  C   C143      1.0  0.43664  0.83691  0.33992  1.0000
  C   C144      1.0  0.45786  0.83794  0.33943  1.0000
  C   C145      1.0  0.47250  0.84546  0.26430  1.0000
  C   C146      1.0  0.49297  0.84536  0.26983  1.0000
  H   H85       1.0  0.50352  0.85083  0.21573  1.0000
  H   H86       1.0  0.45111  0.87223  0.33712  1.0000
  N   N17       1.0  0.46737  0.85207  0.18629  1.0000
  H   H87       1.0  0.45314  0.85151  0.17743  1.0000
  H   H88       1.0  0.47749  0.85675  0.13522  1.0000
  N   N18       1.0  0.41564  0.87804  0.33766  1.0000
  O   O5        1.0  0.42438  0.88863  0.26676  1.0000
  O   O6        1.0  0.42585  0.89040  0.40308  1.0000
  C   C147      1.0  0.85630  0.48071  0.34581  1.0000
  C   C148      1.0  0.87685  0.48077  0.34099  1.0000
  C   C149      1.0  0.87647  0.46004  0.33956  1.0000
  C   C150      1.0  0.85609  0.43933  0.34018  1.0000
  C   C151      1.0  0.85712  0.41915  0.33962  1.0000
  C   C152      1.0  0.86464  0.41204  0.26445  1.0000
  C   C153      1.0  0.86452  0.39146  0.26990  1.0000
  H   H89       1.0  0.87002  0.38642  0.21580  1.0000
  H   H90       1.0  0.89141  0.46018  0.33733  1.0000
  N   N19       1.0  0.87126  0.42381  0.18647  1.0000
  H   H91       1.0  0.87070  0.43748  0.17765  1.0000
  H   H92       1.0  0.87593  0.41838  0.13536  1.0000
  N   N20       1.0  0.89723  0.50148  0.33801  1.0000
  O   O7        1.0  0.90781  0.50334  0.26709  1.0000
  O   O8        1.0  0.90958  0.50359  0.40340  1.0000
  C   C154      1.0  0.57823  0.37631  0.34622  1.0000
  C   C155      1.0  0.57817  0.39679  0.34169  1.0000
  C   C156      1.0  0.59889  0.41714  0.34026  1.0000
  C   C157      1.0  0.61960  0.41747  0.34058  1.0000
  C   C158      1.0  0.63978  0.43869  0.34004  1.0000
  C   C159      1.0  0.64685  0.45336  0.26504  1.0000
  C   C160      1.0  0.66742  0.47384  0.27051  1.0000
  H   H93       1.0  0.67244  0.48441  0.21652  1.0000
  H   H94       1.0  0.59875  0.43194  0.33825  1.0000
  N   N21       1.0  0.63506  0.44826  0.18717  1.0000
  H   H95       1.0  0.62139  0.43403  0.17831  1.0000
  H   H96       1.0  0.64046  0.45840  0.13618  1.0000
  N   N22       1.0  0.55745  0.39646  0.33899  1.0000
  O   O9        1.0  0.55557  0.40521  0.26821  1.0000
  O   O10       1.0  0.55535  0.40667  0.40455  1.0000
  C   C161      1.0  0.68268  0.20267  0.34584  1.0000
  C   C162      1.0  0.66219  0.18211  0.34179  1.0000
  C   C163      1.0  0.64183  0.18249  0.34045  1.0000
  C   C164      1.0  0.64151  0.20286  0.34048  1.0000
  C   C165      1.0  0.62029  0.20183  0.34000  1.0000
  C   C166      1.0  0.60561  0.19420  0.26506  1.0000
  C   C167      1.0  0.58515  0.19431  0.27054  1.0000
  H   H97       1.0  0.57457  0.18873  0.21661  1.0000
  H   H98       1.0  0.62703  0.16754  0.33871  1.0000
  N   N23       1.0  0.61070  0.18747  0.18723  1.0000
  H   H99       1.0  0.62493  0.18801  0.17838  1.0000
  H   H100      1.0  0.60056  0.18271  0.13627  1.0000
  N   N24       1.0  0.66252  0.16173  0.33931  1.0000
  O   O11       1.0  0.65373  0.15104  0.26870  1.0000
  O   O12       1.0  0.65234  0.14948  0.40505  1.0000
  C   C168      1.0  0.09941  0.34261  0.32752  1.0000
  C   C169      1.0  0.08763  0.31894  0.32127  1.0000
  C   C170      1.0  0.06390  0.30733  0.31941  1.0000
  C   C171      1.0  0.05162  0.31878  0.32086  1.0000
  C   C172      1.0  0.02766  0.30584  0.32072  1.0000
  C   C173      1.0  0.01499  0.29275  0.24635  1.0000
  C   C174      1.0  0.99128  0.28089  0.25238  1.0000
  H   H101      1.0  0.98225  0.27143  0.19878  1.0000
  H   H102      1.0  0.05550  0.29017  0.31663  1.0000
  N   N25       1.0  0.02465  0.29171  0.16839  1.0000
  H   H103      1.0  0.04075  0.30034  0.15900  1.0000
  H   H104      1.0  0.01563  0.28299  0.11775  1.0000
  N   N26       1.0  0.09982  0.30740  0.31828  1.0000
  O   O13       1.0  0.09601  0.29639  0.24709  1.0000
  O   O14       1.0  0.09505  0.29424  0.38335  1.0000
  C   C175      1.0  0.71633  0.75748  0.32796  1.0000
  C   C176      1.0  0.74001  0.76938  0.32153  1.0000
  C   C177      1.0  0.75161  0.75724  0.31962  1.0000
  C   C178      1.0  0.74017  0.73352  0.32121  1.0000
  C   C179      1.0  0.75311  0.72250  0.32099  1.0000
  C   C180      1.0  0.76616  0.72288  0.24650  1.0000
  C   C181      1.0  0.77801  0.71102  0.25245  1.0000
  H   H105      1.0  0.78746  0.71144  0.19879  1.0000
  H   H106      1.0  0.76878  0.76601  0.31672  1.0000
  N   N27       1.0  0.76718  0.73356  0.16852  1.0000
  H   H107      1.0  0.75855  0.74103  0.15919  1.0000
  H   H108      1.0  0.77587  0.73323  0.11781  1.0000
  N   N28       1.0  0.75155  0.79310  0.31846  1.0000
  O   O15       1.0  0.76255  0.80028  0.24720  1.0000
  O   O16       1.0  0.76472  0.80150  0.38345  1.0000
  C   C182      1.0  0.30146  0.95955  0.32740  1.0000
  C   C183      1.0  0.28956  0.97133  0.32080  1.0000
  C   C184      1.0  0.30169  0.99507  0.31896  1.0000
  C   C185      1.0  0.32541  0.00734  0.32076  1.0000
  C   C186      1.0  0.33643  0.03130  0.32064  1.0000
  C   C187      1.0  0.33611  0.04400  0.24613  1.0000
  C   C188      1.0  0.34796  0.06771  0.25218  1.0000
  H   H109      1.0  0.34759  0.07675  0.19849  1.0000
  H   H110      1.0  0.29293  0.00347  0.31595  1.0000
  N   N29       1.0  0.32550  0.03435  0.16804  1.0000
  H   H111      1.0  0.31804  0.01826  0.15866  1.0000
  H   H112      1.0  0.32586  0.04339  0.11733  1.0000
  N   N30       1.0  0.26584  0.95915  0.31753  1.0000
  O   O17       1.0  0.25872  0.96298  0.24619  1.0000
  O   O18       1.0  0.25739  0.96391  0.38243  1.0000
  C   C189      1.0  0.97874  0.69714  0.32748  1.0000
  C   C190      1.0  0.99052  0.72082  0.32117  1.0000
  C   C191      1.0  0.01425  0.73242  0.31920  1.0000
  C   C192      1.0  0.02652  0.72097  0.32063  1.0000
  C   C193      1.0  0.05049  0.73391  0.32040  1.0000
  C   C194      1.0  0.06316  0.74699  0.24595  1.0000
  C   C195      1.0  0.08687  0.75884  0.25190  1.0000
  H   H113      1.0  0.09591  0.76831  0.19827  1.0000
  H   H114      1.0  0.02265  0.74958  0.31638  1.0000
  N   N31       1.0  0.05350  0.74802  0.16803  1.0000
  H   H115      1.0  0.03741  0.73940  0.15870  1.0000
  H   H116      1.0  0.06253  0.75674  0.11734  1.0000
  N   N32       1.0  0.97834  0.73236  0.31824  1.0000
  O   O19       1.0  0.98215  0.74336  0.24703  1.0000
  O   O20       1.0  0.98311  0.74552  0.38328  1.0000
  C   C196      1.0  0.36179  0.28227  0.32789  1.0000
  C   C197      1.0  0.33812  0.27037  0.32136  1.0000
  C   C198      1.0  0.32651  0.28250  0.31943  1.0000
  C   C199      1.0  0.33796  0.30622  0.32109  1.0000
  C   C200      1.0  0.32501  0.31724  0.32085  1.0000
  C   C201      1.0  0.31201  0.31689  0.24630  1.0000
  C   C202      1.0  0.30014  0.32874  0.25222  1.0000
  H   H117      1.0  0.29074  0.32835  0.19849  1.0000
  H   H118      1.0  0.30935  0.27373  0.31644  1.0000
  N   N33       1.0  0.31105  0.30624  0.16828  1.0000
  H   H119      1.0  0.31968  0.29878  0.15897  1.0000
  H   H120      1.0  0.30238  0.30660  0.11753  1.0000
  N   N34       1.0  0.32659  0.24665  0.31818  1.0000
  O   O21       1.0  0.31564  0.23950  0.24686  1.0000
  O   O22       1.0  0.31338  0.23822  0.38309  1.0000
  C   C203      1.0  0.77668  0.08022  0.32775  1.0000
  C   C204      1.0  0.78858  0.06844  0.32147  1.0000
  C   C205      1.0  0.77645  0.04471  0.31958  1.0000
  C   C206      1.0  0.75273  0.03243  0.32102  1.0000
  C   C207      1.0  0.74171  0.00847  0.32088  1.0000
  C   C208      1.0  0.74213  0.99579  0.24650  1.0000
  C   C209      1.0  0.73026  0.97208  0.25251  1.0000
  H   H121      1.0  0.73072  0.96305  0.19893  1.0000
  H   H122      1.0  0.78522  0.03631  0.31680  1.0000
  N   N35       1.0  0.75284  0.00546  0.16854  1.0000
  H   H123      1.0  0.76031  0.02155  0.15916  1.0000
  H   H124      1.0  0.75254  0.99643  0.11791  1.0000
  N   N36       1.0  0.81230  0.08063  0.31854  1.0000
  O   O23       1.0  0.81951  0.07682  0.24735  1.0000
  O   O24       1.0  0.82067  0.07585  0.38361  1.0000
  C   C210      1.0  0.29539  0.51315  0.35844  1.0000
  C   C211      1.0  0.25799  0.49090  0.34840  1.0000
  C   C212      1.0  0.30264  0.46200  0.33792  1.0000
  C   C213      1.0  0.24309  0.39469  0.32950  1.0000
  C   C214      1.0  0.20550  0.37239  0.32579  1.0000
  C   C215      1.0  0.19367  0.40129  0.33397  1.0000
  C   C216      1.0  0.19852  0.42393  0.33602  1.0000
  N   N37       1.0  0.21885  0.44273  0.33946  1.0000
  C   C217      1.0  0.19430  0.45427  0.33662  1.0000
  C   C218      1.0  0.18282  0.43115  0.33397  1.0000
  C   C219      1.0  0.22579  0.53039  0.42746  1.0000
  C   C220      1.0  0.22876  0.51160  0.42756  1.0000
  C   C221      1.0  0.17051  0.38434  0.33393  1.0000
  C   C222      1.0  0.12320  0.35529  0.33055  1.0000
  C   C223      1.0  0.13431  0.36521  0.41148  1.0000
  C   C224      1.0  0.15772  0.37944  0.41328  1.0000
  C   C225      1.0  0.26951  0.37069  0.39948  1.0000
  C   C226      1.0  0.27790  0.35577  0.39879  1.0000
  C   C227      1.0  0.34468  0.50612  0.41431  1.0000
  C   C228      1.0  0.36669  0.52451  0.41466  1.0000
  H   H125      1.0  0.37654  0.52679  0.46927  1.0000
  H   H126      1.0  0.33897  0.49590  0.46922  1.0000
  H   H127      1.0  0.31067  0.52728  0.36599  1.0000
  H   H128      1.0  0.26144  0.37161  0.45544  1.0000
  H   H129      1.0  0.27510  0.34584  0.45363  1.0000
  H   H130      1.0  0.19008  0.35825  0.32193  1.0000
  H   H131      1.0  0.18694  0.46400  0.33631  1.0000
  H   H132      1.0  0.16576  0.42145  0.33046  1.0000
  H   H133      1.0  0.16526  0.38702  0.47220  1.0000
  H   H134      1.0  0.12537  0.36259  0.46929  1.0000
  H   H135      1.0  0.23178  0.50618  0.48687  1.0000
  H   H136      1.0  0.22661  0.53819  0.48675  1.0000
  C   C229      1.0  0.54587  0.78298  0.36103  1.0000
  C   C230      1.0  0.56808  0.76782  0.34964  1.0000
  N   N38       1.0  0.58052  0.79046  0.34297  1.0000
  C   C231      1.0  0.57436  0.82358  0.34236  1.0000
  C   C232      1.0  0.59696  0.84133  0.33803  1.0000
  C   C233      1.0  0.66426  0.84909  0.33032  1.0000
  N   N39       1.0  0.65177  0.82637  0.33445  1.0000
  C   C234      1.0  0.68657  0.83379  0.32728  1.0000
  C   C235      1.0  0.65765  0.79306  0.33439  1.0000
  C   C236      1.0  0.63501  0.77529  0.33605  1.0000
  N   N40       1.0  0.61621  0.77681  0.33998  1.0000
  C   C237      1.0  0.60465  0.74073  0.33586  1.0000
  C   C238      1.0  0.62778  0.75236  0.33321  1.0000
  C   C239      1.0  0.57488  0.75143  0.34543  1.0000
  C   C240      1.0  0.55775  0.72843  0.34653  1.0000
  C   C241      1.0  0.52003  0.68446  0.34627  1.0000
  C   C242      1.0  0.52876  0.69595  0.42765  1.0000
  C   C243      1.0  0.54756  0.71770  0.42784  1.0000
  C   C244      1.0  0.67459  0.78685  0.33442  1.0000
  C   C245      1.0  0.70366  0.76860  0.33107  1.0000
  C   C246      1.0  0.69359  0.76963  0.41186  1.0000
  C   C247      1.0  0.67933  0.77879  0.41364  1.0000
  C   C248      1.0  0.68817  0.89954  0.40008  1.0000
  C   C249      1.0  0.70309  0.92285  0.39932  1.0000
  C   C250      1.0  0.70398  0.93632  0.32604  1.0000
  C   C251      1.0  0.55691  0.82911  0.34049  1.0000
  C   C252      1.0  0.55289  0.83939  0.41441  1.0000
  C   C253      1.0  0.51900  0.83563  0.34296  1.0000
  C   C254      1.0  0.53449  0.84301  0.41470  1.0000
  H   H137      1.0  0.53227  0.85070  0.46903  1.0000
  H   H138      1.0  0.56318  0.84405  0.46913  1.0000
  H   H139      1.0  0.53176  0.78415  0.36914  1.0000
  H   H140      1.0  0.59630  0.79841  0.33000  1.0000
  H   H141      1.0  0.63570  0.81830  0.33899  1.0000
  H   H142      1.0  0.68719  0.89057  0.45617  1.0000
  H   H143      1.0  0.71296  0.93000  0.45426  1.0000
  H   H144      1.0  0.70072  0.83252  0.32389  1.0000
  H   H145      1.0  0.59492  0.72364  0.33506  1.0000
  H   H146      1.0  0.63747  0.74501  0.32927  1.0000
  H   H147      1.0  0.67166  0.77864  0.47247  1.0000
  H   H148      1.0  0.69608  0.76318  0.46955  1.0000
  H   H149      1.0  0.55312  0.72604  0.48729  1.0000
  H   H150      1.0  0.52111  0.68884  0.48704  1.0000
  C   C255      1.0  0.21762  0.75632  0.33742  1.0000
  C   C256      1.0  0.28367  0.86043  0.33559  1.0000
  C   C257      1.0  0.31823  0.86464  0.33595  1.0000
  C   C258      1.0  0.30659  0.87613  0.33320  1.0000
  C   C259      1.0  0.36287  0.83327  0.42753  1.0000
  C   C260      1.0  0.34112  0.83032  0.42758  1.0000
  C   C261      1.0  0.28925  0.92464  0.41129  1.0000
  C   C262      1.0  0.28006  0.90123  0.41309  1.0000
  C   C263      1.0  0.15941  0.78935  0.39928  1.0000
  C   C264      1.0  0.13609  0.78096  0.39855  1.0000
  C   C265      1.0  0.21959  0.71423  0.41386  1.0000
  C   C266      1.0  0.21597  0.69222  0.41420  1.0000
  H   H151      1.0  0.20830  0.68232  0.46863  1.0000
  H   H152      1.0  0.21498  0.71989  0.46864  1.0000
  H   H153      1.0  0.27482  0.74828  0.36712  1.0000
  H   H154      1.0  0.16837  0.79737  0.45532  1.0000
  H   H155      1.0  0.12894  0.78368  0.45351  1.0000
  H   H156      1.0  0.22643  0.86889  0.32280  1.0000
  H   H157      1.0  0.33532  0.87199  0.33543  1.0000
  H   H158      1.0  0.31395  0.89318  0.32949  1.0000
  H   H159      1.0  0.28021  0.89370  0.47190  1.0000
  H   H160      1.0  0.29566  0.93359  0.46901  1.0000
  H   H161      1.0  0.33269  0.82739  0.48692  1.0000
  H   H162      1.0  0.36989  0.83258  0.48691  1.0000
  C   C267      1.0  0.78274  0.52663  0.35924  1.0000
  C   C268      1.0  0.80279  0.52672  0.35904  1.0000
  C   C269      1.0  0.82013  0.54887  0.34898  1.0000
  N   N41       1.0  0.80992  0.56131  0.34265  1.0000
  C   C270      1.0  0.77066  0.55518  0.34243  1.0000
  C   C271      1.0  0.77550  0.57778  0.33850  1.0000
  C   C272      1.0  0.83507  0.64508  0.33006  1.0000
  N   N42       1.0  0.84528  0.63259  0.33443  1.0000
  C   C273      1.0  0.87266  0.66738  0.32645  1.0000
  C   C274      1.0  0.88448  0.63847  0.33433  1.0000
  C   C275      1.0  0.87961  0.61583  0.33638  1.0000
  N   N43       1.0  0.85929  0.59703  0.33998  1.0000
  C   C276      1.0  0.88383  0.58548  0.33694  1.0000
  C   C277      1.0  0.89531  0.60860  0.33420  1.0000
  C   C278      1.0  0.84333  0.55569  0.34554  1.0000
  C   C279      1.0  0.84921  0.53857  0.34686  1.0000
  C   C280      1.0  0.85547  0.50085  0.34679  1.0000
  C   C281      1.0  0.85235  0.50939  0.42802  1.0000
  C   C282      1.0  0.84941  0.52819  0.42812  1.0000
  C   C283      1.0  0.90763  0.65541  0.33425  1.0000
  C   C284      1.0  0.95495  0.68447  0.33066  1.0000
  C   C285      1.0  0.94384  0.67452  0.41160  1.0000
  C   C286      1.0  0.92043  0.66029  0.41351  1.0000
  C   C287      1.0  0.80858  0.66905  0.39989  1.0000
  C   C288      1.0  0.80019  0.68397  0.39913  1.0000
  C   C289      1.0  0.78754  0.68478  0.32600  1.0000
  C   C290      1.0  0.74766  0.53774  0.34070  1.0000
  C   C291      1.0  0.73343  0.53368  0.41490  1.0000
  C   C292      1.0  0.70322  0.49985  0.34336  1.0000
  C   C293      1.0  0.71141  0.51529  0.41530  1.0000
  H   H163      1.0  0.70154  0.51303  0.46985  1.0000
  H   H164      1.0  0.73911  0.54391  0.46978  1.0000
  H   H165      1.0  0.76745  0.51250  0.36694  1.0000
  H   H166      1.0  0.81781  0.57718  0.33172  1.0000
  H   H167      1.0  0.83730  0.61654  0.33947  1.0000
  H   H168      1.0  0.81660  0.66811  0.45593  1.0000
  H   H169      1.0  0.80294  0.69387  0.45401  1.0000
  H   H170      1.0  0.88808  0.68152  0.32278  1.0000
  H   H171      1.0  0.89118  0.57575  0.33650  1.0000
  H   H172      1.0  0.91237  0.61830  0.33052  1.0000
  H   H173      1.0  0.91290  0.65268  0.47244  1.0000
  H   H174      1.0  0.95279  0.67711  0.46935  1.0000
  H   H175      1.0  0.84640  0.53363  0.48744  1.0000
  H   H176      1.0  0.85159  0.50163  0.48734  1.0000
  C   C294      1.0  0.53233  0.25683  0.35942  1.0000
  C   C295      1.0  0.53223  0.27678  0.35932  1.0000
  C   C296      1.0  0.51008  0.27197  0.34933  1.0000
  N   N44       1.0  0.49765  0.24932  0.34296  1.0000
  C   C297      1.0  0.51031  0.23933  0.34770  1.0000
  C   C298      1.0  0.50379  0.21620  0.34263  1.0000
  C   C299      1.0  0.48119  0.19843  0.33867  1.0000
  N   N45       1.0  0.46229  0.19986  0.33704  1.0000
  C   C300      1.0  0.42079  0.17430  0.33012  1.0000
  C   C301      1.0  0.41388  0.19068  0.33005  1.0000
  N   N46       1.0  0.42637  0.21339  0.33460  1.0000
  C   C302      1.0  0.41374  0.22348  0.33226  1.0000
  C   C303      1.0  0.39158  0.20597  0.32631  1.0000
  C   C304      1.0  0.39169  0.18597  0.32387  1.0000
  C   C305      1.0  0.42047  0.24669  0.33460  1.0000
  C   C306      1.0  0.44311  0.26447  0.33672  1.0000
  N   N47       1.0  0.46192  0.26296  0.34024  1.0000
  C   C307      1.0  0.48066  0.28338  0.34081  1.0000
  C   C308      1.0  0.47346  0.29904  0.33742  1.0000
  C   C309      1.0  0.45033  0.28740  0.33469  1.0000
  C   C310      1.0  0.50325  0.28834  0.34591  1.0000
  C   C311      1.0  0.52037  0.31135  0.34725  1.0000
  C   C312      1.0  0.55808  0.35534  0.34720  1.0000
  C   C313      1.0  0.54954  0.34367  0.42842  1.0000
  C   C314      1.0  0.53075  0.32191  0.42850  1.0000
  C   C315      1.0  0.40353  0.25290  0.33449  1.0000
  C   C316      1.0  0.37447  0.27115  0.33099  1.0000
  C   C317      1.0  0.38438  0.26996  0.41195  1.0000
  C   C318      1.0  0.39861  0.26078  0.41380  1.0000
  C   C319      1.0  0.40391  0.15106  0.32576  1.0000
  C   C320      1.0  0.38986  0.14023  0.39983  1.0000
  C   C321      1.0  0.37494  0.11691  0.39900  1.0000
  C   C322      1.0  0.37417  0.10345  0.32590  1.0000
  C   C323      1.0  0.52123  0.21064  0.34086  1.0000
  C   C324      1.0  0.52530  0.20050  0.41509  1.0000
  C   C325      1.0  0.55913  0.20411  0.34343  1.0000
  C   C326      1.0  0.54369  0.19687  0.41542  1.0000
  H   H177      1.0  0.54597  0.18929  0.47001  1.0000
  H   H178      1.0  0.51507  0.19596  0.47000  1.0000
  H   H179      1.0  0.54647  0.25568  0.36701  1.0000
  H   H180      1.0  0.48177  0.24133  0.33209  1.0000
  H   H181      1.0  0.44241  0.22145  0.34011  1.0000
  H   H182      1.0  0.44152  0.14684  0.33498  1.0000
  H   H183      1.0  0.39076  0.14918  0.45582  1.0000
  H   H184      1.0  0.36499  0.10976  0.45380  1.0000
  H   H185      1.0  0.37744  0.20724  0.32240  1.0000
  H   H186      1.0  0.48318  0.31613  0.33712  1.0000
  H   H187      1.0  0.44063  0.29476  0.33113  1.0000
  H   H188      1.0  0.40618  0.26082  0.47276  1.0000
  H   H189      1.0  0.38175  0.27628  0.46974  1.0000
  H   H190      1.0  0.52531  0.31346  0.48781  1.0000
  H   H191      1.0  0.55732  0.35065  0.48773  1.0000
  C   C327      1.0  0.80217  0.27618  0.36106  1.0000
  C   C328      1.0  0.78701  0.23881  0.34971  1.0000
  C   C329      1.0  0.84276  0.28829  0.34232  1.0000
  C   C330      1.0  0.86052  0.28345  0.33796  1.0000
  C   C331      1.0  0.86828  0.22389  0.33017  1.0000
  C   C332      1.0  0.85299  0.18630  0.32709  1.0000
  C   C333      1.0  0.81225  0.17448  0.33429  1.0000
  C   C334      1.0  0.79447  0.17935  0.33601  1.0000
  N   N48       1.0  0.79600  0.19967  0.33997  1.0000
  C   C335      1.0  0.75991  0.17514  0.33596  1.0000
  C   C336      1.0  0.77155  0.16366  0.33325  1.0000
  C   C337      1.0  0.74762  0.20975  0.34675  1.0000
  C   C338      1.0  0.71516  0.20627  0.42800  1.0000
  C   C339      1.0  0.73691  0.20922  0.42810  1.0000
  C   C340      1.0  0.80604  0.15133  0.33428  1.0000
  C   C341      1.0  0.78780  0.10401  0.33087  1.0000
  C   C342      1.0  0.78884  0.11511  0.41170  1.0000
  C   C343      1.0  0.79800  0.13852  0.41350  1.0000
  C   C344      1.0  0.91872  0.25043  0.39993  1.0000
  C   C345      1.0  0.94204  0.25882  0.39918  1.0000
  C   C346      1.0  0.85858  0.32556  0.41439  1.0000
  C   C347      1.0  0.85482  0.35570  0.34299  1.0000
  C   C348      1.0  0.86219  0.34757  0.41471  1.0000
  H   H192      1.0  0.86989  0.35748  0.46904  1.0000
  H   H193      1.0  0.86324  0.31992  0.46909  1.0000
  H   H194      1.0  0.80335  0.29146  0.36917  1.0000
  H   H195      1.0  0.83749  0.22167  0.33891  1.0000
  H   H196      1.0  0.90975  0.24243  0.45602  1.0000
  H   H197      1.0  0.94918  0.25608  0.45411  1.0000
  H   H198      1.0  0.85171  0.17088  0.32368  1.0000
  H   H199      1.0  0.74283  0.16779  0.33522  1.0000
  H   H200      1.0  0.76420  0.14660  0.32931  1.0000
  H   H201      1.0  0.79785  0.14603  0.47236  1.0000
  H   H202      1.0  0.78239  0.10615  0.46939  1.0000
  H   H203      1.0  0.74527  0.21201  0.48751  1.0000
  H   H204      1.0  0.70806  0.20681  0.48742  1.0000
  C   C349      1.0  0.24273  0.60047  0.34296  1.0000
  C   C350      1.0  0.24219  0.57967  0.34682  1.0000
  H   H205      1.0  0.25700  0.57953  0.34894  1.0000
  C   C351      1.0  0.22159  0.66244  0.34530  1.0000
  C   C352      1.0  0.22915  0.65518  0.41976  1.0000
  C   C353      1.0  0.22827  0.63424  0.41621  1.0000
  H   H206      1.0  0.23394  0.62932  0.47017  1.0000
  N   N49       1.0  0.26309  0.61961  0.34077  1.0000
  H   H207      1.0  0.27699  0.61914  0.34200  1.0000
  H   H208      1.0  0.26452  0.63428  0.33371  1.0000
  N   N50       1.0  0.23864  0.66930  0.49515  1.0000
  O   O25       1.0  0.22804  0.66012  0.56562  1.0000
  O   O26       1.0  0.25886  0.67483  0.50587  1.0000
  C   C354      1.0  0.45848  0.64299  0.34256  1.0000
  C   C355      1.0  0.47927  0.66325  0.34627  1.0000
  H   H209      1.0  0.47941  0.67820  0.34793  1.0000
  C   C356      1.0  0.39651  0.55988  0.34559  1.0000
  C   C357      1.0  0.40370  0.57473  0.41991  1.0000
  C   C358      1.0  0.42464  0.59480  0.41636  1.0000
  H   H210      1.0  0.42951  0.60541  0.47022  1.0000
  N   N51       1.0  0.43934  0.64420  0.33982  1.0000
  H   H211      1.0  0.43980  0.65856  0.34058  1.0000
  H   H212      1.0  0.42467  0.63094  0.33288  1.0000
  N   N52       1.0  0.38952  0.57015  0.49512  1.0000
  O   O27       1.0  0.39865  0.56877  0.56578  1.0000
  O   O28       1.0  0.38397  0.58483  0.50546  1.0000
  C   C359      1.0  0.41598  0.81621  0.34332  1.0000
  C   C360      1.0  0.39573  0.81675  0.34706  1.0000
  H   H213      1.0  0.38077  0.80194  0.34916  1.0000
  C   C361      1.0  0.49909  0.83734  0.34583  1.0000
  C   C362      1.0  0.48428  0.82982  0.42033  1.0000
  C   C363      1.0  0.46421  0.83069  0.41673  1.0000
  H   H214      1.0  0.45362  0.82504  0.47071  1.0000
  N   N53       1.0  0.41477  0.79585  0.34122  1.0000
  H   H215      1.0  0.40041  0.78195  0.34244  1.0000
  H   H216      1.0  0.42802  0.79442  0.33427  1.0000
  N   N54       1.0  0.48890  0.82035  0.49582  1.0000
  O   O29       1.0  0.49032  0.83097  0.56618  1.0000
  O   O30       1.0  0.47421  0.80013  0.50671  1.0000
  C   C364      1.0  0.83539  0.43929  0.34363  1.0000
  C   C365      1.0  0.83593  0.46009  0.34743  1.0000
  H   H217      1.0  0.82112  0.46023  0.34961  1.0000
  C   C366      1.0  0.85652  0.37732  0.34589  1.0000
  C   C367      1.0  0.84899  0.38458  0.42044  1.0000
  C   C368      1.0  0.84986  0.40553  0.41687  1.0000
  H   H218      1.0  0.84422  0.41046  0.47091  1.0000
  N   N55       1.0  0.81503  0.42015  0.34151  1.0000
  H   H219      1.0  0.80114  0.42061  0.34276  1.0000
  H   H220      1.0  0.81361  0.40548  0.33451  1.0000
  N   N56       1.0  0.83953  0.37048  0.49593  1.0000
  O   O31       1.0  0.85015  0.37967  0.56628  1.0000
  O   O32       1.0  0.81931  0.36495  0.50685  1.0000
  C   C369      1.0  0.61964  0.39681  0.34375  1.0000
  C   C370      1.0  0.59885  0.37655  0.34759  1.0000
  H   H221      1.0  0.59871  0.36160  0.34954  1.0000
  C   C371      1.0  0.68161  0.47993  0.34632  1.0000
  C   C372      1.0  0.67438  0.46508  0.42068  1.0000
  C   C373      1.0  0.65343  0.44501  0.41716  1.0000
  H   H222      1.0  0.64854  0.43440  0.47105  1.0000
  N   N57       1.0  0.63878  0.39560  0.34133  1.0000
  H   H223      1.0  0.63832  0.38124  0.34240  1.0000
  H   H224      1.0  0.65345  0.40885  0.33428  1.0000
  N   N58       1.0  0.68852  0.46967  0.49596  1.0000
  O   O33       1.0  0.67936  0.47105  0.56655  1.0000
  O   O34       1.0  0.69406  0.45498  0.50643  1.0000
  C   C374      1.0  0.66217  0.22357  0.34322  1.0000
  C   C375      1.0  0.68243  0.22304  0.34686  1.0000
  H   H225      1.0  0.69738  0.23785  0.34855  1.0000
  C   C376      1.0  0.57906  0.20244  0.34633  1.0000
  C   C377      1.0  0.59390  0.21007  0.42066  1.0000
  C   C378      1.0  0.61398  0.20920  0.41707  1.0000
  H   H226      1.0  0.62459  0.21492  0.47094  1.0000
  N   N59       1.0  0.66338  0.24392  0.34057  1.0000
  H   H227      1.0  0.67774  0.25782  0.34135  1.0000
  H   H228      1.0  0.65012  0.24534  0.33368  1.0000
  N   N60       1.0  0.58932  0.21964  0.49592  1.0000
  O   O35       1.0  0.58794  0.20912  0.56653  1.0000
  O   O36       1.0  0.60401  0.23987  0.50630  1.0000
  C   C379      1.0  0.06351  0.34266  0.32554  1.0000
  C   C380      1.0  0.08722  0.35410  0.33004  1.0000
  H   H229      1.0  0.09586  0.37127  0.33329  1.0000
  C   C381      1.0  0.97957  0.28212  0.32816  1.0000
  C   C382      1.0  0.99244  0.29533  0.40188  1.0000
  C   C383      1.0  0.01613  0.30649  0.39783  1.0000
  H   H230      1.0  0.02511  0.31603  0.45141  1.0000
  N   N61       1.0  0.05312  0.35507  0.32402  1.0000
  H   H231      1.0  0.06165  0.37139  0.32605  1.0000
  H   H232      1.0  0.03703  0.34826  0.31623  1.0000
  N   N62       1.0  0.98173  0.29838  0.47716  1.0000
  O   O37       1.0  0.98636  0.29173  0.54802  1.0000
  O   O38       1.0  0.98696  0.31855  0.48672  1.0000
  C   C384      1.0  0.71629  0.72154  0.32605  1.0000
  C   C385      1.0  0.70485  0.73381  0.33058  1.0000
  H   H233      1.0  0.68768  0.72528  0.33398  1.0000
  C   C386      1.0  0.77681  0.69812  0.32828  1.0000
  C   C387      1.0  0.76365  0.69782  0.40214  1.0000
  C   C388      1.0  0.75248  0.71035  0.39812  1.0000
  H   H234      1.0  0.74297  0.70982  0.45180  1.0000
  N   N63       1.0  0.70387  0.69873  0.32465  1.0000
  H   H235      1.0  0.68756  0.69095  0.32678  1.0000
  H   H236      1.0  0.71069  0.68945  0.31685  1.0000
  N   N64       1.0  0.76063  0.68411  0.47749  1.0000
  O   O39       1.0  0.76731  0.69542  0.54824  1.0000
  O   O40       1.0  0.74047  0.66916  0.48728  1.0000
  C   C389      1.0  0.33740  0.99545  0.32578  1.0000
  C   C390      1.0  0.32512  0.97174  0.33027  1.0000
  H   H237      1.0  0.33365  0.96310  0.33377  1.0000
  C   C391      1.0  0.36080  0.07939  0.32813  1.0000
  C   C392      1.0  0.36105  0.06651  0.40197  1.0000
  C   C393      1.0  0.34852  0.04281  0.39788  1.0000
  H   H238      1.0  0.34901  0.03382  0.45155  1.0000
  N   N65       1.0  0.36020  0.00584  0.32459  1.0000
  H   H239      1.0  0.36799  0.99732  0.32684  1.0000
  H   H240      1.0  0.36949  0.02194  0.31682  1.0000
  N   N66       1.0  0.37471  0.07719  0.47743  1.0000
  O   O41       1.0  0.36335  0.07254  0.54810  1.0000
  O   O42       1.0  0.38965  0.07196  0.48734  1.0000
  C   C394      1.0  0.01463  0.69709  0.32536  1.0000
  C   C395      1.0  0.99092  0.68565  0.32994  1.0000
  H   H241      1.0  0.98228  0.66848  0.33327  1.0000
  C   C396      1.0  0.09857  0.75762  0.32767  1.0000
  C   C397      1.0  0.08570  0.74443  0.40146  1.0000
  C   C398      1.0  0.06201  0.73326  0.39746  1.0000
  H   H242      1.0  0.05303  0.72373  0.45111  1.0000
  N   N67       1.0  0.02502  0.68467  0.32381  1.0000
  H   H243      1.0  0.01649  0.66836  0.32586  1.0000
  H   H244      1.0  0.04111  0.69149  0.31596  1.0000
  N   N68       1.0  0.09640  0.74139  0.47673  1.0000
  O   O43       1.0  0.09176  0.74804  0.54757  1.0000
  O   O44       1.0  0.09118  0.72122  0.48636  1.0000
  C   C399      1.0  0.36183  0.31821  0.32607  1.0000
  C   C400      1.0  0.37327  0.30593  0.33063  1.0000
  H   H245      1.0  0.39044  0.31447  0.33408  1.0000
  C   C401      1.0  0.30129  0.34161  0.32809  1.0000
  C   C402      1.0  0.31442  0.34188  0.40199  1.0000
  C   C403      1.0  0.32558  0.32935  0.39801  1.0000
  H   H246      1.0  0.33507  0.32987  0.45172  1.0000
  N   N69       1.0  0.37425  0.34102  0.32476  1.0000
  H   H247      1.0  0.39056  0.34880  0.32698  1.0000
  H   H248      1.0  0.36743  0.35029  0.31695  1.0000
  N   N70       1.0  0.31739  0.35557  0.47736  1.0000
  O   O45       1.0  0.31067  0.34424  0.54808  1.0000
  O   O46       1.0  0.33755  0.37051  0.48726  1.0000
  C   C404      1.0  0.74074  0.04432  0.32570  1.0000
  C   C405      1.0  0.75301  0.06803  0.33022  1.0000
  H   H249      1.0  0.74447  0.07667  0.33352  1.0000
  C   C406      1.0  0.71733  0.96038  0.32830  1.0000
  C   C407      1.0  0.71698  0.97325  0.40203  1.0000
  C   C408      1.0  0.72951  0.99695  0.39795  1.0000
  H   H250      1.0  0.72895  0.00592  0.45155  1.0000
  N   N71       1.0  0.71793  0.03393  0.32416  1.0000
  H   H251      1.0  0.71014  0.04246  0.32618  1.0000
  H   H252      1.0  0.70866  0.01784  0.31635  1.0000
  N   N72       1.0  0.70322  0.96255  0.47730  1.0000
  O   O47       1.0  0.71450  0.96719  0.54816  1.0000
  O   O48       1.0  0.68827  0.96777  0.48685  1.0000
