data_image0
_chemical_formula_structural       C4H3CH3CHC4H3CH3CHC3H2CHC3H2CHC3H2CHC3H2CHC4H3CH3CHC4H3CH3CHC4H3CH3CHC4H3CH3CHC3H2CHC3H2CHC3H2CHC3H2CHC4H3CH3CHC4H3CH3CHC4H3CH3CHC4H3CH3CHC6H3N3C6H3N3C6H3N3C6H3N3C6H3N3C6H3N3C6H3N3C6H3N3C6H3N3C6H3N3C6H3N3C6H3N3C3H2CHC3H2CHC4H3CH3CHC4H3CH3CHC4H3CH3CHC4H3CH3CHC3H2CHC3H2CHC3H2CHC3H2CHC4H3CH3CHC4H3CH3CHC4H3CH3CHC4H3CH3CHC3H2CHC3H2CHC3H2CHC3H2CH
_chemical_formula_sum              "C252 H216 N36"
_cell_length_a       52.5658
_cell_length_b       52.3211
_cell_length_c       14.7276
_cell_angle_alpha    90
_cell_angle_beta     90
_cell_angle_gamma    90.2661

_space_group_name_H-M_alt    "P 1"
_space_group_IT_number       1

loop_
  _space_group_symop_operation_xyz
  'x, y, z'

loop_
  _atom_site_type_symbol
  _atom_site_label
  _atom_site_symmetry_multiplicity
  _atom_site_fract_x
  _atom_site_fract_y
  _atom_site_fract_z
  _atom_site_occupancy
  C   C1        1.0  0.02280  0.48517  0.34882  1.0000
  C   C2        1.0  0.01047  0.49349  0.26736  1.0000
  C   C3        1.0  0.99479  0.51607  0.26779  1.0000
  C   C4        1.0  0.01402  0.47877  0.18092  1.0000
  H   H1        1.0  0.02634  0.46218  0.18721  1.0000
  H   H2        1.0  0.02255  0.49105  0.12927  1.0000
  H   H3        1.0  0.99566  0.47182  0.15650  1.0000
  C   C5        1.0  0.98280  0.52500  0.18109  1.0000
  H   H4        1.0  0.97163  0.54236  0.18754  1.0000
  H   H5        1.0  0.97006  0.51024  0.15478  1.0000
  H   H6        1.0  0.99751  0.52900  0.13076  1.0000
  C   C6        1.0  0.03588  0.46193  0.35701  1.0000
  H   H7        1.0  0.02538  0.44648  0.36908  1.0000
  C   C7        1.0  0.52969  0.02181  0.34767  1.0000
  C   C8        1.0  0.52152  0.00901  0.26673  1.0000
  C   C9        1.0  0.49872  0.99352  0.26713  1.0000
  C   C10       1.0  0.53659  0.01191  0.18082  1.0000
  H   H8        1.0  0.55334  0.02412  0.18708  1.0000
  H   H9        1.0  0.52476  0.02032  0.12794  1.0000
  H   H10       1.0  0.54321  0.99324  0.15809  1.0000
  C   C11       1.0  0.48994  0.98107  0.18086  1.0000
  H   H11       1.0  0.47238  0.97013  0.18713  1.0000
  H   H12       1.0  0.50445  0.96791  0.15639  1.0000
  H   H13       1.0  0.48652  0.99559  0.12918  1.0000
  C   C12       1.0  0.55298  0.03487  0.35588  1.0000
  H   H14       1.0  0.56830  0.02431  0.36712  1.0000
  C   C13       1.0  0.05566  0.27209  0.35512  1.0000
  C   C14       1.0  0.06593  0.28302  0.27551  1.0000
  C   C15       1.0  0.07603  0.30793  0.27531  1.0000
  H   H15       1.0  0.08360  0.31474  0.21585  1.0000
  H   H16       1.0  0.06609  0.27290  0.21591  1.0000
  C   C16       1.0  0.04374  0.24822  0.34681  1.0000
  H   H17       1.0  0.02515  0.24821  0.33496  1.0000
  C   C17       1.0  0.95810  0.74307  0.35700  1.0000
  C   C18       1.0  0.94683  0.73250  0.27851  1.0000
  C   C19       1.0  0.93663  0.70763  0.27861  1.0000
  H   H18       1.0  0.92836  0.70107  0.21998  1.0000
  H   H19       1.0  0.94604  0.74284  0.21946  1.0000
  C   C20       1.0  0.97007  0.76691  0.34818  1.0000
  H   H20       1.0  0.98868  0.76685  0.33671  1.0000
  C   C21       1.0  0.74202  0.05582  0.35602  1.0000
  C   C22       1.0  0.73159  0.06703  0.27732  1.0000
  C   C23       1.0  0.70686  0.07709  0.27703  1.0000
  H   H21       1.0  0.70041  0.08532  0.21825  1.0000
  H   H22       1.0  0.74195  0.06786  0.21841  1.0000
  C   C24       1.0  0.76573  0.04393  0.34761  1.0000
  H   H23       1.0  0.76562  0.02520  0.33691  1.0000
  C   C25       1.0  0.27194  0.95831  0.35638  1.0000
  C   C26       1.0  0.28265  0.94804  0.27654  1.0000
  C   C27       1.0  0.30723  0.93761  0.27616  1.0000
  H   H24       1.0  0.31389  0.93010  0.21647  1.0000
  H   H25       1.0  0.27261  0.94817  0.21687  1.0000
  C   C28       1.0  0.24841  0.97059  0.34840  1.0000
  H   H26       1.0  0.24877  0.98935  0.33845  1.0000
  C   C29       1.0  0.44737  0.82466  0.34818  1.0000
  C   C30       1.0  0.45100  0.81100  0.26501  1.0000
  C   C31       1.0  0.45679  0.78408  0.26661  1.0000
  C   C32       1.0  0.44969  0.82488  0.17607  1.0000
  H   H27       1.0  0.44463  0.84498  0.18192  1.0000
  H   H28       1.0  0.43532  0.81606  0.13267  1.0000
  H   H29       1.0  0.46810  0.82409  0.14199  1.0000
  C   C33       1.0  0.46182  0.77027  0.17928  1.0000
  H   H30       1.0  0.46596  0.75003  0.18727  1.0000
  H   H31       1.0  0.47812  0.77886  0.14480  1.0000
  H   H32       1.0  0.44519  0.77147  0.13520  1.0000
  C   C34       1.0  0.44772  0.85140  0.35439  1.0000
  H   H33       1.0  0.46458  0.85957  0.36441  1.0000
  C   C35       1.0  0.56576  0.18764  0.34755  1.0000
  C   C36       1.0  0.56126  0.20117  0.26470  1.0000
  C   C37       1.0  0.55563  0.22812  0.26658  1.0000
  C   C38       1.0  0.56151  0.18714  0.17594  1.0000
  H   H34       1.0  0.56655  0.16703  0.18150  1.0000
  H   H35       1.0  0.57544  0.19582  0.13035  1.0000
  H   H36       1.0  0.54274  0.18797  0.14448  1.0000
  C   C39       1.0  0.54971  0.24183  0.17975  1.0000
  H   H37       1.0  0.54578  0.26210  0.18792  1.0000
  H   H38       1.0  0.53299  0.23328  0.14781  1.0000
  H   H39       1.0  0.56582  0.24045  0.13336  1.0000
  C   C40       1.0  0.56543  0.16092  0.35431  1.0000
  H   H40       1.0  0.54864  0.15273  0.36553  1.0000
  C   C41       1.0  0.82555  0.56599  0.34865  1.0000
  C   C42       1.0  0.81192  0.56226  0.26552  1.0000
  C   C43       1.0  0.78500  0.55678  0.26711  1.0000
  C   C44       1.0  0.82581  0.56317  0.17665  1.0000
  H   H41       1.0  0.84591  0.56802  0.18247  1.0000
  H   H42       1.0  0.81737  0.57760  0.13270  1.0000
  H   H43       1.0  0.82464  0.54459  0.14317  1.0000
  C   C45       1.0  0.77121  0.55161  0.17985  1.0000
  H   H44       1.0  0.75097  0.54773  0.18782  1.0000
  H   H45       1.0  0.77943  0.53502  0.14614  1.0000
  H   H46       1.0  0.77280  0.56815  0.13509  1.0000
  C   C46       1.0  0.85215  0.56554  0.35501  1.0000
  H   H47       1.0  0.86012  0.54860  0.36506  1.0000
  C   C47       1.0  0.18816  0.44847  0.34670  1.0000
  C   C48       1.0  0.20192  0.45293  0.26433  1.0000
  C   C49       1.0  0.22892  0.45792  0.26696  1.0000
  C   C50       1.0  0.18809  0.45325  0.17529  1.0000
  H   H48       1.0  0.16792  0.44857  0.18026  1.0000
  H   H49       1.0  0.19639  0.43924  0.12929  1.0000
  H   H50       1.0  0.18952  0.47219  0.14463  1.0000
  C   C51       1.0  0.24285  0.46392  0.18066  1.0000
  H   H51       1.0  0.26313  0.46743  0.18931  1.0000
  H   H52       1.0  0.23489  0.48101  0.14939  1.0000
  H   H53       1.0  0.24106  0.44795  0.13344  1.0000
  C   C52       1.0  0.16157  0.44932  0.35271  1.0000
  H   H54       1.0  0.15377  0.46643  0.36031  1.0000
  C   C53       1.0  0.13478  0.06035  0.34542  1.0000
  C   C54       1.0  0.13558  0.07724  0.27073  1.0000
  C   C55       1.0  0.12528  0.10188  0.27623  1.0000
  H   H55       1.0  0.12580  0.11314  0.21929  1.0000
  H   H56       1.0  0.14300  0.07145  0.20974  1.0000
  C   C56       1.0  0.14135  0.03501  0.32807  1.0000
  H   H57       1.0  0.12917  0.02499  0.29035  1.0000
  C   C57       1.0  0.87966  0.95505  0.34585  1.0000
  C   C58       1.0  0.87803  0.93773  0.27262  1.0000
  C   C59       1.0  0.88826  0.91307  0.27877  1.0000
  H   H58       1.0  0.88716  0.90148  0.22277  1.0000
  H   H59       1.0  0.87008  0.94320  0.21212  1.0000
  C   C60       1.0  0.87294  0.98029  0.32766  1.0000
  H   H60       1.0  0.88493  0.99027  0.28904  1.0000
  C   C61       1.0  0.95429  0.13415  0.34532  1.0000
  C   C62       1.0  0.93787  0.13465  0.26952  1.0000
  C   C63       1.0  0.91300  0.12491  0.27467  1.0000
  H   H61       1.0  0.90209  0.12513  0.21698  1.0000
  H   H62       1.0  0.94414  0.14141  0.20809  1.0000
  C   C64       1.0  0.97975  0.14021  0.32895  1.0000
  H   H63       1.0  0.98963  0.12762  0.29283  1.0000
  C   C65       1.0  0.05969  0.88101  0.34571  1.0000
  C   C66       1.0  0.07623  0.88030  0.27029  1.0000
  C   C67       1.0  0.10106  0.89013  0.27558  1.0000
  H   H64       1.0  0.11206  0.88978  0.21811  1.0000
  H   H65       1.0  0.07007  0.87336  0.20898  1.0000
  C   C68       1.0  0.03427  0.87482  0.32906  1.0000
  H   H66       1.0  0.02440  0.88732  0.29253  1.0000
  C   C69       1.0  0.40074  0.60848  0.34806  1.0000
  C   C70       1.0  0.40103  0.59225  0.26987  1.0000
  C   C71       1.0  0.39114  0.56660  0.27595  1.0000
  C   C72       1.0  0.41180  0.60177  0.18173  1.0000
  H   H67       1.0  0.41758  0.62177  0.18261  1.0000
  H   H68       1.0  0.39758  0.59998  0.12812  1.0000
  H   H69       1.0  0.42851  0.59060  0.16335  1.0000
  C   C73       1.0  0.39301  0.54914  0.19542  1.0000
  H   H70       1.0  0.38569  0.52993  0.20692  1.0000
  H   H71       1.0  0.41287  0.54709  0.17532  1.0000
  H   H72       1.0  0.38227  0.55704  0.13868  1.0000
  C   C74       1.0  0.41150  0.63292  0.35119  1.0000
  H   H73       1.0  0.40027  0.64795  0.35954  1.0000
  C   C75       1.0  0.61324  0.40377  0.34734  1.0000
  C   C76       1.0  0.61270  0.42015  0.26954  1.0000
  C   C77       1.0  0.62272  0.44576  0.27571  1.0000
  C   C78       1.0  0.60156  0.41083  0.18174  1.0000
  H   H74       1.0  0.59570  0.39085  0.18244  1.0000
  H   H75       1.0  0.61556  0.41267  0.12746  1.0000
  H   H76       1.0  0.58482  0.42209  0.16448  1.0000
  C   C79       1.0  0.62059  0.46336  0.19568  1.0000
  H   H77       1.0  0.62806  0.48251  0.20720  1.0000
  H   H78       1.0  0.60066  0.46555  0.17672  1.0000
  H   H79       1.0  0.63106  0.45552  0.13818  1.0000
  C   C80       1.0  0.60240  0.37936  0.35047  1.0000
  H   H80       1.0  0.61361  0.36428  0.35792  1.0000
  C   C81       1.0  0.61001  0.61343  0.34629  1.0000
  C   C82       1.0  0.59350  0.61223  0.26911  1.0000
  C   C83       1.0  0.56796  0.62192  0.27549  1.0000
  C   C84       1.0  0.60261  0.60075  0.18170  1.0000
  H   H81       1.0  0.62255  0.59522  0.18202  1.0000
  H   H82       1.0  0.60050  0.61450  0.12659  1.0000
  H   H83       1.0  0.59149  0.58365  0.16597  1.0000
  C   C85       1.0  0.55024  0.61911  0.19622  1.0000
  H   H84       1.0  0.53116  0.62639  0.20792  1.0000
  H   H85       1.0  0.54814  0.59896  0.17862  1.0000
  H   H86       1.0  0.55783  0.62945  0.13778  1.0000
  C   C86       1.0  0.63438  0.60293  0.34933  1.0000
  H   H87       1.0  0.64935  0.61440  0.35663  1.0000
  C   C87       1.0  0.40358  0.39859  0.34805  1.0000
  C   C88       1.0  0.41960  0.39892  0.26949  1.0000
  C   C89       1.0  0.44519  0.38933  0.27525  1.0000
  C   C90       1.0  0.40993  0.40942  0.18129  1.0000
  H   H88       1.0  0.39001  0.41501  0.18252  1.0000
  H   H89       1.0  0.41165  0.39505  0.12804  1.0000
  H   H90       1.0  0.42096  0.42630  0.16219  1.0000
  C   C91       1.0  0.46240  0.39122  0.19423  1.0000
  H   H91       1.0  0.48155  0.38411  0.20544  1.0000
  H   H92       1.0  0.46436  0.41115  0.17351  1.0000
  H   H93       1.0  0.45445  0.38021  0.13800  1.0000
  C   C92       1.0  0.37925  0.40918  0.35151  1.0000
  H   H94       1.0  0.36427  0.39779  0.36006  1.0000
  C   C93       1.0  0.08690  0.39321  0.35218  1.0000
  C   C94       1.0  0.06902  0.41344  0.35201  1.0000
  C   C95       1.0  0.07651  0.43959  0.35014  1.0000
  C   C96       1.0  0.10297  0.44507  0.34837  1.0000
  C   C97       1.0  0.12167  0.42554  0.34957  1.0000
  C   C98       1.0  0.11311  0.39987  0.35131  1.0000
  H   H95       1.0  0.10870  0.46376  0.34594  1.0000
  H   H96       1.0  0.12644  0.38570  0.35242  1.0000
  H   H97       1.0  0.05007  0.40892  0.35237  1.0000
  N   N1        1.0  0.07805  0.36890  0.35500  1.0000
  N   N2        1.0  0.06022  0.45957  0.34752  1.0000
  N   N3        1.0  0.14708  0.42940  0.34734  1.0000
  C   C99       1.0  0.92653  0.62202  0.35333  1.0000
  C   C100      1.0  0.94448  0.60185  0.35332  1.0000
  C   C101      1.0  0.93707  0.57568  0.35142  1.0000
  C   C102      1.0  0.91063  0.57012  0.34954  1.0000
  C   C103      1.0  0.89186  0.58957  0.35053  1.0000
  C   C104      1.0  0.90033  0.61528  0.35216  1.0000
  H   H98       1.0  0.90498  0.55141  0.34691  1.0000
  H   H99       1.0  0.88697  0.62941  0.35284  1.0000
  H   H100      1.0  0.96341  0.60642  0.35372  1.0000
  N   N4        1.0  0.93536  0.64634  0.35597  1.0000
  N   N5        1.0  0.95340  0.55575  0.34863  1.0000
  N   N6        1.0  0.86646  0.58555  0.34793  1.0000
  C   C105      1.0  0.62155  0.08668  0.35147  1.0000
  C   C106      1.0  0.60141  0.06852  0.35149  1.0000
  C   C107      1.0  0.57539  0.07581  0.34957  1.0000
  C   C108      1.0  0.56993  0.10233  0.34764  1.0000
  C   C109      1.0  0.58935  0.12131  0.34869  1.0000
  C   C110      1.0  0.61492  0.11296  0.35026  1.0000
  H   H101      1.0  0.55132  0.10788  0.34500  1.0000
  H   H102      1.0  0.62901  0.12649  0.35103  1.0000
  H   H103      1.0  0.60589  0.04952  0.35206  1.0000
  N   N7        1.0  0.64574  0.07797  0.35430  1.0000
  N   N8        1.0  0.55546  0.05934  0.34704  1.0000
  N   N9        1.0  0.58535  0.14678  0.34607  1.0000
  C   C111      1.0  0.39198  0.92597  0.35298  1.0000
  C   C112      1.0  0.41223  0.94398  0.35309  1.0000
  C   C113      1.0  0.43819  0.93651  0.35097  1.0000
  C   C114      1.0  0.44347  0.90996  0.34892  1.0000
  C   C115      1.0  0.42393  0.89110  0.34998  1.0000
  C   C116      1.0  0.39842  0.89963  0.35173  1.0000
  H   H104      1.0  0.46204  0.90429  0.34615  1.0000
  H   H105      1.0  0.38421  0.88622  0.35261  1.0000
  H   H106      1.0  0.40789  0.96301  0.35370  1.0000
  N   N10       1.0  0.36787  0.93488  0.35595  1.0000
  N   N11       1.0  0.45823  0.95284  0.34820  1.0000
  N   N12       1.0  0.42779  0.86559  0.34736  1.0000
  C   C117      1.0  0.04814  0.20204  0.35358  1.0000
  C   C118      1.0  0.06739  0.18311  0.35316  1.0000
  C   C119      1.0  0.06145  0.15664  0.35391  1.0000
  C   C120      1.0  0.03560  0.14931  0.35522  1.0000
  C   C121      1.0  0.01567  0.16741  0.35423  1.0000
  C   C122      1.0  0.02235  0.19367  0.35509  1.0000
  H   H107      1.0  0.03118  0.13024  0.35874  1.0000
  H   H108      1.0  0.00808  0.20685  0.35763  1.0000
  H   H109      1.0  0.08607  0.18869  0.35355  1.0000
  N   N13       1.0  0.05555  0.22678  0.35613  1.0000
  N   N14       1.0  0.07822  0.13747  0.35633  1.0000
  N   N15       1.0  0.99106  0.16034  0.36025  1.0000
  C   C123      1.0  0.96582  0.81312  0.35441  1.0000
  C   C124      1.0  0.94661  0.83208  0.35400  1.0000
  C   C125      1.0  0.95260  0.85854  0.35466  1.0000
  C   C126      1.0  0.97847  0.86582  0.35573  1.0000
  C   C127      1.0  0.99836  0.84768  0.35485  1.0000
  C   C128      1.0  0.99163  0.82144  0.35589  1.0000
  H   H110      1.0  0.98292  0.88488  0.35920  1.0000
  H   H111      1.0  0.00587  0.80822  0.35849  1.0000
  H   H112      1.0  0.92791  0.82655  0.35444  1.0000
  N   N16       1.0  0.95833  0.78840  0.35717  1.0000
  N   N17       1.0  0.93589  0.87775  0.35695  1.0000
  N   N18       1.0  0.02297  0.85475  0.36090  1.0000
  C   C129      1.0  0.81176  0.04852  0.35359  1.0000
  C   C130      1.0  0.83070  0.06796  0.35292  1.0000
  C   C131      1.0  0.85701  0.06210  0.35396  1.0000
  C   C132      1.0  0.86419  0.03617  0.35573  1.0000
  C   C133      1.0  0.84609  0.01606  0.35478  1.0000
  C   C134      1.0  0.81998  0.02265  0.35552  1.0000
  H   H113      1.0  0.88314  0.03182  0.35952  1.0000
  H   H114      1.0  0.80680  0.00824  0.35829  1.0000
  H   H115      1.0  0.82525  0.08671  0.35305  1.0000
  N   N19       1.0  0.78716  0.05588  0.35607  1.0000
  N   N20       1.0  0.87621  0.07895  0.35637  1.0000
  N   N21       1.0  0.85323  0.99145  0.36159  1.0000
  C   C135      1.0  0.20230  0.96646  0.35377  1.0000
  C   C136      1.0  0.18325  0.94715  0.35327  1.0000
  C   C137      1.0  0.15698  0.95316  0.35439  1.0000
  C   C138      1.0  0.14995  0.97913  0.35594  1.0000
  C   C139      1.0  0.16816  0.99914  0.35479  1.0000
  C   C140      1.0  0.19424  0.99239  0.35548  1.0000
  H   H116      1.0  0.13103  0.98357  0.35977  1.0000
  H   H117      1.0  0.20752  0.00671  0.35795  1.0000
  H   H118      1.0  0.18859  0.92837  0.35348  1.0000
  N   N22       1.0  0.22682  0.95888  0.35617  1.0000
  N   N23       1.0  0.13770  0.93639  0.35670  1.0000
  N   N24       1.0  0.16116  0.02382  0.36119  1.0000
  C   C141      1.0  0.46558  0.70066  0.34920  1.0000
  C   C142      1.0  0.44641  0.68149  0.34980  1.0000
  C   C143      1.0  0.45248  0.65511  0.34968  1.0000
  C   C144      1.0  0.47835  0.64811  0.34854  1.0000
  C   C145      1.0  0.49821  0.66646  0.34903  1.0000
  C   C146      1.0  0.49141  0.69263  0.34756  1.0000
  H   H119      1.0  0.48284  0.62909  0.34531  1.0000
  H   H120      1.0  0.50562  0.70601  0.34409  1.0000
  H   H121      1.0  0.42771  0.68682  0.34912  1.0000
  N   N25       1.0  0.45810  0.72531  0.34541  1.0000
  N   N26       1.0  0.43580  0.63574  0.34746  1.0000
  N   N27       1.0  0.52281  0.65960  0.34246  1.0000
  C   C147      1.0  0.54819  0.31169  0.34916  1.0000
  C   C148      1.0  0.56740  0.33083  0.34950  1.0000
  C   C149      1.0  0.56137  0.35723  0.34962  1.0000
  C   C150      1.0  0.53550  0.36427  0.34901  1.0000
  C   C151      1.0  0.51561  0.34594  0.34956  1.0000
  C   C152      1.0  0.52238  0.31977  0.34787  1.0000
  H   H122      1.0  0.53105  0.38329  0.34597  1.0000
  H   H123      1.0  0.50815  0.30641  0.34447  1.0000
  H   H124      1.0  0.58609  0.32547  0.34844  1.0000
  N   N28       1.0  0.55558  0.28703  0.34486  1.0000
  N   N29       1.0  0.57809  0.37658  0.34740  1.0000
  N   N30       1.0  0.49099  0.35276  0.34353  1.0000
  C   C153      1.0  0.70171  0.54874  0.34916  1.0000
  C   C154      1.0  0.68278  0.56800  0.34944  1.0000
  C   C155      1.0  0.65646  0.56187  0.34935  1.0000
  C   C156      1.0  0.64929  0.53587  0.34854  1.0000
  C   C157      1.0  0.66739  0.51593  0.34932  1.0000
  C   C158      1.0  0.69349  0.52278  0.34780  1.0000
  H   H125      1.0  0.63033  0.53133  0.34528  1.0000
  H   H126      1.0  0.70667  0.50851  0.34447  1.0000
  H   H127      1.0  0.68823  0.58679  0.34854  1.0000
  N   N31       1.0  0.72635  0.55620  0.34527  1.0000
  N   N32       1.0  0.63726  0.57854  0.34686  1.0000
  N   N33       1.0  0.66034  0.49121  0.34301  1.0000
  C   C159      1.0  0.31219  0.46376  0.34941  1.0000
  C   C160      1.0  0.33099  0.44438  0.34972  1.0000
  C   C161      1.0  0.35735  0.45034  0.34985  1.0000
  C   C162      1.0  0.36469  0.47630  0.34924  1.0000
  C   C163      1.0  0.34671  0.49634  0.34983  1.0000
  C   C164      1.0  0.32058  0.48966  0.34806  1.0000
  H   H128      1.0  0.38368  0.48071  0.34618  1.0000
  H   H129      1.0  0.30748  0.50401  0.34447  1.0000
  H   H130      1.0  0.32542  0.42562  0.34856  1.0000
  N   N34       1.0  0.28749  0.45657  0.34469  1.0000
  N   N35       1.0  0.37645  0.43356  0.34760  1.0000
  N   N36       1.0  0.35386  0.52103  0.34371  1.0000
  C   C165      1.0  0.99085  0.53001  0.35030  1.0000
  C   C166      1.0  0.00341  0.52136  0.42936  1.0000
  C   C167      1.0  0.01874  0.49940  0.42892  1.0000
  H   H131      1.0  0.02683  0.49374  0.48891  1.0000
  H   H132      1.0  0.00140  0.53105  0.48943  1.0000
  C   C168      1.0  0.97779  0.55337  0.35682  1.0000
  H   H133      1.0  0.98821  0.56884  0.36939  1.0000
  C   C169      1.0  0.48443  0.99024  0.34917  1.0000
  C   C170      1.0  0.49295  0.00323  0.42774  1.0000
  C   C171      1.0  0.51512  0.01839  0.42730  1.0000
  H   H134      1.0  0.52067  0.02684  0.48693  1.0000
  H   H135      1.0  0.48303  0.00167  0.48743  1.0000
  C   C172      1.0  0.46093  0.97734  0.35552  1.0000
  H   H136      1.0  0.44566  0.98796  0.36716  1.0000
  C   C173      1.0  0.07593  0.32333  0.35415  1.0000
  C   C174      1.0  0.06572  0.31270  0.43606  1.0000
  C   C175      1.0  0.05524  0.28717  0.43619  1.0000
  C   C176      1.0  0.06612  0.32789  0.52240  1.0000
  H   H137      1.0  0.07468  0.34678  0.51620  1.0000
  H   H138      1.0  0.07699  0.31776  0.57407  1.0000
  H   H139      1.0  0.04673  0.33067  0.54682  1.0000
  C   C177      1.0  0.04415  0.27633  0.52185  1.0000
  H   H140      1.0  0.03690  0.25688  0.51532  1.0000
  H   H141      1.0  0.02831  0.28812  0.54443  1.0000
  H   H142      1.0  0.05861  0.27590  0.57496  1.0000
  C   C178      1.0  0.08883  0.34681  0.34844  1.0000
  H   H143      1.0  0.10746  0.34598  0.33771  1.0000
  C   C179      1.0  0.93761  0.69190  0.35656  1.0000
  C   C180      1.0  0.94876  0.70220  0.43745  1.0000
  C   C181      1.0  0.95934  0.72769  0.43725  1.0000
  C   C182      1.0  0.94924  0.68671  0.52309  1.0000
  H   H144      1.0  0.94053  0.66789  0.51726  1.0000
  H   H145      1.0  0.93899  0.69670  0.57669  1.0000
  H   H146      1.0  0.96887  0.68377  0.54463  1.0000
  C   C183      1.0  0.97139  0.73819  0.52181  1.0000
  H   H147      1.0  0.97861  0.75765  0.51522  1.0000
  H   H148      1.0  0.98744  0.72628  0.54158  1.0000
  H   H149      1.0  0.95753  0.73845  0.57692  1.0000
  C   C184      1.0  0.92457  0.66847  0.35157  1.0000
  H   H150      1.0  0.90585  0.66936  0.34336  1.0000
  C   C185      1.0  0.69112  0.07607  0.35479  1.0000
  C   C186      1.0  0.70125  0.06494  0.43584  1.0000
  C   C187      1.0  0.72660  0.05448  0.43603  1.0000
  C   C188      1.0  0.68575  0.06438  0.52130  1.0000
  H   H151      1.0  0.66706  0.07304  0.51527  1.0000
  H   H152      1.0  0.69569  0.07473  0.57502  1.0000
  H   H153      1.0  0.68272  0.04464  0.54281  1.0000
  C   C189      1.0  0.73692  0.04246  0.52077  1.0000
  H   H154      1.0  0.75627  0.03533  0.51449  1.0000
  H   H155      1.0  0.72499  0.02626  0.54043  1.0000
  H   H156      1.0  0.73716  0.05640  0.57583  1.0000
  C   C190      1.0  0.66780  0.08895  0.34935  1.0000
  H   H157      1.0  0.66870  0.10773  0.34033  1.0000
  C   C191      1.0  0.32255  0.93734  0.35503  1.0000
  C   C192      1.0  0.31211  0.94747  0.43723  1.0000
  C   C193      1.0  0.28691  0.95828  0.43757  1.0000
  C   C194      1.0  0.32716  0.94663  0.52367  1.0000
  H   H158      1.0  0.34578  0.93783  0.51729  1.0000
  H   H159      1.0  0.31682  0.93566  0.57483  1.0000
  H   H160      1.0  0.33031  0.96600  0.54886  1.0000
  C   C195      1.0  0.27629  0.96927  0.52360  1.0000
  H   H161      1.0  0.25709  0.97679  0.51723  1.0000
  H   H162      1.0  0.28833  0.98499  0.54690  1.0000
  H   H163      1.0  0.27554  0.95458  0.57611  1.0000
  C   C196      1.0  0.34571  0.92420  0.34897  1.0000
  H   H164      1.0  0.34463  0.90551  0.33767  1.0000
  C   C197      1.0  0.45874  0.77085  0.35140  1.0000
  C   C198      1.0  0.45416  0.78468  0.43210  1.0000
  C   C199      1.0  0.44864  0.81093  0.43055  1.0000
  H   H165      1.0  0.44704  0.82028  0.49143  1.0000
  H   H166      1.0  0.45631  0.77606  0.49412  1.0000
  C   C200      1.0  0.46973  0.74664  0.36130  1.0000
  H   H167      1.0  0.48773  0.74627  0.38190  1.0000
  C   C201      1.0  0.55471  0.24149  0.35131  1.0000
  C   C202      1.0  0.56011  0.22778  0.43161  1.0000
  C   C203      1.0  0.56547  0.20149  0.42980  1.0000
  H   H168      1.0  0.56764  0.19222  0.49061  1.0000
  H   H169      1.0  0.55861  0.23649  0.49371  1.0000
  C   C204      1.0  0.54395  0.26577  0.36220  1.0000
  H   H170      1.0  0.52613  0.26627  0.38459  1.0000
  C   C205      1.0  0.77173  0.55526  0.35184  1.0000
  C   C206      1.0  0.78555  0.55992  0.43247  1.0000
  C   C207      1.0  0.81180  0.56513  0.43093  1.0000
  H   H171      1.0  0.82110  0.56683  0.49183  1.0000
  H   H172      1.0  0.77688  0.55804  0.49450  1.0000
  C   C208      1.0  0.74741  0.54446  0.36200  1.0000
  H   H173      1.0  0.74674  0.52647  0.38346  1.0000
  C   C209      1.0  0.24214  0.45817  0.35196  1.0000
  C   C210      1.0  0.22817  0.45278  0.43171  1.0000
  C   C211      1.0  0.20183  0.44809  0.42920  1.0000
  H   H174      1.0  0.19243  0.44590  0.48972  1.0000
  H   H175      1.0  0.23680  0.45383  0.49405  1.0000
  C   C212      1.0  0.26663  0.46839  0.36386  1.0000
  H   H176      1.0  0.26762  0.48606  0.38835  1.0000
  C   C213      1.0  0.11348  0.11064  0.35639  1.0000
  C   C214      1.0  0.11293  0.09421  0.43407  1.0000
  C   C215      1.0  0.12317  0.06878  0.42801  1.0000
  C   C216      1.0  0.10157  0.10329  0.52169  1.0000
  H   H177      1.0  0.09556  0.12317  0.52099  1.0000
  H   H178      1.0  0.11550  0.10167  0.57626  1.0000
  H   H179      1.0  0.08489  0.09173  0.53853  1.0000
  C   C217      1.0  0.12102  0.05110  0.50788  1.0000
  H   H180      1.0  0.12868  0.03209  0.49646  1.0000
  H   H181      1.0  0.10107  0.04854  0.52626  1.0000
  H   H182      1.0  0.13129  0.05909  0.56572  1.0000
  C   C218      1.0  0.10254  0.13493  0.35321  1.0000
  H   H183      1.0  0.11371  0.15013  0.34534  1.0000
  C   C219      1.0  0.90077  0.90473  0.35812  1.0000
  C   C220      1.0  0.90215  0.92163  0.43441  1.0000
  C   C221      1.0  0.89201  0.94708  0.42762  1.0000
  C   C222      1.0  0.91428  0.91302  0.52132  1.0000
  H   H184      1.0  0.92012  0.89309  0.52155  1.0000
  H   H185      1.0  0.90091  0.91512  0.57741  1.0000
  H   H186      1.0  0.93120  0.92455  0.53515  1.0000
  C   C223      1.0  0.89500  0.96524  0.50577  1.0000
  H   H187      1.0  0.88734  0.98423  0.49376  1.0000
  H   H188      1.0  0.91513  0.96778  0.52157  1.0000
  H   H189      1.0  0.88524  0.95768  0.56542  1.0000
  C   C224      1.0  0.91158  0.88038  0.35542  1.0000
  H   H190      1.0  0.90030  0.86518  0.34964  1.0000
  C   C225      1.0  0.90354  0.11402  0.35562  1.0000
  C   C226      1.0  0.91950  0.11382  0.43434  1.0000
  C   C227      1.0  0.94515  0.12351  0.42873  1.0000
  C   C228      1.0  0.90970  0.10337  0.52258  1.0000
  H   H191      1.0  0.88975  0.09771  0.52123  1.0000
  H   H192      1.0  0.91146  0.11780  0.57567  1.0000
  H   H193      1.0  0.92063  0.08655  0.54200  1.0000
  C   C229      1.0  0.96228  0.12177  0.50995  1.0000
  H   H194      1.0  0.98148  0.12896  0.49882  1.0000
  H   H195      1.0  0.96412  0.10187  0.53094  1.0000
  H   H196      1.0  0.95435  0.13281  0.56596  1.0000
  C   C230      1.0  0.87915  0.10334  0.35204  1.0000
  H   H197      1.0  0.86425  0.11466  0.34268  1.0000
  C   C231      1.0  0.11036  0.90131  0.35629  1.0000
  C   C232      1.0  0.09426  0.90172  0.43465  1.0000
  C   C233      1.0  0.06865  0.89196  0.42886  1.0000
  C   C234      1.0  0.10388  0.91248  0.52267  1.0000
  H   H198      1.0  0.12383  0.91816  0.52156  1.0000
  H   H199      1.0  0.10205  0.89822  0.57631  1.0000
  H   H200      1.0  0.09289  0.92934  0.54114  1.0000
  C   C235      1.0  0.05137  0.89394  0.50960  1.0000
  H   H201      1.0  0.03220  0.88667  0.49832  1.0000
  H   H202      1.0  0.04944  0.91391  0.52969  1.0000
  H   H203      1.0  0.05921  0.88311  0.56626  1.0000
  C   C236      1.0  0.13474  0.91199  0.35282  1.0000
  H   H204      1.0  0.14965  0.90064  0.34429  1.0000
  C   C237      1.0  0.38017  0.55775  0.35921  1.0000
  C   C238      1.0  0.37960  0.57444  0.43447  1.0000
  C   C239      1.0  0.38956  0.59930  0.42891  1.0000
  H   H205      1.0  0.38926  0.61043  0.48620  1.0000
  H   H206      1.0  0.37261  0.56836  0.49582  1.0000
  C   C240      1.0  0.37380  0.53229  0.37614  1.0000
  H   H207      1.0  0.38609  0.52234  0.41322  1.0000
  C   C241      1.0  0.63407  0.45442  0.35859  1.0000
  C   C242      1.0  0.63489  0.43758  0.43339  1.0000
  C   C243      1.0  0.62480  0.41276  0.42778  1.0000
  H   H208      1.0  0.62526  0.40155  0.48484  1.0000
  H   H209      1.0  0.64210  0.44353  0.49456  1.0000
  C   C244      1.0  0.64049  0.47985  0.37585  1.0000
  H   H210      1.0  0.62825  0.48975  0.41334  1.0000
  C   C245      1.0  0.55948  0.63362  0.35789  1.0000
  C   C246      1.0  0.57642  0.63507  0.43208  1.0000
  C   C247      1.0  0.60118  0.62531  0.42627  1.0000
  H   H211      1.0  0.61249  0.62626  0.48288  1.0000
  H   H212      1.0  0.57061  0.64258  0.49291  1.0000
  C   C248      1.0  0.53417  0.63981  0.37545  1.0000
  H   H213      1.0  0.52437  0.62746  0.41327  1.0000
  C   C249      1.0  0.45422  0.37865  0.35864  1.0000
  C   C250      1.0  0.43774  0.37803  0.43427  1.0000
  C   C251      1.0  0.41293  0.38768  0.42899  1.0000
  H   H214      1.0  0.40198  0.38742  0.48662  1.0000
  H   H215      1.0  0.44394  0.37130  0.49575  1.0000
  C   C252      1.0  0.47965  0.37273  0.37524  1.0000
  H   H216      1.0  0.48951  0.38534  0.41170  1.0000
