data_image0
_chemical_formula_structural       C2H2CH3CH4C2H2CH3CH4C2H2CH3CH4C2H2CH3CH4C2H2CH3CH4C2H2CH3CH4C4NC2NCH2CH2C4NC2NCH2CH2C4NC2NCH2CH2C4NC2NCH2CH2C4NC2NCH2CH2C4NC2NCH2CH2C4NC2NCH2CHC4NC2NCH2CHC4NC2NCH2CHC4NC2NCH2CHC4NC2NCH2CHC4NC2NCH2CHCNCNCNC18H12CNCNCNC18H12CNCNCNC18H12CNCNCNC18H12CNCNCNC18H12CNCNCNC18H12CNCNCNC18H12CNCNCNC18H12CNCNCNC18H12CNCNCNC18H12CNCNCNC18H12CNCNCNC18H12C4NC2NCH2CHC4NC2NCH2CHC4NC2NCH2CHC4NC2NCH2CHC4NC2NCH2CHC4NC2NCH2CHC2H2CH3CH3C2H2CH3CH3C2H2CH3CH3C2H2CH3CH3C2H2CH3CH3C2H2CH3CH3C2H2CH3CH4C2H2CH3CH4C2H2CH3CH4C2H2CH3CH4C2H2CH3CH4C2H2CH3CH4
_chemical_formula_sum              "C468 H360 N72"
_cell_length_a       74.489
_cell_length_b       74.489
_cell_length_c       15.0017
_cell_angle_alpha    90
_cell_angle_beta     90
_cell_angle_gamma    120

_space_group_name_H-M_alt    "P 1"
_space_group_IT_number       1

loop_
  _space_group_symop_operation_xyz
  'x, y, z'

loop_
  _atom_site_type_symbol
  _atom_site_label
  _atom_site_symmetry_multiplicity
  _atom_site_fract_x
  _atom_site_fract_y
  _atom_site_fract_z
  _atom_site_occupancy
  C   C1        1.0  0.19743  0.37637  0.27299  1.0000
  C   C2        1.0  0.20834  0.39815  0.27393  1.0000
  H   H1        1.0  0.21681  0.40587  0.21885  1.0000
  H   H2        1.0  0.19849  0.36890  0.21779  1.0000
  C   C3        1.0  0.17549  0.35645  0.03798  1.0000
  H   H3        1.0  0.15272  0.36640  0.01948  1.0000
  H   H4        1.0  0.18862  0.37085  0.06207  1.0000
  H   H5        1.0  0.16689  0.34700  0.09519  1.0000
  C   C4        1.0  0.17508  0.40597  0.06949  1.0000
  H   H6        1.0  0.20424  0.41938  0.00199  1.0000
  H   H7        1.0  0.15864  0.39941  0.05458  1.0000
  H   H8        1.0  0.17989  0.41961  0.11145  1.0000
  H   H9        1.0  0.17754  0.39493  0.10740  1.0000
  C   C5        1.0  0.61018  0.80771  0.27300  1.0000
  C   C6        1.0  0.58840  0.79684  0.27389  1.0000
  H   H10       1.0  0.58069  0.79760  0.21878  1.0000
  H   H11       1.0  0.61766  0.81624  0.21782  1.0000
  C   C7        1.0  0.63024  0.80564  0.03793  1.0000
  H   H12       1.0  0.61998  0.77285  0.01952  1.0000
  H   H13       1.0  0.61591  0.80453  0.06208  1.0000
  H   H14       1.0  0.63967  0.80640  0.09509  1.0000
  C   C8        1.0  0.58048  0.75587  0.06982  1.0000
  H   H15       1.0  0.56689  0.77129  0.00112  1.0000
  H   H16       1.0  0.58707  0.74598  0.05572  1.0000
  H   H17       1.0  0.56683  0.74711  0.11183  1.0000
  H   H18       1.0  0.59150  0.76947  0.10731  1.0000
  C   C9        1.0  0.17880  0.78909  0.27298  1.0000
  C   C10       1.0  0.18967  0.77817  0.27389  1.0000
  H   H19       1.0  0.18890  0.76970  0.21880  1.0000
  H   H20       1.0  0.17026  0.78802  0.21780  1.0000
  C   C11       1.0  0.18086  0.81117  0.03795  1.0000
  H   H21       1.0  0.21363  0.83376  0.01948  1.0000
  H   H22       1.0  0.18202  0.79797  0.06209  1.0000
  H   H23       1.0  0.18008  0.81982  0.09514  1.0000
  C   C12       1.0  0.23068  0.81129  0.06970  1.0000
  H   H24       1.0  0.21512  0.78223  0.00141  1.0000
  H   H25       1.0  0.24057  0.82776  0.05531  1.0000
  H   H26       1.0  0.23945  0.80641  0.11170  1.0000
  H   H27       1.0  0.21711  0.80876  0.10733  1.0000
  C   C13       1.0  0.79351  0.60574  0.27301  1.0000
  C   C14       1.0  0.78259  0.58396  0.27391  1.0000
  H   H28       1.0  0.77413  0.57625  0.21879  1.0000
  H   H29       1.0  0.79244  0.61321  0.21782  1.0000
  C   C15       1.0  0.81562  0.62579  0.03794  1.0000
  H   H30       1.0  0.83818  0.61557  0.01951  1.0000
  H   H31       1.0  0.80241  0.61145  0.06209  1.0000
  H   H32       1.0  0.82427  0.63522  0.09511  1.0000
  C   C16       1.0  0.81568  0.57606  0.06978  1.0000
  H   H33       1.0  0.78667  0.56245  0.00117  1.0000
  H   H34       1.0  0.83217  0.58267  0.05562  1.0000
  H   H35       1.0  0.81081  0.56241  0.11177  1.0000
  H   H36       1.0  0.81310  0.58707  0.10731  1.0000
  C   C17       1.0  0.38077  0.17439  0.27299  1.0000
  C   C18       1.0  0.40255  0.18526  0.27394  1.0000
  H   H37       1.0  0.41027  0.18451  0.21886  1.0000
  H   H38       1.0  0.37331  0.16586  0.21780  1.0000
  C   C19       1.0  0.36086  0.17642  0.03800  1.0000
  H   H39       1.0  0.37082  0.20914  0.01948  1.0000
  H   H40       1.0  0.37527  0.17769  0.06209  1.0000
  H   H41       1.0  0.35141  0.17557  0.09521  1.0000
  C   C20       1.0  0.41039  0.22636  0.06948  1.0000
  H   H42       1.0  0.42379  0.21059  0.00199  1.0000
  H   H43       1.0  0.40382  0.23623  0.05457  1.0000
  H   H44       1.0  0.42403  0.23519  0.11144  1.0000
  H   H45       1.0  0.39934  0.21285  0.10741  1.0000
  C   C21       1.0  0.81212  0.19300  0.27304  1.0000
  C   C22       1.0  0.80126  0.20392  0.27395  1.0000
  H   H46       1.0  0.80201  0.21238  0.21885  1.0000
  H   H47       1.0  0.82066  0.19407  0.21785  1.0000
  C   C23       1.0  0.81007  0.17087  0.03796  1.0000
  H   H48       1.0  0.77728  0.14834  0.01954  1.0000
  H   H49       1.0  0.80895  0.18409  0.06212  1.0000
  H   H50       1.0  0.81083  0.16221  0.09513  1.0000
  C   C24       1.0  0.76029  0.17085  0.06988  1.0000
  H   H51       1.0  0.77572  0.19986  0.00122  1.0000
  H   H52       1.0  0.75040  0.15437  0.05574  1.0000
  H   H53       1.0  0.75153  0.17574  0.11190  1.0000
  H   H54       1.0  0.77389  0.17343  0.10737  1.0000
  C   C25       1.0  0.18232  0.19897  0.32051  1.0000
  C   C26       1.0  0.19416  0.19945  0.24569  1.0000
  C   C27       1.0  0.20541  0.18877  0.24728  1.0000
  C   C28       1.0  0.20472  0.17706  0.32294  1.0000
  N   N1        1.0  0.21589  0.18943  0.17226  1.0000
  C   C29       1.0  0.21668  0.19961  0.09573  1.0000
  C   C30       1.0  0.20499  0.21002  0.09285  1.0000
  N   N2        1.0  0.19451  0.20918  0.16864  1.0000
  C   C31       1.0  0.22812  0.19645  0.02208  1.0000
  H   H55       1.0  0.24028  0.19392  0.04965  1.0000
  H   H56       1.0  0.20813  0.16315  0.00420  1.0000
  C   C32       1.0  0.20124  0.22123  0.01910  1.0000
  H   H57       1.0  0.20372  0.23590  0.04671  1.0000
  H   H58       1.0  0.18481  0.21208  0.00171  1.0000
  C   C33       1.0  0.78757  0.97000  0.32050  1.0000
  C   C34       1.0  0.78710  0.98135  0.24566  1.0000
  C   C35       1.0  0.79777  0.00328  0.24723  1.0000
  C   C36       1.0  0.80947  0.01430  0.32290  1.0000
  N   N3        1.0  0.79710  0.01309  0.17223  1.0000
  C   C37       1.0  0.78691  0.00370  0.09571  1.0000
  C   C38       1.0  0.77652  0.98160  0.09282  1.0000
  N   N4        1.0  0.77736  0.97196  0.16863  1.0000
  C   C39       1.0  0.79005  0.01829  0.02208  1.0000
  H   H59       1.0  0.79256  0.03298  0.04969  1.0000
  H   H60       1.0  0.82335  0.03165  0.00418  1.0000
  C   C40       1.0  0.76525  0.96663  0.01918  1.0000
  H   H61       1.0  0.75055  0.95449  0.04687  1.0000
  H   H62       1.0  0.77433  0.95927  0.00188  1.0000
  C   C41       1.0  0.01652  0.80420  0.32046  1.0000
  C   C42       1.0  0.00516  0.79235  0.24566  1.0000
  C   C43       1.0  0.98323  0.78109  0.24729  1.0000
  C   C44       1.0  0.97222  0.78178  0.32297  1.0000
  N   N5        1.0  0.97341  0.77060  0.17231  1.0000
  C   C45       1.0  0.98279  0.76979  0.09580  1.0000
  C   C46       1.0  0.00489  0.78153  0.09281  1.0000
  N   N6        1.0  0.01454  0.79202  0.16857  1.0000
  C   C47       1.0  0.96819  0.75844  0.02204  1.0000
  H   H63       1.0  0.95345  0.74634  0.04951  1.0000
  H   H64       1.0  0.95510  0.77862  0.00413  1.0000
  C   C48       1.0  0.01983  0.78529  0.01896  1.0000
  H   H65       1.0  0.03211  0.78294  0.04662  1.0000
  H   H66       1.0  0.02701  0.80168  0.00116  1.0000
  C   C49       1.0  0.80862  0.78314  0.32051  1.0000
  C   C50       1.0  0.79679  0.78267  0.24568  1.0000
  C   C51       1.0  0.78554  0.79335  0.24724  1.0000
  C   C52       1.0  0.78623  0.80505  0.32291  1.0000
  N   N7        1.0  0.77506  0.79268  0.17223  1.0000
  C   C53       1.0  0.77427  0.78250  0.09571  1.0000
  C   C54       1.0  0.78596  0.77208  0.09285  1.0000
  N   N8        1.0  0.79644  0.77292  0.16865  1.0000
  C   C55       1.0  0.76280  0.78562  0.02210  1.0000
  H   H67       1.0  0.75062  0.78811  0.04972  1.0000
  H   H68       1.0  0.78272  0.81893  0.00423  1.0000
  C   C56       1.0  0.78969  0.76084  0.01916  1.0000
  H   H69       1.0  0.78714  0.74615  0.04679  1.0000
  H   H70       1.0  0.80613  0.76995  0.00192  1.0000
  C   C57       1.0  0.20338  0.01211  0.32052  1.0000
  C   C58       1.0  0.20386  0.00075  0.24570  1.0000
  C   C59       1.0  0.19318  0.97882  0.24729  1.0000
  C   C60       1.0  0.18147  0.96781  0.32295  1.0000
  N   N9        1.0  0.19384  0.96900  0.17227  1.0000
  C   C61       1.0  0.20402  0.97839  0.09575  1.0000
  C   C62       1.0  0.21443  0.00049  0.09287  1.0000
  N   N10       1.0  0.21359  0.01014  0.16865  1.0000
  C   C63       1.0  0.20086  0.96380  0.02209  1.0000
  H   H71       1.0  0.19833  0.94910  0.04968  1.0000
  H   H72       1.0  0.16756  0.95049  0.00420  1.0000
  C   C64       1.0  0.22564  0.01545  0.01910  1.0000
  H   H73       1.0  0.24031  0.02765  0.04671  1.0000
  H   H74       1.0  0.21649  0.02273  0.00170  1.0000
  C   C65       1.0  0.97441  0.17789  0.32050  1.0000
  C   C66       1.0  0.98577  0.18972  0.24566  1.0000
  C   C67       1.0  0.00770  0.20097  0.24723  1.0000
  C   C68       1.0  0.01872  0.20029  0.32291  1.0000
  N   N11       1.0  0.01751  0.21146  0.17223  1.0000
  C   C69       1.0  0.00812  0.21226  0.09572  1.0000
  C   C70       1.0  0.98602  0.20055  0.09283  1.0000
  N   N12       1.0  0.97638  0.19007  0.16863  1.0000
  C   C71       1.0  0.02272  0.22371  0.02209  1.0000
  H   H75       1.0  0.03740  0.23589  0.04970  1.0000
  H   H76       1.0  0.03607  0.20376  0.00419  1.0000
  C   C72       1.0  0.97105  0.19685  0.01918  1.0000
  H   H77       1.0  0.95892  0.19942  0.04687  1.0000
  H   H78       1.0  0.96369  0.18041  0.00189  1.0000
  C   C73       1.0  0.21118  0.61703  0.30668  1.0000
  C   C74       1.0  0.21666  0.60948  0.23093  1.0000
  C   C75       1.0  0.21697  0.59069  0.23531  1.0000
  C   C76       1.0  0.21135  0.57889  0.31482  1.0000
  N   N13       1.0  0.22437  0.58546  0.16318  1.0000
  C   C77       1.0  0.23108  0.59653  0.08614  1.0000
  C   C78       1.0  0.23019  0.61520  0.08013  1.0000
  N   N14       1.0  0.22330  0.62053  0.15411  1.0000
  C   C79       1.0  0.23731  0.58655  0.01653  1.0000
  H   H79       1.0  0.24407  0.57805  0.04812  1.0000
  H   H80       1.0  0.20794  0.55775  0.00105  1.0000
  C   C80       1.0  0.23514  0.63030  0.00569  1.0000
  H   H81       1.0  0.24580  0.64572  0.03229  1.0000
  C   C81       1.0  0.36950  0.58077  0.30699  1.0000
  C   C82       1.0  0.37703  0.59379  0.23117  1.0000
  C   C83       1.0  0.39584  0.61288  0.23541  1.0000
  C   C84       1.0  0.40766  0.61907  0.31487  1.0000
  N   N15       1.0  0.40107  0.62549  0.16323  1.0000
  C   C85       1.0  0.38999  0.62112  0.08622  1.0000
  C   C86       1.0  0.37128  0.60159  0.08039  1.0000
  N   N16       1.0  0.36595  0.58938  0.15441  1.0000
  C   C87       1.0  0.39990  0.63737  0.01674  1.0000
  H   H82       1.0  0.40828  0.65263  0.04846  1.0000
  H   H83       1.0  0.42881  0.63702  0.00141  1.0000
  C   C88       1.0  0.35614  0.59144  0.00608  1.0000
  H   H84       1.0  0.34074  0.58681  0.03268  1.0000
  C   C89       1.0  0.40572  0.77529  0.30708  1.0000
  C   C90       1.0  0.39267  0.76982  0.23133  1.0000
  C   C91       1.0  0.37360  0.76957  0.23556  1.0000
  C   C92       1.0  0.36742  0.77521  0.31506  1.0000
  N   N17       1.0  0.36099  0.76219  0.16337  1.0000
  C   C93       1.0  0.36534  0.75548  0.08634  1.0000
  C   C94       1.0  0.38487  0.75630  0.08049  1.0000
  N   N18       1.0  0.39708  0.76317  0.15453  1.0000
  C   C95       1.0  0.34911  0.74918  0.01683  1.0000
  H   H85       1.0  0.33385  0.74233  0.04852  1.0000
  H   H86       1.0  0.34952  0.77847  0.00153  1.0000
  C   C96       1.0  0.39503  0.75133  0.00615  1.0000
  H   H87       1.0  0.39967  0.74057  0.03271  1.0000
  C   C97       1.0  0.77969  0.36502  0.30658  1.0000
  C   C98       1.0  0.77424  0.37265  0.23097  1.0000
  C   C99       1.0  0.77401  0.39148  0.23543  1.0000
  C   C100      1.0  0.77964  0.40321  0.31509  1.0000
  N   N19       1.0  0.76666  0.39677  0.16334  1.0000
  C   C101      1.0  0.75994  0.38573  0.08621  1.0000
  C   C102      1.0  0.76074  0.36702  0.08014  1.0000
  N   N20       1.0  0.76758  0.36162  0.15409  1.0000
  C   C103      1.0  0.75365  0.39572  0.01686  1.0000
  H   H88       1.0  0.74680  0.40410  0.04869  1.0000
  H   H89       1.0  0.78295  0.42461  0.00185  1.0000
  C   C104      1.0  0.75573  0.35191  0.00568  1.0000
  H   H90       1.0  0.74493  0.33651  0.03214  1.0000
  C   C105      1.0  0.62152  0.40129  0.30668  1.0000
  C   C106      1.0  0.61391  0.38824  0.23097  1.0000
  C   C107      1.0  0.59510  0.36916  0.23529  1.0000
  C   C108      1.0  0.58330  0.36299  0.31479  1.0000
  N   N21       1.0  0.58985  0.35653  0.16315  1.0000
  C   C109      1.0  0.60091  0.36088  0.08610  1.0000
  C   C110      1.0  0.61960  0.38042  0.08012  1.0000
  N   N22       1.0  0.62496  0.39264  0.15413  1.0000
  C   C111      1.0  0.59092  0.34468  0.01648  1.0000
  H   H91       1.0  0.58241  0.32942  0.04805  1.0000
  H   H92       1.0  0.56213  0.34528  0.00111  1.0000
  C   C112      1.0  0.63471  0.39056  0.00568  1.0000
  H   H93       1.0  0.65013  0.39529  0.03226  1.0000
  C   C113      1.0  0.58518  0.20673  0.30701  1.0000
  C   C114      1.0  0.59820  0.21222  0.23120  1.0000
  C   C115      1.0  0.61729  0.21249  0.23545  1.0000
  C   C116      1.0  0.62348  0.20686  0.31492  1.0000
  N   N23       1.0  0.62990  0.21988  0.16327  1.0000
  C   C117      1.0  0.62554  0.22660  0.08626  1.0000
  C   C118      1.0  0.60601  0.22577  0.08042  1.0000
  N   N24       1.0  0.59379  0.21888  0.15443  1.0000
  C   C119      1.0  0.64179  0.23294  0.01679  1.0000
  H   H94       1.0  0.65704  0.23980  0.04852  1.0000
  H   H95       1.0  0.64144  0.20367  0.00144  1.0000
  C   C120      1.0  0.59586  0.23076  0.00610  1.0000
  H   H96       1.0  0.59122  0.24152  0.03270  1.0000
  C   C121      1.0  0.13907  0.24416  0.32959  1.0000
  N   N25       1.0  0.14932  0.26523  0.33063  1.0000
  C   C122      1.0  0.13944  0.27641  0.33255  1.0000
  N   N26       1.0  0.11836  0.26559  0.33304  1.0000
  C   C123      1.0  0.10719  0.24452  0.33195  1.0000
  N   N27       1.0  0.11802  0.23429  0.33035  1.0000
  C   C124      1.0  0.15074  0.29851  0.33469  1.0000
  C   C125      1.0  0.17256  0.30972  0.32352  1.0000
  C   C126      1.0  0.18375  0.33151  0.32642  1.0000
  C   C127      1.0  0.17352  0.34287  0.34170  1.0000
  C   C128      1.0  0.15176  0.33185  0.35255  1.0000
  C   C129      1.0  0.14058  0.31007  0.34880  1.0000
  C   C130      1.0  0.14987  0.23287  0.32742  1.0000
  C   C131      1.0  0.17156  0.24303  0.31304  1.0000
  C   C132      1.0  0.18219  0.23188  0.31009  1.0000
  C   C133      1.0  0.17149  0.21016  0.32220  1.0000
  C   C134      1.0  0.14990  0.19992  0.33753  1.0000
  C   C135      1.0  0.13927  0.21108  0.33946  1.0000
  C   C136      1.0  0.08510  0.23355  0.33125  1.0000
  C   C137      1.0  0.07365  0.21174  0.34266  1.0000
  C   C138      1.0  0.05186  0.20084  0.34075  1.0000
  C   C139      1.0  0.04074  0.21135  0.32621  1.0000
  C   C140      1.0  0.05200  0.23309  0.31518  1.0000
  C   C141      1.0  0.07380  0.24400  0.31807  1.0000
  H   H97       1.0  0.19790  0.23980  0.30017  1.0000
  H   H98       1.0  0.17995  0.25873  0.30381  1.0000
  H   H99       1.0  0.14168  0.18418  0.34625  1.0000
  H   H100      1.0  0.12362  0.20300  0.35055  1.0000
  H   H101      1.0  0.08103  0.20345  0.35273  1.0000
  H   H102      1.0  0.04417  0.18506  0.34840  1.0000
  H   H103      1.0  0.08130  0.25972  0.30916  1.0000
  H   H104      1.0  0.04440  0.24120  0.30557  1.0000
  H   H105      1.0  0.12487  0.30276  0.35744  1.0000
  H   H106      1.0  0.14383  0.33962  0.36256  1.0000
  H   H107      1.0  0.19951  0.33901  0.31878  1.0000
  H   H108      1.0  0.18066  0.30216  0.31285  1.0000
  C   C142      1.0  0.74238  0.88155  0.32963  1.0000
  N   N28       1.0  0.72131  0.87074  0.33070  1.0000
  C   C143      1.0  0.71012  0.84967  0.33265  1.0000
  N   N29       1.0  0.72094  0.83941  0.33311  1.0000
  C   C144      1.0  0.74201  0.84931  0.33198  1.0000
  N   N30       1.0  0.75224  0.87037  0.33036  1.0000
  C   C145      1.0  0.68802  0.83888  0.33483  1.0000
  C   C146      1.0  0.67682  0.84949  0.32363  1.0000
  C   C147      1.0  0.65503  0.83889  0.32653  1.0000
  C   C148      1.0  0.64367  0.81730  0.34185  1.0000
  C   C149      1.0  0.65468  0.80657  0.35274  1.0000
  C   C150      1.0  0.67647  0.81717  0.34898  1.0000
  C   C151      1.0  0.75367  0.90363  0.32744  1.0000
  C   C152      1.0  0.74351  0.91517  0.31304  1.0000
  C   C153      1.0  0.75466  0.93696  0.31012  1.0000
  C   C154      1.0  0.77638  0.94797  0.32221  1.0000
  C   C155      1.0  0.78662  0.93662  0.33753  1.0000
  C   C156      1.0  0.77546  0.91483  0.33946  1.0000
  C   C157      1.0  0.75298  0.83818  0.33126  1.0000
  C   C158      1.0  0.77479  0.84854  0.34265  1.0000
  C   C159      1.0  0.78569  0.83765  0.34071  1.0000
  C   C160      1.0  0.77517  0.81603  0.32620  1.0000
  C   C161      1.0  0.75343  0.80555  0.31518  1.0000
  C   C162      1.0  0.74253  0.81644  0.31807  1.0000
  H   H109      1.0  0.74674  0.94473  0.30018  1.0000
  H   H110      1.0  0.72780  0.90786  0.30385  1.0000
  H   H111      1.0  0.80236  0.94414  0.34625  1.0000
  H   H112      1.0  0.78354  0.90727  0.35057  1.0000
  H   H113      1.0  0.78309  0.86421  0.35273  1.0000
  H   H114      1.0  0.80146  0.84573  0.34839  1.0000
  H   H115      1.0  0.72681  0.80822  0.30919  1.0000
  H   H116      1.0  0.74532  0.78983  0.30559  1.0000
  H   H117      1.0  0.68377  0.80875  0.35762  1.0000
  H   H118      1.0  0.64691  0.79087  0.36275  1.0000
  H   H119      1.0  0.64753  0.84716  0.31886  1.0000
  H   H120      1.0  0.68438  0.86515  0.31292  1.0000
  C   C163      1.0  0.10497  0.84745  0.32957  1.0000
  N   N31       1.0  0.11578  0.83720  0.33063  1.0000
  C   C164      1.0  0.13684  0.84708  0.33259  1.0000
  N   N32       1.0  0.14711  0.86816  0.33309  1.0000
  C   C165      1.0  0.13721  0.87933  0.33198  1.0000
  N   N33       1.0  0.11615  0.86850  0.33034  1.0000
  C   C166      1.0  0.14764  0.83577  0.33475  1.0000
  C   C167      1.0  0.13702  0.81395  0.32356  1.0000
  C   C168      1.0  0.14762  0.80276  0.32646  1.0000
  C   C169      1.0  0.16921  0.81299  0.34178  1.0000
  C   C170      1.0  0.17995  0.83474  0.35265  1.0000
  C   C171      1.0  0.16935  0.84593  0.34890  1.0000
  C   C172      1.0  0.08288  0.83666  0.32737  1.0000
  C   C173      1.0  0.07135  0.81496  0.31295  1.0000
  C   C174      1.0  0.04956  0.80434  0.31000  1.0000
  C   C175      1.0  0.03855  0.81503  0.32213  1.0000
  C   C176      1.0  0.04989  0.83662  0.33748  1.0000
  C   C177      1.0  0.07169  0.84726  0.33943  1.0000
  C   C178      1.0  0.14833  0.90143  0.33129  1.0000
  C   C179      1.0  0.13798  0.91288  0.34268  1.0000
  C   C180      1.0  0.14887  0.93467  0.34079  1.0000
  C   C181      1.0  0.17050  0.94578  0.32626  1.0000
  C   C182      1.0  0.18098  0.93452  0.31524  1.0000
  C   C183      1.0  0.17008  0.91272  0.31812  1.0000
  H   H121      1.0  0.04179  0.78863  0.30006  1.0000
  H   H122      1.0  0.07866  0.80658  0.30372  1.0000
  H   H123      1.0  0.04237  0.84484  0.34623  1.0000
  H   H124      1.0  0.07925  0.86290  0.35053  1.0000
  H   H125      1.0  0.12230  0.90550  0.35274  1.0000
  H   H126      1.0  0.14079  0.94236  0.34842  1.0000
  H   H127      1.0  0.17830  0.90522  0.30922  1.0000
  H   H128      1.0  0.19669  0.94211  0.30564  1.0000
  H   H129      1.0  0.17777  0.86164  0.35755  1.0000
  H   H130      1.0  0.19565  0.84267  0.36268  1.0000
  H   H131      1.0  0.13935  0.78700  0.31880  1.0000
  H   H132      1.0  0.12136  0.80586  0.31286  1.0000
  C   C184      1.0  0.85187  0.73794  0.32965  1.0000
  N   N34       1.0  0.84161  0.71687  0.33070  1.0000
  C   C185      1.0  0.85149  0.70568  0.33265  1.0000
  N   N35       1.0  0.87257  0.71650  0.33313  1.0000
  C   C186      1.0  0.88374  0.73757  0.33201  1.0000
  N   N36       1.0  0.87292  0.74781  0.33039  1.0000
  C   C187      1.0  0.84018  0.68359  0.33481  1.0000
  C   C188      1.0  0.81836  0.67239  0.32361  1.0000
  C   C189      1.0  0.80717  0.65059  0.32651  1.0000
  C   C190      1.0  0.81739  0.63923  0.34183  1.0000
  C   C191      1.0  0.83915  0.65025  0.35272  1.0000
  C   C192      1.0  0.85033  0.67203  0.34897  1.0000
  C   C193      1.0  0.84108  0.74923  0.32745  1.0000
  C   C194      1.0  0.81938  0.73908  0.31306  1.0000
  C   C195      1.0  0.80875  0.75023  0.31014  1.0000
  C   C196      1.0  0.81945  0.77195  0.32222  1.0000
  C   C197      1.0  0.84104  0.78219  0.33753  1.0000
  C   C198      1.0  0.85167  0.77103  0.33947  1.0000
  C   C199      1.0  0.90584  0.74854  0.33131  1.0000
  C   C200      1.0  0.91729  0.77035  0.34267  1.0000
  C   C201      1.0  0.93908  0.78125  0.34075  1.0000
  C   C202      1.0  0.95019  0.77073  0.32628  1.0000
  C   C203      1.0  0.93893  0.74899  0.31529  1.0000
  C   C204      1.0  0.91713  0.73809  0.31816  1.0000
  H   H133      1.0  0.79305  0.74231  0.30020  1.0000
  H   H134      1.0  0.81099  0.72337  0.30387  1.0000
  H   H135      1.0  0.84926  0.79792  0.34625  1.0000
  H   H136      1.0  0.86732  0.77911  0.35057  1.0000
  H   H137      1.0  0.90992  0.77865  0.35272  1.0000
  H   H138      1.0  0.94677  0.79702  0.34839  1.0000
  H   H139      1.0  0.90963  0.72237  0.30932  1.0000
  H   H140      1.0  0.94652  0.74087  0.30574  1.0000
  H   H141      1.0  0.86605  0.67933  0.35761  1.0000
  H   H142      1.0  0.84707  0.64247  0.36274  1.0000
  H   H143      1.0  0.79141  0.64310  0.31884  1.0000
  H   H144      1.0  0.81027  0.67995  0.31290  1.0000
  C   C205      1.0  0.24857  0.10056  0.32959  1.0000
  N   N37       1.0  0.26964  0.11137  0.33063  1.0000
  C   C206      1.0  0.28082  0.13243  0.33256  1.0000
  N   N38       1.0  0.27000  0.14270  0.33305  1.0000
  C   C207      1.0  0.24893  0.13280  0.33196  1.0000
  N   N39       1.0  0.23870  0.11174  0.33035  1.0000
  C   C208      1.0  0.30292  0.14323  0.33470  1.0000
  C   C209      1.0  0.31413  0.13262  0.32354  1.0000
  C   C210      1.0  0.33592  0.14322  0.32643  1.0000
  C   C211      1.0  0.34728  0.16481  0.34172  1.0000
  C   C212      1.0  0.33626  0.17555  0.35256  1.0000
  C   C213      1.0  0.31448  0.16494  0.34881  1.0000
  C   C214      1.0  0.23728  0.07847  0.32741  1.0000
  C   C215      1.0  0.24744  0.06693  0.31303  1.0000
  C   C216      1.0  0.23628  0.04515  0.31009  1.0000
  C   C217      1.0  0.21457  0.03414  0.32220  1.0000
  C   C218      1.0  0.20433  0.04548  0.33752  1.0000
  C   C219      1.0  0.21549  0.06728  0.33945  1.0000
  C   C220      1.0  0.23796  0.14392  0.33126  1.0000
  C   C221      1.0  0.21616  0.13357  0.34266  1.0000
  C   C222      1.0  0.20525  0.14446  0.34076  1.0000
  C   C223      1.0  0.21577  0.16608  0.32623  1.0000
  C   C224      1.0  0.23751  0.17656  0.31522  1.0000
  C   C225      1.0  0.24841  0.16567  0.31808  1.0000
  H   H145      1.0  0.24421  0.03737  0.30017  1.0000
  H   H146      1.0  0.26314  0.07425  0.30381  1.0000
  H   H147      1.0  0.18859  0.03796  0.34625  1.0000
  H   H148      1.0  0.20740  0.07484  0.35054  1.0000
  H   H149      1.0  0.20786  0.11789  0.35273  1.0000
  H   H150      1.0  0.18948  0.13637  0.34840  1.0000
  H   H151      1.0  0.26414  0.17389  0.30920  1.0000
  H   H152      1.0  0.24562  0.19227  0.30562  1.0000
  H   H153      1.0  0.30717  0.17336  0.35744  1.0000
  H   H154      1.0  0.34403  0.19125  0.36256  1.0000
  H   H155      1.0  0.34342  0.13495  0.31880  1.0000
  H   H156      1.0  0.30657  0.11696  0.31287  1.0000
  C   C226      1.0  0.88597  0.13465  0.32962  1.0000
  N   N40       1.0  0.87515  0.14491  0.33069  1.0000
  C   C227      1.0  0.85409  0.13503  0.33263  1.0000
  N   N41       1.0  0.84383  0.11394  0.33309  1.0000
  C   C228      1.0  0.85372  0.10277  0.33196  1.0000
  N   N42       1.0  0.87479  0.11360  0.33035  1.0000
  C   C229      1.0  0.84330  0.14633  0.33481  1.0000
  C   C230      1.0  0.85391  0.16815  0.32362  1.0000
  C   C231      1.0  0.84331  0.17934  0.32653  1.0000
  C   C232      1.0  0.82172  0.16911  0.34185  1.0000
  C   C233      1.0  0.81099  0.14736  0.35273  1.0000
  C   C234      1.0  0.82159  0.13618  0.34897  1.0000
  C   C235      1.0  0.90805  0.14544  0.32743  1.0000
  C   C236      1.0  0.91959  0.16714  0.31304  1.0000
  C   C237      1.0  0.94138  0.17777  0.31012  1.0000
  C   C238      1.0  0.95239  0.16706  0.32221  1.0000
  C   C239      1.0  0.94104  0.14547  0.33753  1.0000
  C   C240      1.0  0.91925  0.13484  0.33946  1.0000
  C   C241      1.0  0.84260  0.08068  0.33124  1.0000
  C   C242      1.0  0.85296  0.06923  0.34263  1.0000
  C   C243      1.0  0.84207  0.04743  0.34070  1.0000
  C   C244      1.0  0.82045  0.03633  0.32619  1.0000
  C   C245      1.0  0.80997  0.04759  0.31516  1.0000
  C   C246      1.0  0.82086  0.06938  0.31804  1.0000
  H   H157      1.0  0.94916  0.19347  0.30017  1.0000
  H   H158      1.0  0.91228  0.17553  0.30384  1.0000
  H   H159      1.0  0.94856  0.13725  0.34625  1.0000
  H   H160      1.0  0.91168  0.11920  0.35057  1.0000
  H   H161      1.0  0.86863  0.07660  0.35271  1.0000
  H   H162      1.0  0.85015  0.03975  0.34837  1.0000
  H   H163      1.0  0.81264  0.07689  0.30919  1.0000
  H   H164      1.0  0.79425  0.03999  0.30559  1.0000
  H   H165      1.0  0.81317  0.12046  0.35761  1.0000
  H   H166      1.0  0.79529  0.13943  0.36276  1.0000
  H   H167      1.0  0.85158  0.19511  0.31886  1.0000
  H   H168      1.0  0.86957  0.17625  0.31290  1.0000
  C   C247      1.0  0.24928  0.52935  0.34415  1.0000
  N   N43       1.0  0.23951  0.50831  0.34336  1.0000
  C   C248      1.0  0.25008  0.49774  0.34093  1.0000
  N   N44       1.0  0.27120  0.50907  0.33813  1.0000
  C   C249      1.0  0.28179  0.53015  0.33839  1.0000
  N   N45       1.0  0.27028  0.53963  0.34131  1.0000
  C   C250      1.0  0.23942  0.47564  0.34192  1.0000
  C   C251      1.0  0.21774  0.46393  0.35674  1.0000
  C   C252      1.0  0.20725  0.44215  0.35933  1.0000
  C   C253      1.0  0.21807  0.43127  0.34666  1.0000
  C   C254      1.0  0.23963  0.44277  0.33071  1.0000
  C   C255      1.0  0.25012  0.46457  0.32900  1.0000
  C   C256      1.0  0.23861  0.54074  0.34463  1.0000
  C   C257      1.0  0.21787  0.53201  0.31440  1.0000
  C   C258      1.0  0.20832  0.54421  0.30648  1.0000
  C   C259      1.0  0.21914  0.56531  0.33113  1.0000
  C   C260      1.0  0.23953  0.57393  0.36434  1.0000
  C   C261      1.0  0.24909  0.56185  0.37078  1.0000
  C   C262      1.0  0.30385  0.54227  0.33361  1.0000
  C   C263      1.0  0.31385  0.56418  0.33896  1.0000
  C   C264      1.0  0.33541  0.57652  0.33069  1.0000
  C   C265      1.0  0.34784  0.56741  0.31668  1.0000
  C   C266      1.0  0.33826  0.54560  0.31347  1.0000
  C   C267      1.0  0.31653  0.53323  0.32156  1.0000
  H   H169      1.0  0.19371  0.53777  0.28026  1.0000
  H   H170      1.0  0.20988  0.51695  0.29310  1.0000
  H   H171      1.0  0.24790  0.58931  0.38105  1.0000
  H   H172      1.0  0.26405  0.56890  0.39332  1.0000
  H   H173      1.0  0.30559  0.57162  0.34823  1.0000
  H   H174      1.0  0.34195  0.59231  0.33432  1.0000
  H   H175      1.0  0.31003  0.51748  0.31716  1.0000
  H   H176      1.0  0.34697  0.53865  0.30356  1.0000
  H   H177      1.0  0.26576  0.47224  0.31774  1.0000
  H   H178      1.0  0.24794  0.43536  0.32157  1.0000
  H   H179      1.0  0.19156  0.43428  0.36966  1.0000
  H   H180      1.0  0.20925  0.47111  0.36662  1.0000
  C   C268      1.0  0.45720  0.70654  0.34384  1.0000
  N   N46       1.0  0.47824  0.71782  0.34305  1.0000
  C   C269      1.0  0.48880  0.73896  0.34064  1.0000
  N   N47       1.0  0.47746  0.74874  0.33789  1.0000
  C   C270      1.0  0.45639  0.73825  0.33815  1.0000
  N   N48       1.0  0.44691  0.71726  0.34105  1.0000
  C   C271      1.0  0.51091  0.75041  0.34166  1.0000
  C   C272      1.0  0.52262  0.74044  0.35645  1.0000
  C   C273      1.0  0.54440  0.75174  0.35910  1.0000
  C   C274      1.0  0.55527  0.77344  0.34651  1.0000
  C   C275      1.0  0.54377  0.78349  0.33054  1.0000
  C   C276      1.0  0.52197  0.77218  0.32879  1.0000
  C   C277      1.0  0.44581  0.68448  0.34435  1.0000
  C   C278      1.0  0.45453  0.67248  0.31390  1.0000
  C   C279      1.0  0.44234  0.65073  0.30615  1.0000
  C   C280      1.0  0.42125  0.64043  0.33111  1.0000
  C   C281      1.0  0.41264  0.65221  0.36434  1.0000
  C   C282      1.0  0.42472  0.67385  0.37071  1.0000
  C   C283      1.0  0.44426  0.74818  0.33344  1.0000
  C   C284      1.0  0.42234  0.73625  0.33868  1.0000
  C   C285      1.0  0.40999  0.74546  0.33047  1.0000
  C   C286      1.0  0.41910  0.76702  0.31666  1.0000
  C   C287      1.0  0.44090  0.77925  0.31360  1.0000
  C   C288      1.0  0.45329  0.76990  0.32158  1.0000
  H   H181      1.0  0.44877  0.64255  0.27995  1.0000
  H   H182      1.0  0.46959  0.67955  0.29264  1.0000
  H   H183      1.0  0.39727  0.64520  0.38120  1.0000
  H   H184      1.0  0.41767  0.68176  0.39329  1.0000
  H   H185      1.0  0.41491  0.72054  0.34781  1.0000
  H   H186      1.0  0.39420  0.73620  0.33402  1.0000
  H   H187      1.0  0.46903  0.77916  0.31725  1.0000
  H   H188      1.0  0.44784  0.79492  0.30379  1.0000
  H   H189      1.0  0.51429  0.78015  0.31756  1.0000
  H   H190      1.0  0.55118  0.79922  0.32147  1.0000
  H   H191      1.0  0.55227  0.74392  0.36943  1.0000
  H   H192      1.0  0.51544  0.72477  0.36630  1.0000
  C   C289      1.0  0.27994  0.73725  0.34391  1.0000
  N   N49       1.0  0.26867  0.74701  0.34313  1.0000
  C   C290      1.0  0.24753  0.73644  0.34070  1.0000
  N   N50       1.0  0.23775  0.71532  0.33793  1.0000
  C   C291      1.0  0.24823  0.70473  0.33819  1.0000
  N   N51       1.0  0.26922  0.71625  0.34109  1.0000
  C   C292      1.0  0.23608  0.74709  0.34173  1.0000
  C   C293      1.0  0.24605  0.76877  0.35653  1.0000
  C   C294      1.0  0.23476  0.77926  0.35915  1.0000
  C   C295      1.0  0.21306  0.76844  0.34655  1.0000
  C   C296      1.0  0.20300  0.74688  0.33061  1.0000
  C   C297      1.0  0.21430  0.73639  0.32886  1.0000
  C   C298      1.0  0.30201  0.74793  0.34442  1.0000
  C   C299      1.0  0.31400  0.76866  0.31412  1.0000
  C   C300      1.0  0.33575  0.77821  0.30630  1.0000
  C   C301      1.0  0.34605  0.76742  0.33117  1.0000
  C   C302      1.0  0.33428  0.74703  0.36443  1.0000
  C   C303      1.0  0.31264  0.73746  0.37074  1.0000
  C   C304      1.0  0.23830  0.68267  0.33343  1.0000
  C   C305      1.0  0.25022  0.67268  0.33881  1.0000
  C   C306      1.0  0.24100  0.65112  0.33053  1.0000
  C   C307      1.0  0.21946  0.63868  0.31651  1.0000
  C   C308      1.0  0.20723  0.64826  0.31325  1.0000
  C   C309      1.0  0.21658  0.66999  0.32136  1.0000
  H   H193      1.0  0.34393  0.79282  0.28005  1.0000
  H   H194      1.0  0.30693  0.77663  0.29269  1.0000
  H   H195      1.0  0.34129  0.73867  0.38130  1.0000
  H   H196      1.0  0.30472  0.72250  0.39335  1.0000
  H   H197      1.0  0.26592  0.68094  0.34809  1.0000
  H   H198      1.0  0.25026  0.64458  0.33415  1.0000
  H   H199      1.0  0.20733  0.67649  0.31690  1.0000
  H   H200      1.0  0.19157  0.63954  0.30328  1.0000
  H   H201      1.0  0.20633  0.72074  0.31762  1.0000
  H   H202      1.0  0.18728  0.73857  0.32152  1.0000
  H   H203      1.0  0.24258  0.79495  0.36947  1.0000
  H   H204      1.0  0.26172  0.77727  0.36636  1.0000
  C   C310      1.0  0.74173  0.45277  0.34411  1.0000
  N   N52       1.0  0.75149  0.47381  0.34325  1.0000
  C   C311      1.0  0.74091  0.48436  0.34075  1.0000
  N   N53       1.0  0.71979  0.47302  0.33798  1.0000
  C   C312      1.0  0.70921  0.45194  0.33828  1.0000
  N   N54       1.0  0.72073  0.44247  0.34128  1.0000
  C   C313      1.0  0.75155  0.50647  0.34173  1.0000
  C   C314      1.0  0.77323  0.51819  0.35652  1.0000
  C   C315      1.0  0.78370  0.53997  0.35915  1.0000
  C   C316      1.0  0.77287  0.55084  0.34653  1.0000
  C   C317      1.0  0.75131  0.53932  0.33056  1.0000
  C   C318      1.0  0.74083  0.51752  0.32883  1.0000
  C   C319      1.0  0.75242  0.44140  0.34469  1.0000
  C   C320      1.0  0.77308  0.45008  0.31358  1.0000
  C   C321      1.0  0.78263  0.43788  0.30582  1.0000
  C   C322      1.0  0.77191  0.41684  0.33153  1.0000
  C   C323      1.0  0.75158  0.40828  0.36541  1.0000
  C   C324      1.0  0.74201  0.42036  0.37174  1.0000
  C   C325      1.0  0.68715  0.43981  0.33347  1.0000
  C   C326      1.0  0.67716  0.41789  0.33842  1.0000
  C   C327      1.0  0.65561  0.40554  0.33007  1.0000
  C   C328      1.0  0.64316  0.41466  0.31646  1.0000
  C   C329      1.0  0.65273  0.43646  0.31370  1.0000
  C   C330      1.0  0.67446  0.44884  0.32178  1.0000
  H   H205      1.0  0.79719  0.44426  0.27906  1.0000
  H   H206      1.0  0.78102  0.46510  0.29176  1.0000
  H   H207      1.0  0.74325  0.39293  0.38272  1.0000
  H   H208      1.0  0.72709  0.41334  0.39478  1.0000
  H   H209      1.0  0.68544  0.41045  0.34739  1.0000
  H   H210      1.0  0.64908  0.38975  0.33339  1.0000
  H   H211      1.0  0.68094  0.46459  0.31766  1.0000
  H   H212      1.0  0.64400  0.44341  0.30400  1.0000
  H   H213      1.0  0.72519  0.50984  0.31760  1.0000
  H   H214      1.0  0.74299  0.54673  0.32148  1.0000
  H   H215      1.0  0.79939  0.54785  0.36950  1.0000
  H   H216      1.0  0.78173  0.51102  0.36640  1.0000
  C   C331      1.0  0.53375  0.27553  0.34415  1.0000
  N   N55       1.0  0.51272  0.26426  0.34335  1.0000
  C   C332      1.0  0.50215  0.24312  0.34091  1.0000
  N   N56       1.0  0.51348  0.23333  0.33813  1.0000
  C   C333      1.0  0.53455  0.24381  0.33839  1.0000
  N   N57       1.0  0.54403  0.26480  0.34131  1.0000
  C   C334      1.0  0.48004  0.23167  0.34191  1.0000
  C   C335      1.0  0.46834  0.24164  0.35672  1.0000
  C   C336      1.0  0.44655  0.23035  0.35931  1.0000
  C   C337      1.0  0.43567  0.20865  0.34665  1.0000
  C   C338      1.0  0.44717  0.19859  0.33071  1.0000
  C   C339      1.0  0.46897  0.20989  0.32899  1.0000
  C   C340      1.0  0.54515  0.29759  0.34463  1.0000
  C   C341      1.0  0.53641  0.30959  0.31432  1.0000
  C   C342      1.0  0.54861  0.33134  0.30640  1.0000
  C   C343      1.0  0.56971  0.34163  0.33114  1.0000
  C   C344      1.0  0.57832  0.32986  0.36444  1.0000
  C   C345      1.0  0.56625  0.30822  0.37088  1.0000
  C   C346      1.0  0.54668  0.23388  0.33360  1.0000
  C   C347      1.0  0.56859  0.24579  0.33896  1.0000
  C   C348      1.0  0.58093  0.23657  0.33069  1.0000
  C   C349      1.0  0.57181  0.21502  0.31669  1.0000
  C   C350      1.0  0.55001  0.20280  0.31348  1.0000
  C   C351      1.0  0.53764  0.21216  0.32156  1.0000
  H   H217      1.0  0.54219  0.33951  0.28010  1.0000
  H   H218      1.0  0.52136  0.30252  0.29295  1.0000
  H   H219      1.0  0.59371  0.33687  0.38121  1.0000
  H   H220      1.0  0.57329  0.30030  0.39348  1.0000
  H   H221      1.0  0.57603  0.26149  0.34823  1.0000
  H   H222      1.0  0.59672  0.24582  0.33433  1.0000
  H   H223      1.0  0.52189  0.20291  0.31716  1.0000
  H   H224      1.0  0.54306  0.18714  0.30357  1.0000
  H   H225      1.0  0.47664  0.20192  0.31774  1.0000
  H   H226      1.0  0.43976  0.18287  0.32158  1.0000
  H   H227      1.0  0.43868  0.23817  0.36964  1.0000
  H   H228      1.0  0.47552  0.25731  0.36659  1.0000
  C   C352      1.0  0.71095  0.24480  0.34396  1.0000
  N   N58       1.0  0.72222  0.23504  0.34321  1.0000
  C   C353      1.0  0.74336  0.24562  0.34077  1.0000
  N   N59       1.0  0.75314  0.26674  0.33795  1.0000
  C   C354      1.0  0.74265  0.27732  0.33815  1.0000
  N   N60       1.0  0.72166  0.26581  0.34108  1.0000
  C   C355      1.0  0.75482  0.23497  0.34180  1.0000
  C   C356      1.0  0.74486  0.21330  0.35658  1.0000
  C   C357      1.0  0.75616  0.20281  0.35921  1.0000
  C   C358      1.0  0.77785  0.21364  0.34660  1.0000
  C   C359      1.0  0.78791  0.23520  0.33065  1.0000
  C   C360      1.0  0.77660  0.24569  0.32891  1.0000
  C   C361      1.0  0.68888  0.23412  0.34446  1.0000
  C   C362      1.0  0.67689  0.21340  0.31404  1.0000
  C   C363      1.0  0.65514  0.20384  0.30626  1.0000
  C   C364      1.0  0.64484  0.21464  0.33117  1.0000
  C   C365      1.0  0.65661  0.23503  0.36438  1.0000
  C   C366      1.0  0.67825  0.24459  0.37078  1.0000
  C   C367      1.0  0.75257  0.29938  0.33331  1.0000
  C   C368      1.0  0.74063  0.30936  0.33801  1.0000
  C   C369      1.0  0.74984  0.33092  0.32967  1.0000
  C   C370      1.0  0.77141  0.34337  0.31629  1.0000
  C   C371      1.0  0.78366  0.33381  0.31377  1.0000
  C   C372      1.0  0.77431  0.31208  0.32183  1.0000
  H   H229      1.0  0.64695  0.18923  0.28008  1.0000
  H   H230      1.0  0.68396  0.20541  0.29281  1.0000
  H   H231      1.0  0.64960  0.24340  0.38120  1.0000
  H   H232      1.0  0.68617  0.25955  0.39334  1.0000
  H   H233      1.0  0.72492  0.30108  0.34683  1.0000
  H   H234      1.0  0.74057  0.33744  0.33284  1.0000
  H   H235      1.0  0.78358  0.30560  0.31792  1.0000
  H   H236      1.0  0.79933  0.34254  0.30427  1.0000
  H   H237      1.0  0.78456  0.26133  0.31769  1.0000
  H   H238      1.0  0.80363  0.24352  0.32156  1.0000
  H   H239      1.0  0.74834  0.18712  0.36954  1.0000
  H   H240      1.0  0.72918  0.20480  0.36644  1.0000
  C   C373      1.0  0.20734  0.40923  0.34847  1.0000
  C   C374      1.0  0.19540  0.39783  0.42306  1.0000
  C   C375      1.0  0.18409  0.37591  0.42124  1.0000
  C   C376      1.0  0.18481  0.36490  0.34561  1.0000
  N   N61       1.0  0.17345  0.36607  0.49596  1.0000
  C   C377      1.0  0.17256  0.37544  0.57237  1.0000
  C   C378      1.0  0.18432  0.39754  0.57551  1.0000
  N   N62       1.0  0.19497  0.40720  0.50005  1.0000
  C   C379      1.0  0.16107  0.36084  0.64596  1.0000
  H   H241      1.0  0.14916  0.34602  0.61832  1.0000
  H   H242      1.0  0.18142  0.34804  0.66646  1.0000
  C   C380      1.0  0.18795  0.41244  0.64937  1.0000
  H   H243      1.0  0.18596  0.42489  0.62120  1.0000
  C   C381      1.0  0.57731  0.78476  0.34839  1.0000
  C   C382      1.0  0.58869  0.78421  0.42304  1.0000
  C   C383      1.0  0.61062  0.79484  0.42132  1.0000
  C   C384      1.0  0.62164  0.80657  0.34569  1.0000
  N   N63       1.0  0.62044  0.79404  0.49608  1.0000
  C   C385      1.0  0.61105  0.78378  0.57247  1.0000
  C   C386      1.0  0.58896  0.77340  0.57547  1.0000
  N   N64       1.0  0.57931  0.77439  0.49995  1.0000
  C   C387      1.0  0.62564  0.78676  0.64594  1.0000
  H   H244      1.0  0.64039  0.78952  0.61816  1.0000
  H   H245      1.0  0.63875  0.81996  0.66636  1.0000
  C   C388      1.0  0.57401  0.76207  0.64913  1.0000
  H   H246      1.0  0.56170  0.74754  0.62096  1.0000
  C   C389      1.0  0.20174  0.77916  0.34841  1.0000
  C   C390      1.0  0.20230  0.79110  0.42302  1.0000
  C   C391      1.0  0.19168  0.80241  0.42126  1.0000
  C   C392      1.0  0.17994  0.80169  0.34565  1.0000
  N   N65       1.0  0.19247  0.81303  0.49602  1.0000
  C   C393      1.0  0.20273  0.81391  0.57243  1.0000
  C   C394      1.0  0.21310  0.80218  0.57546  1.0000
  N   N66       1.0  0.21211  0.79154  0.49997  1.0000
  C   C395      1.0  0.19971  0.82548  0.64594  1.0000
  H   H247      1.0  0.19691  0.83745  0.61819  1.0000
  H   H248      1.0  0.16653  0.80532  0.66642  1.0000
  C   C396      1.0  0.22440  0.79855  0.64920  1.0000
  H   H249      1.0  0.23889  0.80068  0.62105  1.0000
  C   C397      1.0  0.78358  0.57287  0.34842  1.0000
  C   C398      1.0  0.79551  0.58426  0.42307  1.0000
  C   C399      1.0  0.80681  0.60618  0.42132  1.0000
  C   C400      1.0  0.80610  0.61720  0.34570  1.0000
  N   N67       1.0  0.81744  0.61601  0.49607  1.0000
  C   C401      1.0  0.81832  0.60663  0.57247  1.0000
  C   C402      1.0  0.80658  0.58453  0.57551  1.0000
  N   N68       1.0  0.79596  0.57488  0.49999  1.0000
  C   C403      1.0  0.82991  0.62122  0.64594  1.0000
  H   H250      1.0  0.84190  0.63598  0.61817  1.0000
  H   H251      1.0  0.80979  0.63429  0.66639  1.0000
  C   C404      1.0  0.80301  0.56959  0.64912  1.0000
  H   H252      1.0  0.80524  0.55729  0.62090  1.0000
  C   C405      1.0  0.41363  0.19734  0.34847  1.0000
  C   C406      1.0  0.40224  0.19789  0.42307  1.0000
  C   C407      1.0  0.38032  0.18728  0.42125  1.0000
  C   C408      1.0  0.36931  0.17555  0.34562  1.0000
  N   N69       1.0  0.37048  0.18808  0.49597  1.0000
  C   C409      1.0  0.37985  0.19834  0.57237  1.0000
  C   C410      1.0  0.40195  0.20867  0.57551  1.0000
  N   N70       1.0  0.41161  0.20769  0.50005  1.0000
  C   C411      1.0  0.36525  0.19523  0.64597  1.0000
  H   H253      1.0  0.35043  0.19232  0.61833  1.0000
  H   H254      1.0  0.35245  0.16208  0.66649  1.0000
  C   C412      1.0  0.41685  0.21994  0.64936  1.0000
  H   H255      1.0  0.42931  0.23438  0.62119  1.0000
  C   C413      1.0  0.78918  0.20293  0.34847  1.0000
  C   C414      1.0  0.78863  0.19100  0.42310  1.0000
  C   C415      1.0  0.79926  0.17969  0.42136  1.0000
  C   C416      1.0  0.81099  0.18041  0.34572  1.0000
  N   N71       1.0  0.79846  0.16907  0.49611  1.0000
  C   C417      1.0  0.78821  0.16820  0.57251  1.0000
  C   C418      1.0  0.77783  0.17992  0.57553  1.0000
  N   N72       1.0  0.77881  0.19055  0.50003  1.0000
  C   C419      1.0  0.79119  0.15659  0.64596  1.0000
  H   H256      1.0  0.79395  0.14460  0.61817  1.0000
  H   H257      1.0  0.82439  0.17668  0.66640  1.0000
  C   C420      1.0  0.76650  0.18352  0.64920  1.0000
  H   H258      1.0  0.75197  0.18131  0.62105  1.0000
  C   C421      1.0  0.19223  0.17601  0.39587  1.0000
  C   C422      1.0  0.18137  0.18694  0.39513  1.0000
  H   H259      1.0  0.17292  0.18619  0.45025  1.0000
  H   H260      1.0  0.19114  0.16745  0.45098  1.0000
  C   C423      1.0  0.21374  0.17731  0.63163  1.0000
  H   H261      1.0  0.23616  0.21020  0.64742  1.0000
  H   H262      1.0  0.20040  0.17824  0.60780  1.0000
  H   H263      1.0  0.22226  0.17638  0.57427  1.0000
  C   C424      1.0  0.21351  0.22702  0.59742  1.0000
  H   H264      1.0  0.23006  0.23694  0.61009  1.0000
  H   H265      1.0  0.20847  0.23561  0.55520  1.0000
  H   H266      1.0  0.21073  0.21323  0.56085  1.0000
  C   C425      1.0  0.81052  0.00286  0.39586  1.0000
  C   C426      1.0  0.79961  0.98108  0.39511  1.0000
  H   H267      1.0  0.80034  0.97337  0.45027  1.0000
  H   H268      1.0  0.81908  0.01034  0.45097  1.0000
  C   C427      1.0  0.80919  0.02309  0.63162  1.0000
  H   H269      1.0  0.77629  0.01258  0.64743  1.0000
  H   H270      1.0  0.80829  0.00883  0.60777  1.0000
  H   H271      1.0  0.81010  0.03253  0.57427  1.0000
  C   C428      1.0  0.75951  0.97312  0.59739  1.0000
  H   H272      1.0  0.74960  0.97977  0.60992  1.0000
  H   H273      1.0  0.75091  0.95948  0.55518  1.0000
  H   H274      1.0  0.77331  0.98411  0.56089  1.0000
  C   C429      1.0  0.98366  0.79429  0.39586  1.0000
  C   C430      1.0  0.00544  0.80515  0.39509  1.0000
  H   H275      1.0  0.01315  0.81360  0.45021  1.0000
  H   H276      1.0  0.97619  0.79537  0.45097  1.0000
  C   C431      1.0  0.96357  0.77292  0.63159  1.0000
  H   H277      1.0  0.97383  0.75033  0.64742  1.0000
  H   H278      1.0  0.97790  0.78621  0.60782  1.0000
  H   H279      1.0  0.95411  0.76445  0.57420  1.0000
  C   C432      1.0  0.01334  0.77287  0.59763  1.0000
  H   H280      1.0  0.00672  0.75635  0.61082  1.0000
  H   H281      1.0  0.02698  0.77786  0.55545  1.0000
  H   H282      1.0  0.00233  0.77558  0.56077  1.0000
  C   C433      1.0  0.79871  0.80609  0.39586  1.0000
  C   C434      1.0  0.80958  0.79518  0.39511  1.0000
  H   H283      1.0  0.81802  0.79592  0.45026  1.0000
  H   H284      1.0  0.79979  0.81465  0.45097  1.0000
  C   C435      1.0  0.77714  0.80477  0.63165  1.0000
  H   H285      1.0  0.75478  0.77187  0.64742  1.0000
  H   H286      1.0  0.79050  0.80389  0.60779  1.0000
  H   H287      1.0  0.76860  0.80568  0.57431  1.0000
  C   C436      1.0  0.77747  0.75512  0.59734  1.0000
  H   H288      1.0  0.76092  0.74520  0.60980  1.0000
  H   H289      1.0  0.78253  0.74653  0.55510  1.0000
  H   H290      1.0  0.78028  0.76892  0.56089  1.0000
  C   C437      1.0  0.18043  0.97925  0.39588  1.0000
  C   C438      1.0  0.19135  0.00103  0.39513  1.0000
  H   H291      1.0  0.19060  0.00874  0.45025  1.0000
  H   H292      1.0  0.17186  0.97177  0.45099  1.0000
  C   C439      1.0  0.18173  0.95904  0.63164  1.0000
  H   H293      1.0  0.21462  0.96950  0.64744  1.0000
  H   H294      1.0  0.18266  0.97331  0.60780  1.0000
  H   H295      1.0  0.18080  0.94959  0.57428  1.0000
  C   C440      1.0  0.23143  0.00897  0.59743  1.0000
  H   H296      1.0  0.24135  0.00234  0.61012  1.0000
  H   H297      1.0  0.24003  0.02261  0.55521  1.0000
  H   H298      1.0  0.21765  0.99796  0.56087  1.0000
  C   C441      1.0  0.00728  0.18781  0.39587  1.0000
  C   C442      1.0  0.98550  0.17694  0.39511  1.0000
  H   H299      1.0  0.97779  0.16850  0.45027  1.0000
  H   H300      1.0  0.01476  0.18673  0.45098  1.0000
  C   C443      1.0  0.02751  0.20936  0.63163  1.0000
  H   H301      1.0  0.01700  0.23175  0.64743  1.0000
  H   H302      1.0  0.01325  0.19601  0.60778  1.0000
  H   H303      1.0  0.03695  0.21789  0.57429  1.0000
  C   C444      1.0  0.97755  0.20908  0.59739  1.0000
  H   H304      1.0  0.98419  0.22563  0.60991  1.0000
  H   H305      1.0  0.96390  0.20403  0.55518  1.0000
  H   H306      1.0  0.98853  0.20626  0.56090  1.0000
  C   C445      1.0  0.20437  0.58573  0.38786  1.0000
  C   C446      1.0  0.20440  0.60462  0.38421  1.0000
  H   H307      1.0  0.20178  0.61031  0.44190  1.0000
  H   H308      1.0  0.20145  0.57820  0.44761  1.0000
  C   C447      1.0  0.21856  0.57100  0.62697  1.0000
  H   H309      1.0  0.24941  0.59791  0.64050  1.0000
  H   H310      1.0  0.21016  0.57832  0.60061  1.0000
  H   H311      1.0  0.22386  0.56536  0.57141  1.0000
  C   C448      1.0  0.24465  0.62887  0.58305  1.0000
  H   H312      1.0  0.22072  0.63006  0.65574  1.0000
  H   H313      1.0  0.26010  0.63102  0.59356  1.0000
  H   H314      1.0  0.24619  0.64116  0.53855  1.0000
  H   H315      1.0  0.23475  0.61409  0.55025  1.0000
  C   C449      1.0  0.40081  0.60527  0.38801  1.0000
  C   C450      1.0  0.38193  0.58640  0.38441  1.0000
  H   H316      1.0  0.37627  0.57809  0.44211  1.0000
  H   H317      1.0  0.40840  0.60987  0.44763  1.0000
  C   C451      1.0  0.41556  0.63436  0.62723  1.0000
  H   H318      1.0  0.38850  0.63803  0.64063  1.0000
  H   H319      1.0  0.40834  0.61865  0.60060  1.0000
  H   H320      1.0  0.42117  0.64533  0.57184  1.0000
  C   C452      1.0  0.35764  0.60229  0.58313  1.0000
  H   H321      1.0  0.35625  0.57717  0.65651  1.0000
  H   H322      1.0  0.35549  0.61560  0.59312  1.0000
  H   H323      1.0  0.34536  0.59149  0.53864  1.0000
  H   H324      1.0  0.37243  0.60712  0.55060  1.0000
  C   C453      1.0  0.38123  0.78217  0.38809  1.0000
  C   C454      1.0  0.40007  0.78208  0.38447  1.0000
  H   H325      1.0  0.40844  0.78479  0.44205  1.0000
  H   H326      1.0  0.37667  0.78516  0.44778  1.0000
  C   C455      1.0  0.35217  0.76788  0.62734  1.0000
  H   H327      1.0  0.34843  0.73711  0.64071  1.0000
  H   H328      1.0  0.36788  0.77634  0.60077  1.0000
  H   H329      1.0  0.34120  0.76254  0.57192  1.0000
  C   C456      1.0  0.38417  0.74196  0.58323  1.0000
  H   H330      1.0  0.40928  0.76570  0.65656  1.0000
  H   H331      1.0  0.37085  0.72651  0.59326  1.0000
  H   H332      1.0  0.39496  0.74048  0.53872  1.0000
  H   H333      1.0  0.37933  0.75193  0.55068  1.0000
  C   C457      1.0  0.78651  0.39629  0.38817  1.0000
  C   C458      1.0  0.78651  0.37741  0.38421  1.0000
  H   H334      1.0  0.78911  0.37167  0.44179  1.0000
  H   H335      1.0  0.78952  0.40383  0.44791  1.0000
  C   C459      1.0  0.77236  0.41140  0.62752  1.0000
  H   H336      1.0  0.74160  0.38436  0.64062  1.0000
  H   H337      1.0  0.78082  0.40416  0.60078  1.0000
  H   H338      1.0  0.76703  0.41706  0.57221  1.0000
  C   C460      1.0  0.74639  0.35347  0.58278  1.0000
  H   H339      1.0  0.77008  0.35200  0.65605  1.0000
  H   H340      1.0  0.73095  0.35135  0.59281  1.0000
  H   H341      1.0  0.74490  0.34122  0.53814  1.0000
  H   H342      1.0  0.75638  0.36829  0.55040  1.0000
  C   C461      1.0  0.59015  0.37681  0.38781  1.0000
  C   C462      1.0  0.60907  0.39565  0.38413  1.0000
  H   H343      1.0  0.61476  0.40396  0.44183  1.0000
  H   H344      1.0  0.58263  0.37223  0.44757  1.0000
  C   C463      1.0  0.57537  0.34789  0.62699  1.0000
  H   H345      1.0  0.60227  0.34394  0.64040  1.0000
  H   H346      1.0  0.58270  0.36362  0.60063  1.0000
  H   H347      1.0  0.56972  0.33697  0.57142  1.0000
  C   C464      1.0  0.63325  0.37964  0.58299  1.0000
  H   H348      1.0  0.63451  0.40477  0.65582  1.0000
  H   H349      1.0  0.63538  0.36633  0.59339  1.0000
  H   H350      1.0  0.64555  0.39040  0.53848  1.0000
  H   H351      1.0  0.61847  0.37479  0.55024  1.0000
  C   C465      1.0  0.60968  0.19992  0.38804  1.0000
  C   C466      1.0  0.59080  0.19992  0.38443  1.0000
  H   H352      1.0  0.58249  0.19728  0.44213  1.0000
  H   H353      1.0  0.61427  0.19693  0.44767  1.0000
  C   C467      1.0  0.63877  0.21426  0.62727  1.0000
  H   H354      1.0  0.64245  0.24499  0.64069  1.0000
  H   H355      1.0  0.62307  0.20578  0.60062  1.0000
  H   H356      1.0  0.64975  0.21962  0.57189  1.0000
  C   C468      1.0  0.60671  0.24012  0.58316  1.0000
  H   H357      1.0  0.58160  0.21638  0.65652  1.0000
  H   H358      1.0  0.62002  0.25557  0.59316  1.0000
  H   H359      1.0  0.59592  0.24160  0.53866  1.0000
  H   H360      1.0  0.61154  0.23015  0.55062  1.0000
