data_image0
_chemical_formula_structural       C8H3NO2C8H3NO2C2H2C2H2C2H2C2H2C8H3NO2C8H3NO2C2H2C2H2C2H2C2H2C8H3NO2C8H3NO2C8H3NO2C8H3NO2C2H2C2H2C2H2C2H2C8H3NO2C8H3NO2C2H2C2H2C2H2C2H2C8H3NO2C8H3NO2C2H2C2H2C2H2C2H2C8H3NO2C8H3NO2CNCNCNCNCNCNCNCNCNCNCNCNCNCNCNCNCNCNCNCNCNCNCNCNCNCNCNCNCNCNCNCNCNCNCNCNCNCNCNCNCNCNCNCNCNCNCNCNC2H2C2H2C2H2C2H2C8H3NO2C8H3NO2C2H2C2H2C2H2C2H2C8H3NO2C8H3NO2C2H2C2H2C2H2C2H2C2H2C2H2C2H2C2H2C8H3NO2C8H3NO2C2H2C2H2C2H2C2H2C8H3NO2C8H3NO2C2H2C2H2C2H2C2H2C8H3NO2C8H3NO2C2H2C2H2C2H2C2H2
_chemical_formula_sum              "C336 H168 N72 O48"
_cell_length_a       66.7624
_cell_length_b       52.3519
_cell_length_c       14.8473
_cell_angle_alpha    90
_cell_angle_beta     90
_cell_angle_gamma    90

_space_group_name_H-M_alt    "P 1"
_space_group_IT_number       1

loop_
  _space_group_symop_operation_xyz
  'x, y, z'

loop_
  _atom_site_type_symbol
  _atom_site_label
  _atom_site_symmetry_multiplicity
  _atom_site_fract_x
  _atom_site_fract_y
  _atom_site_fract_z
  _atom_site_occupancy
  C   C1        1.0  0.00500  0.93486  0.34042  1.0000
  C   C2        1.0  0.98830  0.94944  0.30931  1.0000
  C   C3        1.0  0.98891  0.97663  0.31038  1.0000
  C   C4        1.0  0.00560  0.99072  0.34229  1.0000
  C   C5        1.0  0.00573  0.01851  0.34346  1.0000
  C   C6        1.0  0.98810  0.03297  0.35955  1.0000
  C   C7        1.0  0.98809  0.05998  0.35939  1.0000
  C   C8        1.0  0.00579  0.07430  0.34397  1.0000
  H   H1        1.0  0.97488  0.02392  0.37339  1.0000
  H   H2        1.0  0.97484  0.06912  0.37195  1.0000
  H   H3        1.0  0.97682  0.98626  0.28512  1.0000
  N   N1        1.0  0.97111  0.93691  0.27490  1.0000
  O   O1        1.0  0.96796  0.94236  0.19369  1.0000
  O   O2        1.0  0.95571  0.94207  0.32007  1.0000
  C   C9        1.0  0.50477  0.43502  0.33851  1.0000
  C   C10       1.0  0.48814  0.44966  0.30704  1.0000
  C   C11       1.0  0.48881  0.47684  0.30815  1.0000
  C   C12       1.0  0.50550  0.49086  0.34041  1.0000
  C   C13       1.0  0.50571  0.51864  0.34156  1.0000
  C   C14       1.0  0.48810  0.53318  0.35756  1.0000
  C   C15       1.0  0.48817  0.56018  0.35742  1.0000
  C   C16       1.0  0.50591  0.57442  0.34202  1.0000
  H   H4        1.0  0.47486  0.52418  0.37133  1.0000
  H   H5        1.0  0.47493  0.56938  0.36987  1.0000
  H   H6        1.0  0.47677  0.48653  0.28265  1.0000
  N   N2        1.0  0.47096  0.43720  0.27225  1.0000
  O   O3        1.0  0.46790  0.44267  0.19099  1.0000
  O   O4        1.0  0.45552  0.44241  0.31712  1.0000
  C   C17       1.0  0.11402  0.19769  0.30697  1.0000
  C   C18       1.0  0.13058  0.21457  0.30908  1.0000
  H   H7        1.0  0.11513  0.18146  0.26889  1.0000
  H   H8        1.0  0.14303  0.20993  0.27235  1.0000
  C   C19       1.0  0.06124  0.14540  0.34735  1.0000
  C   C20       1.0  0.07888  0.16046  0.34926  1.0000
  H   H9        1.0  0.06267  0.12599  0.35205  1.0000
  H   H10       1.0  0.09236  0.15139  0.35625  1.0000
  C   C21       1.0  0.89733  0.81165  0.30492  1.0000
  C   C22       1.0  0.88064  0.79500  0.30658  1.0000
  H   H11       1.0  0.89639  0.82791  0.26694  1.0000
  H   H12       1.0  0.86827  0.79982  0.26956  1.0000
  C   C23       1.0  0.95023  0.86348  0.34632  1.0000
  C   C24       1.0  0.93256  0.84850  0.34763  1.0000
  H   H13       1.0  0.94882  0.88290  0.35031  1.0000
  H   H14       1.0  0.91909  0.85766  0.35365  1.0000
  C   C25       1.0  0.88109  0.23732  0.33201  1.0000
  C   C26       1.0  0.89893  0.24291  0.28292  1.0000
  C   C27       1.0  0.91536  0.22571  0.28496  1.0000
  C   C28       1.0  0.91516  0.20278  0.33554  1.0000
  C   C29       1.0  0.93291  0.18696  0.34138  1.0000
  C   C30       1.0  0.95215  0.19819  0.34922  1.0000
  C   C31       1.0  0.96976  0.18337  0.35115  1.0000
  C   C32       1.0  0.96929  0.15632  0.34580  1.0000
  H   H15       1.0  0.95362  0.21760  0.35425  1.0000
  H   H16       1.0  0.98311  0.19288  0.35633  1.0000
  H   H17       1.0  0.92783  0.23031  0.24833  1.0000
  N   N3        1.0  0.90024  0.26549  0.23045  1.0000
  O   O5        1.0  0.90251  0.26062  0.14820  1.0000
  O   O6        1.0  0.91439  0.27959  0.25603  1.0000
  C   C33       1.0  0.13061  0.77234  0.33361  1.0000
  C   C34       1.0  0.11281  0.76678  0.28418  1.0000
  C   C35       1.0  0.09637  0.78397  0.28613  1.0000
  C   C36       1.0  0.09652  0.80687  0.33689  1.0000
  C   C37       1.0  0.07873  0.82263  0.34266  1.0000
  C   C38       1.0  0.05953  0.81130  0.35074  1.0000
  C   C39       1.0  0.04187  0.82602  0.35245  1.0000
  C   C40       1.0  0.04223  0.85308  0.34653  1.0000
  H   H18       1.0  0.05813  0.79189  0.35606  1.0000
  H   H19       1.0  0.02857  0.81643  0.35779  1.0000
  H   H20       1.0  0.08392  0.77938  0.24931  1.0000
  N   N4        1.0  0.11154  0.74425  0.23144  1.0000
  O   O7        1.0  0.10937  0.74920  0.14919  1.0000
  O   O8        1.0  0.09736  0.73014  0.25653  1.0000
  C   C41       1.0  0.61431  0.69788  0.30560  1.0000
  C   C42       1.0  0.63082  0.71482  0.30836  1.0000
  H   H21       1.0  0.61563  0.68146  0.26874  1.0000
  H   H22       1.0  0.64350  0.71004  0.27341  1.0000
  C   C43       1.0  0.56150  0.64556  0.34600  1.0000
  C   C44       1.0  0.57910  0.66070  0.34775  1.0000
  H   H23       1.0  0.56295  0.62619  0.35251  1.0000
  H   H24       1.0  0.59258  0.65174  0.35641  1.0000
  C   C45       1.0  0.39686  0.31187  0.30468  1.0000
  C   C46       1.0  0.38020  0.29514  0.30699  1.0000
  H   H25       1.0  0.39555  0.32855  0.26932  1.0000
  H   H26       1.0  0.36748  0.30032  0.27313  1.0000
  C   C47       1.0  0.44990  0.36352  0.34600  1.0000
  C   C48       1.0  0.43229  0.34843  0.34702  1.0000
  H   H27       1.0  0.44847  0.38287  0.35314  1.0000
  H   H28       1.0  0.41883  0.35743  0.35591  1.0000
  C   C49       1.0  0.38209  0.73857  0.32918  1.0000
  C   C50       1.0  0.40004  0.74405  0.28091  1.0000
  C   C51       1.0  0.41637  0.72673  0.28361  1.0000
  C   C52       1.0  0.41590  0.70373  0.33377  1.0000
  C   C53       1.0  0.43351  0.68769  0.33990  1.0000
  C   C54       1.0  0.45281  0.69870  0.34880  1.0000
  C   C55       1.0  0.47031  0.68369  0.35066  1.0000
  C   C56       1.0  0.46967  0.65666  0.34422  1.0000
  H   H29       1.0  0.45439  0.71808  0.35457  1.0000
  H   H30       1.0  0.48371  0.69305  0.35659  1.0000
  H   H31       1.0  0.42896  0.73124  0.24755  1.0000
  N   N5        1.0  0.40155  0.76663  0.22851  1.0000
  O   O9        1.0  0.40417  0.76182  0.14642  1.0000
  O   O10       1.0  0.41548  0.78086  0.25550  1.0000
  C   C57       1.0  0.62952  0.27126  0.33486  1.0000
  C   C58       1.0  0.61116  0.26499  0.29098  1.0000
  C   C59       1.0  0.59481  0.28229  0.29320  1.0000
  C   C60       1.0  0.59562  0.30605  0.33866  1.0000
  C   C61       1.0  0.57801  0.32213  0.34435  1.0000
  C   C62       1.0  0.55881  0.31122  0.35772  1.0000
  C   C63       1.0  0.54126  0.32616  0.35866  1.0000
  C   C64       1.0  0.54176  0.35306  0.34696  1.0000
  H   H32       1.0  0.55731  0.29196  0.36733  1.0000
  H   H33       1.0  0.52795  0.31686  0.36793  1.0000
  H   H34       1.0  0.58196  0.27720  0.26017  1.0000
  N   N6        1.0  0.60923  0.24165  0.24323  1.0000
  O   O11       1.0  0.60585  0.24517  0.16089  1.0000
  O   O12       1.0  0.59562  0.22780  0.27551  1.0000
  C   C65       1.0  0.36006  0.18318  0.32348  1.0000
  C   C66       1.0  0.37365  0.17442  0.25691  1.0000
  C   C67       1.0  0.37807  0.14802  0.25173  1.0000
  C   C68       1.0  0.36984  0.12998  0.31260  1.0000
  C   C69       1.0  0.37655  0.10396  0.31293  1.0000
  C   C70       1.0  0.39710  0.09867  0.30004  1.0000
  C   C71       1.0  0.40442  0.07363  0.30238  1.0000
  C   C72       1.0  0.39174  0.05238  0.31901  1.0000
  H   H35       1.0  0.40725  0.11313  0.29139  1.0000
  H   H36       1.0  0.41948  0.07141  0.29327  1.0000
  H   H37       1.0  0.38773  0.14204  0.20252  1.0000
  N   N7        1.0  0.38226  0.19197  0.19544  1.0000
  O   O13       1.0  0.37758  0.18685  0.11548  1.0000
  O   O14       1.0  0.40103  0.19232  0.20189  1.0000
  C   C73       1.0  0.65074  0.82661  0.33390  1.0000
  C   C74       1.0  0.64232  0.83674  0.25401  1.0000
  C   C75       1.0  0.63833  0.86326  0.24915  1.0000
  C   C76       1.0  0.64205  0.88001  0.32236  1.0000
  C   C77       1.0  0.63570  0.90619  0.31948  1.0000
  C   C78       1.0  0.61707  0.91241  0.27986  1.0000
  C   C79       1.0  0.60967  0.93743  0.28129  1.0000
  C   C80       1.0  0.62035  0.95754  0.32361  1.0000
  H   H38       1.0  0.60807  0.89853  0.25305  1.0000
  H   H39       1.0  0.59588  0.94052  0.25320  1.0000
  H   H40       1.0  0.63247  0.87031  0.19050  1.0000
  N   N8        1.0  0.63844  0.82035  0.18010  1.0000
  O   O15       1.0  0.64838  0.82679  0.11189  1.0000
  O   O16       1.0  0.62016  0.82028  0.15992  1.0000
  C   C81       1.0  0.65506  0.13879  0.31107  1.0000
  C   C82       1.0  0.66021  0.16483  0.30775  1.0000
  H   H41       1.0  0.66202  0.12649  0.26758  1.0000
  H   H42       1.0  0.67087  0.17045  0.26232  1.0000
  C   C83       1.0  0.63875  0.05745  0.35538  1.0000
  C   C84       1.0  0.64615  0.08274  0.35895  1.0000
  H   H43       1.0  0.64876  0.04273  0.34971  1.0000
  H   H44       1.0  0.66132  0.08551  0.35691  1.0000
  C   C85       1.0  0.36655  0.86762  0.27379  1.0000
  C   C86       1.0  0.36257  0.84125  0.27021  1.0000
  H   H45       1.0  0.36779  0.87746  0.21448  1.0000
  H   H46       1.0  0.36054  0.83278  0.20867  1.0000
  C   C87       1.0  0.37250  0.95098  0.30760  1.0000
  C   C88       1.0  0.36562  0.92548  0.30791  1.0000
  H   H47       1.0  0.36584  0.96386  0.26525  1.0000
  H   H48       1.0  0.35374  0.92077  0.26766  1.0000
  C   C89       1.0  0.85993  0.68268  0.32837  1.0000
  C   C90       1.0  0.84640  0.66398  0.29356  1.0000
  C   C91       1.0  0.85172  0.63775  0.29475  1.0000
  C   C92       1.0  0.87033  0.62948  0.32865  1.0000
  C   C93       1.0  0.87614  0.60342  0.32189  1.0000
  C   C94       1.0  0.89389  0.59718  0.27540  1.0000
  C   C95       1.0  0.90057  0.57184  0.27119  1.0000
  C   C96       1.0  0.89004  0.55173  0.31442  1.0000
  H   H49       1.0  0.90231  0.61111  0.24510  1.0000
  H   H50       1.0  0.91373  0.56846  0.23802  1.0000
  H   H51       1.0  0.84210  0.62465  0.26732  1.0000
  N   N9        1.0  0.82797  0.67130  0.25380  1.0000
  O   O17       1.0  0.81328  0.66093  0.29219  1.0000
  O   O18       1.0  0.82741  0.66590  0.17135  1.0000
  C   C97       1.0  0.15040  0.32716  0.33434  1.0000
  C   C98       1.0  0.16378  0.34623  0.30094  1.0000
  C   C99       1.0  0.15807  0.37233  0.30210  1.0000
  C   C100      1.0  0.13925  0.38021  0.33493  1.0000
  C   C101      1.0  0.13315  0.40627  0.32927  1.0000
  C   C102      1.0  0.11455  0.41230  0.28957  1.0000
  C   C103      1.0  0.10775  0.43761  0.28625  1.0000
  C   C104      1.0  0.11909  0.45803  0.32319  1.0000
  H   H52       1.0  0.10562  0.39826  0.26320  1.0000
  H   H53       1.0  0.09397  0.44075  0.25809  1.0000
  H   H54       1.0  0.16762  0.38565  0.27546  1.0000
  N   N10       1.0  0.18253  0.33943  0.26311  1.0000
  O   O19       1.0  0.19684  0.34998  0.30374  1.0000
  O   O20       1.0  0.18353  0.34509  0.18096  1.0000
  C   C105      1.0  0.12662  0.64955  0.32129  1.0000
  C   C106      1.0  0.13223  0.67542  0.32172  1.0000
  H   H55       1.0  0.11281  0.64478  0.29646  1.0000
  H   H56       1.0  0.12225  0.68839  0.29642  1.0000
  C   C107      1.0  0.13839  0.55853  0.32828  1.0000
  C   C108      1.0  0.14545  0.58397  0.32663  1.0000
  H   H57       1.0  0.14698  0.54453  0.29964  1.0000
  H   H58       1.0  0.15906  0.58764  0.29764  1.0000
  C   C109      1.0  0.88458  0.36031  0.31815  1.0000
  C   C110      1.0  0.87915  0.33438  0.31896  1.0000
  H   H59       1.0  0.89816  0.36527  0.29130  1.0000
  H   H60       1.0  0.88901  0.32155  0.29190  1.0000
  C   C111      1.0  0.87205  0.45111  0.32602  1.0000
  C   C112      1.0  0.86520  0.42558  0.32607  1.0000
  H   H61       1.0  0.86307  0.46496  0.29889  1.0000
  H   H62       1.0  0.85140  0.42168  0.29941  1.0000
  C   C113      1.0  0.45166  0.00240  0.32916  1.0000
  C   C114      1.0  0.46318  0.02051  0.27983  1.0000
  C   C115      1.0  0.48430  0.01944  0.28425  1.0000
  C   C116      1.0  0.49429  0.00098  0.33702  1.0000
  C   C117      1.0  0.51548  0.00109  0.34316  1.0000
  C   C118      1.0  0.52585  0.02407  0.36085  1.0000
  C   C119      1.0  0.54684  0.02453  0.36395  1.0000
  C   C120      1.0  0.55816  0.00203  0.34948  1.0000
  H   H63       1.0  0.51821  0.04075  0.37191  1.0000
  H   H64       1.0  0.55369  0.04165  0.37639  1.0000
  H   H65       1.0  0.49246  0.03240  0.24782  1.0000
  N   N11       1.0  0.45381  0.03915  0.22484  1.0000
  O   O21       1.0  0.45825  0.03634  0.14320  1.0000
  O   O22       1.0  0.45845  0.06144  0.24853  1.0000
  C   C121      1.0  0.95169  0.50588  0.32863  1.0000
  C   C122      1.0  0.96275  0.52485  0.28120  1.0000
  C   C123      1.0  0.98390  0.52430  0.28407  1.0000
  C   C124      1.0  0.99433  0.50543  0.33313  1.0000
  C   C125      1.0  0.01553  0.50537  0.33570  1.0000
  C   C126      1.0  0.02622  0.52806  0.35427  1.0000
  C   C127      1.0  0.04723  0.52807  0.35595  1.0000
  C   C128      1.0  0.05818  0.50542  0.33914  1.0000
  H   H66       1.0  0.01881  0.54474  0.36794  1.0000
  H   H67       1.0  0.05436  0.54491  0.37008  1.0000
  H   H68       1.0  0.99174  0.53775  0.24845  1.0000
  N   N12       1.0  0.95289  0.54379  0.22936  1.0000
  O   O23       1.0  0.95729  0.54228  0.14724  1.0000
  O   O24       1.0  0.95689  0.56592  0.25695  1.0000
  C   C129      1.0  0.27960  0.26911  0.30005  1.0000
  C   C130      1.0  0.30057  0.26613  0.30519  1.0000
  H   H69       1.0  0.27407  0.28321  0.25933  1.0000
  H   H70       1.0  0.30944  0.27791  0.26719  1.0000
  C   C131      1.0  0.21564  0.28419  0.34674  1.0000
  C   C132      1.0  0.23648  0.28053  0.34715  1.0000
  H   H71       1.0  0.21070  0.30260  0.35141  1.0000
  H   H72       1.0  0.24546  0.29629  0.35299  1.0000
  C   C133      1.0  0.73114  0.74146  0.29937  1.0000
  C   C134      1.0  0.71018  0.74433  0.30578  1.0000
  H   H73       1.0  0.73660  0.72762  0.25735  1.0000
  H   H74       1.0  0.70124  0.73274  0.26744  1.0000
  C   C135      1.0  0.79512  0.72605  0.34363  1.0000
  C   C136      1.0  0.77429  0.72976  0.34468  1.0000
  H   H75       1.0  0.80001  0.70760  0.34731  1.0000
  H   H76       1.0  0.76529  0.71399  0.34998  1.0000
  C   C137      1.0  0.70148  0.24584  0.33048  1.0000
  C   C138      1.0  0.71459  0.22920  0.28231  1.0000
  C   C139      1.0  0.73564  0.23259  0.28772  1.0000
  C   C140      1.0  0.74443  0.25207  0.34045  1.0000
  C   C141      1.0  0.76585  0.25522  0.34377  1.0000
  C   C142      1.0  0.77940  0.23432  0.34825  1.0000
  C   C143      1.0  0.80041  0.23796  0.34911  1.0000
  C   C144      1.0  0.80891  0.26270  0.34521  1.0000
  H   H77       1.0  0.77403  0.21606  0.35238  1.0000
  H   H78       1.0  0.80949  0.22225  0.35311  1.0000
  H   H79       1.0  0.74464  0.22066  0.25108  1.0000
  N   N13       1.0  0.70662  0.20953  0.22725  1.0000
  O   O25       1.0  0.71123  0.21251  0.14587  1.0000
  O   O26       1.0  0.71243  0.18783  0.25242  1.0000
  C   C145      1.0  0.31023  0.76431  0.33127  1.0000
  C   C146      1.0  0.29699  0.78069  0.28272  1.0000
  C   C147      1.0  0.27596  0.77728  0.28927  1.0000
  C   C148      1.0  0.26730  0.75799  0.34334  1.0000
  C   C149      1.0  0.24587  0.75473  0.34728  1.0000
  C   C150      1.0  0.23225  0.77558  0.35023  1.0000
  C   C151      1.0  0.21125  0.77184  0.35107  1.0000
  C   C152      1.0  0.20281  0.74705  0.34869  1.0000
  H   H80       1.0  0.23756  0.79389  0.35295  1.0000
  H   H81       1.0  0.20212  0.78753  0.35359  1.0000
  H   H82       1.0  0.26686  0.78900  0.25223  1.0000
  N   N14       1.0  0.30480  0.80007  0.22595  1.0000
  O   O27       1.0  0.29992  0.79675  0.14504  1.0000
  O   O28       1.0  0.29920  0.82192  0.25038  1.0000
  C   C153      1.0  0.98758  0.14163  0.34513  1.0000
  N   N15       1.0  0.98825  0.11556  0.34518  1.0000
  C   C154      1.0  0.00575  0.10188  0.34381  1.0000
  N   N16       1.0  0.02319  0.11567  0.34224  1.0000
  C   C155      1.0  0.02372  0.14176  0.34196  1.0000
  N   N17       1.0  0.00562  0.15373  0.34348  1.0000
  C   C156      1.0  0.02386  0.86762  0.34540  1.0000
  N   N18       1.0  0.02300  0.89372  0.34406  1.0000
  C   C157      1.0  0.00539  0.90720  0.34185  1.0000
  N   N19       1.0  0.98814  0.89307  0.34146  1.0000
  C   C158      1.0  0.98774  0.86702  0.34237  1.0000
  N   N20       1.0  0.00591  0.85527  0.34429  1.0000
  C   C159      1.0  0.48787  0.64182  0.34323  1.0000
  N   N21       1.0  0.48847  0.61574  0.34339  1.0000
  C   C160      1.0  0.50594  0.60200  0.34177  1.0000
  N   N22       1.0  0.52342  0.61571  0.33978  1.0000
  C   C161      1.0  0.52400  0.64180  0.33926  1.0000
  N   N23       1.0  0.50594  0.65383  0.34110  1.0000
  C   C162      1.0  0.52348  0.36773  0.34462  1.0000
  N   N24       1.0  0.52268  0.39383  0.34300  1.0000
  C   C163      1.0  0.50510  0.40735  0.33996  1.0000
  N   N25       1.0  0.48782  0.39328  0.33884  1.0000
  C   C164      1.0  0.48738  0.36724  0.33969  1.0000
  N   N26       1.0  0.50552  0.35544  0.34261  1.0000
  C   C165      1.0  0.39901  0.98211  0.34716  1.0000
  N   N27       1.0  0.38947  0.00509  0.33728  1.0000
  C   C166      1.0  0.40007  0.02725  0.32574  1.0000
  N   N28       1.0  0.42033  0.02521  0.32344  1.0000
  C   C167      1.0  0.43043  0.00301  0.33085  1.0000
  N   N29       1.0  0.41934  0.98174  0.34349  1.0000
  C   C168      1.0  0.60976  0.02709  0.35380  1.0000
  N   N30       1.0  0.62041  0.00487  0.34356  1.0000
  C   C169      1.0  0.61093  0.98176  0.33516  1.0000
  N   N31       1.0  0.59061  0.98160  0.33867  1.0000
  C   C170      1.0  0.57939  0.00280  0.34923  1.0000
  N   N32       1.0  0.58950  0.02500  0.35597  1.0000
  C   C171      1.0  0.89995  0.48214  0.34645  1.0000
  N   N33       1.0  0.88947  0.50446  0.33595  1.0000
  C   C172      1.0  0.89916  0.52722  0.32258  1.0000
  N   N34       1.0  0.91948  0.52684  0.32113  1.0000
  C   C173      1.0  0.93047  0.50541  0.33002  1.0000
  N   N35       1.0  0.92024  0.48348  0.34257  1.0000
  C   C174      1.0  0.11034  0.52799  0.35345  1.0000
  N   N36       1.0  0.12043  0.50538  0.34284  1.0000
  C   C175      1.0  0.11036  0.48281  0.33100  1.0000
  N   N37       1.0  0.09005  0.48376  0.33095  1.0000
  C   C176      1.0  0.07940  0.50547  0.34048  1.0000
  N   N38       1.0  0.09003  0.52715  0.35124  1.0000
  C   C177      1.0  0.14588  0.25636  0.34843  1.0000
  N   N39       1.0  0.16583  0.24994  0.34646  1.0000
  C   C178      1.0  0.18064  0.26806  0.34150  1.0000
  N   N40       1.0  0.17451  0.29274  0.33726  1.0000
  C   C179      1.0  0.15523  0.30051  0.33695  1.0000
  N   N41       1.0  0.14128  0.28170  0.34323  1.0000
  C   C180      1.0  0.86498  0.75338  0.34511  1.0000
  N   N42       1.0  0.84508  0.76001  0.34380  1.0000
  C   C181      1.0  0.83014  0.74205  0.33836  1.0000
  N   N43       1.0  0.83614  0.71734  0.33294  1.0000
  C   C182      1.0  0.85535  0.70938  0.33188  1.0000
  N   N44       1.0  0.86944  0.72800  0.33878  1.0000
  C   C183      1.0  0.86493  0.25542  0.33924  1.0000
  N   N45       1.0  0.84497  0.24904  0.34100  1.0000
  C   C184      1.0  0.83018  0.26720  0.34616  1.0000
  N   N46       1.0  0.83635  0.29186  0.35091  1.0000
  C   C185      1.0  0.85564  0.29957  0.35146  1.0000
  N   N47       1.0  0.86958  0.28074  0.34486  1.0000
  C   C186      1.0  0.14678  0.75425  0.34090  1.0000
  N   N48       1.0  0.16673  0.76062  0.34350  1.0000
  C   C187      1.0  0.18154  0.74248  0.34885  1.0000
  N   N49       1.0  0.17537  0.71779  0.35270  1.0000
  C   C188      1.0  0.15608  0.71005  0.35234  1.0000
  N   N50       1.0  0.14216  0.72890  0.34580  1.0000
  C   C189      1.0  0.64589  0.75672  0.34845  1.0000
  N   N51       1.0  0.66580  0.75032  0.35347  1.0000
  C   C190      1.0  0.68055  0.76858  0.35462  1.0000
  N   N52       1.0  0.67487  0.79338  0.34805  1.0000
  C   C191      1.0  0.65551  0.80047  0.34123  1.0000
  N   N53       1.0  0.64131  0.78201  0.34114  1.0000
  C   C192      1.0  0.36493  0.25314  0.34398  1.0000
  N   N54       1.0  0.34506  0.25961  0.35031  1.0000
  C   C193      1.0  0.33026  0.24141  0.35023  1.0000
  N   N55       1.0  0.33586  0.21665  0.34086  1.0000
  C   C194      1.0  0.35517  0.20939  0.33226  1.0000
  N   N56       1.0  0.36935  0.22790  0.33409  1.0000
  C   C195      1.0  0.36600  0.75678  0.33513  1.0000
  N   N57       1.0  0.34602  0.75056  0.33339  1.0000
  C   C196      1.0  0.33135  0.76894  0.33496  1.0000
  N   N58       1.0  0.33723  0.79369  0.34116  1.0000
  C   C197      1.0  0.35668  0.80056  0.34435  1.0000
  N   N59       1.0  0.37080  0.78203  0.34130  1.0000
  C   C198      1.0  0.64578  0.25327  0.34080  1.0000
  N   N60       1.0  0.66571  0.25952  0.33541  1.0000
  C   C199      1.0  0.68040  0.24118  0.33624  1.0000
  N   N61       1.0  0.67461  0.21647  0.34548  1.0000
  C   C200      1.0  0.65523  0.20935  0.35326  1.0000
  N   N62       1.0  0.64121  0.22806  0.35049  1.0000
  C   C201      1.0  0.02206  0.97595  0.37261  1.0000
  C   C202      1.0  0.02181  0.94896  0.37125  1.0000
  H   H83       1.0  0.03448  0.98476  0.39834  1.0000
  H   H84       1.0  0.03414  0.93961  0.39556  1.0000
  C   C203      1.0  0.02348  0.05993  0.32871  1.0000
  C   C204      1.0  0.02343  0.03291  0.32817  1.0000
  H   H85       1.0  0.03674  0.06907  0.31624  1.0000
  H   H86       1.0  0.03662  0.02380  0.31417  1.0000
  C   C205      1.0  0.52190  0.47603  0.37108  1.0000
  C   C206      1.0  0.52158  0.44905  0.36976  1.0000
  H   H87       1.0  0.53431  0.48481  0.39706  1.0000
  H   H88       1.0  0.53387  0.43966  0.39429  1.0000
  C   C207      1.0  0.52357  0.55998  0.32681  1.0000
  C   C208      1.0  0.52345  0.53296  0.32635  1.0000
  H   H89       1.0  0.53685  0.56906  0.31441  1.0000
  H   H90       1.0  0.53661  0.52379  0.31242  1.0000
  C   C209      1.0  0.12973  0.23823  0.35529  1.0000
  C   C210      1.0  0.11182  0.24379  0.40381  1.0000
  C   C211      1.0  0.09546  0.22649  0.40165  1.0000
  C   C212      1.0  0.09581  0.20348  0.35154  1.0000
  C   C213      1.0  0.07815  0.18752  0.34566  1.0000
  C   C214      1.0  0.05887  0.19859  0.33720  1.0000
  C   C215      1.0  0.04133  0.18362  0.33525  1.0000
  C   C216      1.0  0.04193  0.15658  0.34121  1.0000
  H   H91       1.0  0.05731  0.21797  0.33168  1.0000
  H   H92       1.0  0.02795  0.19301  0.32959  1.0000
  H   H93       1.0  0.08292  0.23105  0.43791  1.0000
  N   N63       1.0  0.11035  0.26642  0.45591  1.0000
  O   O29       1.0  0.10800  0.26165  0.53818  1.0000
  O   O30       1.0  0.09619  0.28041  0.42972  1.0000
  C   C217      1.0  0.88126  0.77128  0.35251  1.0000
  C   C218      1.0  0.89909  0.76544  0.40127  1.0000
  C   C219      1.0  0.91559  0.78254  0.39964  1.0000
  C   C220      1.0  0.91546  0.80560  0.34981  1.0000
  C   C221      1.0  0.93322  0.82143  0.34477  1.0000
  C   C222      1.0  0.95251  0.81028  0.33782  1.0000
  C   C223      1.0  0.97010  0.82516  0.33651  1.0000
  C   C224      1.0  0.96953  0.85221  0.34160  1.0000
  H   H94       1.0  0.95404  0.79088  0.33284  1.0000
  H   H95       1.0  0.98349  0.81574  0.33185  1.0000
  H   H96       1.0  0.92804  0.77779  0.43618  1.0000
  N   N64       1.0  0.90032  0.74273  0.45305  1.0000
  O   O31       1.0  0.90265  0.74738  0.53542  1.0000
  O   O32       1.0  0.91438  0.72858  0.42686  1.0000
  C   C225      1.0  0.89702  0.19694  0.38062  1.0000
  C   C226      1.0  0.88038  0.21371  0.37857  1.0000
  H   H97       1.0  0.89603  0.18077  0.41906  1.0000
  H   H98       1.0  0.86801  0.20907  0.41583  1.0000
  C   C227      1.0  0.95003  0.14498  0.34030  1.0000
  C   C228      1.0  0.93231  0.15989  0.33842  1.0000
  H   H99       1.0  0.94869  0.12555  0.33600  1.0000
  H   H100      1.0  0.91887  0.15070  0.33182  1.0000
  C   C229      1.0  0.11463  0.81270  0.38222  1.0000
  C   C230      1.0  0.13126  0.79593  0.38038  1.0000
  H   H101      1.0  0.11558  0.82886  0.42075  1.0000
  H   H102      1.0  0.14362  0.80058  0.41775  1.0000
  C   C231      1.0  0.06145  0.86452  0.34084  1.0000
  C   C232      1.0  0.07923  0.84971  0.33932  1.0000
  H   H103      1.0  0.06272  0.88395  0.33623  1.0000
  H   H104      1.0  0.09264  0.85896  0.33255  1.0000
  C   C233      1.0  0.62969  0.73867  0.35318  1.0000
  C   C234      1.0  0.61155  0.74440  0.39967  1.0000
  C   C235      1.0  0.59522  0.72708  0.39673  1.0000
  C   C236      1.0  0.59588  0.70382  0.34810  1.0000
  C   C237      1.0  0.57831  0.68773  0.34193  1.0000
  C   C238      1.0  0.55903  0.69866  0.33128  1.0000
  C   C239      1.0  0.54155  0.68362  0.32961  1.0000
  C   C240      1.0  0.54219  0.65664  0.33795  1.0000
  H   H105      1.0  0.55745  0.71800  0.32411  1.0000
  H   H106      1.0  0.52816  0.69292  0.32238  1.0000
  H   H107      1.0  0.58252  0.73175  0.43163  1.0000
  N   N65       1.0  0.60986  0.76720  0.45076  1.0000
  O   O33       1.0  0.60693  0.76275  0.53288  1.0000
  O   O34       1.0  0.59605  0.78133  0.42192  1.0000
  C   C241      1.0  0.38128  0.27096  0.34957  1.0000
  C   C242      1.0  0.39952  0.26465  0.39429  1.0000
  C   C243      1.0  0.41597  0.28179  0.39200  1.0000
  C   C244      1.0  0.41536  0.30541  0.34556  1.0000
  C   C245      1.0  0.43301  0.32142  0.34026  1.0000
  C   C246      1.0  0.45230  0.31047  0.32951  1.0000
  C   C247      1.0  0.46982  0.32545  0.32877  1.0000
  C   C248      1.0  0.46920  0.35240  0.33799  1.0000
  H   H108      1.0  0.45386  0.29115  0.32153  1.0000
  H   H109      1.0  0.48321  0.31617  0.32134  1.0000
  H   H110      1.0  0.42872  0.27670  0.42582  1.0000
  N   N66       1.0  0.40121  0.24142  0.44294  1.0000
  O   O35       1.0  0.40449  0.24515  0.52524  1.0000
  O   O36       1.0  0.41479  0.22735  0.41156  1.0000
  C   C249      1.0  0.39764  0.69801  0.37801  1.0000
  C   C250      1.0  0.38111  0.71494  0.37548  1.0000
  H   H111      1.0  0.39646  0.68179  0.41610  1.0000
  H   H112      1.0  0.36861  0.71038  0.41199  1.0000
  C   C251      1.0  0.45035  0.64553  0.33784  1.0000
  C   C252      1.0  0.43274  0.66063  0.33597  1.0000
  H   H113      1.0  0.44890  0.62613  0.33270  1.0000
  H   H114      1.0  0.41924  0.65161  0.32858  1.0000
  C   C253      1.0  0.61424  0.31249  0.37847  1.0000
  C   C254      1.0  0.63079  0.29558  0.37635  1.0000
  H   H115      1.0  0.61570  0.32930  0.41300  1.0000
  H   H116      1.0  0.64361  0.30078  0.40945  1.0000
  C   C255      1.0  0.56101  0.36416  0.33651  1.0000
  C   C256      1.0  0.57866  0.34911  0.33543  1.0000
  H   H117      1.0  0.56235  0.38346  0.32747  1.0000
  H   H118      1.0  0.59207  0.35805  0.32466  1.0000
  C   C257      1.0  0.35604  0.13909  0.37725  1.0000
  C   C258      1.0  0.35107  0.16517  0.38195  1.0000
  H   H119      1.0  0.35004  0.12698  0.42413  1.0000
  H   H120      1.0  0.34144  0.17104  0.43147  1.0000
  C   C259      1.0  0.37113  0.05758  0.33203  1.0000
  C   C260      1.0  0.36371  0.08287  0.32935  1.0000
  H   H121      1.0  0.36134  0.04300  0.34495  1.0000
  H   H122      1.0  0.34870  0.08574  0.33901  1.0000
  C   C261      1.0  0.65080  0.86942  0.40071  1.0000
  C   C262      1.0  0.65534  0.84321  0.40599  1.0000
  H   H123      1.0  0.65338  0.88053  0.45620  1.0000
  H   H124      1.0  0.66141  0.83621  0.46435  1.0000
  C   C263      1.0  0.63932  0.95171  0.36055  1.0000
  C   C264      1.0  0.64678  0.92644  0.35897  1.0000
  H   H125      1.0  0.64740  0.96553  0.39308  1.0000
  H   H126      1.0  0.66036  0.92290  0.38828  1.0000
  C   C265      1.0  0.65009  0.18313  0.36126  1.0000
  C   C266      1.0  0.63503  0.17458  0.42159  1.0000
  C   C267      1.0  0.63035  0.14823  0.42547  1.0000
  C   C268      1.0  0.63983  0.12995  0.36936  1.0000
  C   C269      1.0  0.63306  0.10397  0.36695  1.0000
  C   C270      1.0  0.61230  0.09884  0.36958  1.0000
  C   C271      1.0  0.60499  0.07380  0.36642  1.0000
  C   C272      1.0  0.61794  0.05236  0.35918  1.0000
  H   H127      1.0  0.60207  0.11340  0.37193  1.0000
  H   H128      1.0  0.58976  0.07170  0.36832  1.0000
  H   H129      1.0  0.61958  0.14244  0.47009  1.0000
  N   N67       1.0  0.62513  0.19229  0.47843  1.0000
  O   O37       1.0  0.62797  0.18733  0.56024  1.0000
  O   O38       1.0  0.60661  0.19275  0.46346  1.0000
  C   C273      1.0  0.36162  0.82663  0.34998  1.0000
  C   C274      1.0  0.36417  0.83878  0.43442  1.0000
  C   C275      1.0  0.36817  0.86534  0.43674  1.0000
  C   C276      1.0  0.36953  0.88015  0.35713  1.0000
  C   C277      1.0  0.37517  0.90648  0.36071  1.0000
  C   C278      1.0  0.39157  0.91404  0.41477  1.0000
  C   C279      1.0  0.39858  0.93929  0.41360  1.0000
  C   C280      1.0  0.38943  0.95814  0.35889  1.0000
  H   H130      1.0  0.39933  0.90090  0.45208  1.0000
  H   H131      1.0  0.41100  0.94356  0.45122  1.0000
  H   H132      1.0  0.37001  0.87393  0.49812  1.0000
  N   N68       1.0  0.36267  0.82421  0.51452  1.0000
  O   O39       1.0  0.34871  0.83217  0.56389  1.0000
  O   O40       1.0  0.37873  0.82479  0.55861  1.0000
  C   C281      1.0  0.88371  0.64806  0.36223  1.0000
  C   C282      1.0  0.87857  0.67409  0.36239  1.0000
  H   H133      1.0  0.89740  0.64275  0.38718  1.0000
  H   H134      1.0  0.88870  0.68671  0.38870  1.0000
  C   C283      1.0  0.87165  0.55781  0.35662  1.0000
  C   C284      1.0  0.86474  0.58330  0.35988  1.0000
  H   H135      1.0  0.86369  0.54399  0.38974  1.0000
  H   H136      1.0  0.85181  0.58726  0.39425  1.0000
  C   C285      1.0  0.12611  0.36124  0.36791  1.0000
  C   C286      1.0  0.13158  0.33532  0.36764  1.0000
  H   H137      1.0  0.11234  0.36616  0.39287  1.0000
  H   H138      1.0  0.12156  0.32245  0.39331  1.0000
  C   C287      1.0  0.13819  0.45213  0.35881  1.0000
  C   C288      1.0  0.14514  0.42665  0.36147  1.0000
  H   H139      1.0  0.14679  0.46615  0.38732  1.0000
  H   H140      1.0  0.15868  0.42296  0.39112  1.0000
  C   C289      1.0  0.15113  0.68341  0.35464  1.0000
  C   C290      1.0  0.16445  0.66418  0.38743  1.0000
  C   C291      1.0  0.15859  0.63814  0.38618  1.0000
  C   C292      1.0  0.13968  0.63042  0.35380  1.0000
  C   C293      1.0  0.13347  0.60438  0.35881  1.0000
  C   C294      1.0  0.11473  0.59836  0.39731  1.0000
  C   C295      1.0  0.10780  0.57310  0.39945  1.0000
  C   C296      1.0  0.11916  0.55269  0.36259  1.0000
  H   H141      1.0  0.10579  0.61241  0.42361  1.0000
  H   H142      1.0  0.09392  0.56998  0.42664  1.0000
  H   H143      1.0  0.16811  0.62471  0.41234  1.0000
  N   N69       1.0  0.18331  0.67078  0.42461  1.0000
  O   O41       1.0  0.19748  0.66016  0.38323  1.0000
  O   O42       1.0  0.18444  0.66502  0.50663  1.0000
  C   C297      1.0  0.86053  0.32619  0.35427  1.0000
  C   C298      1.0  0.84731  0.34520  0.38934  1.0000
  C   C299      1.0  0.85299  0.37131  0.38770  1.0000
  C   C300      1.0  0.87161  0.37926  0.35270  1.0000
  C   C301      1.0  0.87762  0.40539  0.35652  1.0000
  C   C302      1.0  0.89661  0.41173  0.39175  1.0000
  C   C303      1.0  0.90334  0.43709  0.39227  1.0000
  C   C304      1.0  0.89150  0.45728  0.35703  1.0000
  H   H144      1.0  0.90589  0.39785  0.41673  1.0000
  H   H145      1.0  0.91739  0.44044  0.41717  1.0000
  H   H146      1.0  0.84356  0.38460  0.41532  1.0000
  N   N70       1.0  0.82879  0.33829  0.42910  1.0000
  O   O43       1.0  0.81424  0.34879  0.39006  1.0000
  O   O44       1.0  0.82821  0.34392  0.51135  1.0000
  C   C305      1.0  0.48274  0.98279  0.38402  1.0000
  C   C306      1.0  0.46176  0.98346  0.37989  1.0000
  H   H147      1.0  0.48948  0.96934  0.42389  1.0000
  H   H148      1.0  0.45395  0.97037  0.41721  1.0000
  C   C307      1.0  0.54768  0.97896  0.33325  1.0000
  C   C308      1.0  0.52665  0.97848  0.33023  1.0000
  H   H149      1.0  0.55520  0.96225  0.32180  1.0000
  H   H150      1.0  0.51962  0.96158  0.31602  1.0000
  C   C309      1.0  0.98324  0.48664  0.37942  1.0000
  C   C310      1.0  0.96227  0.48685  0.37695  1.0000
  H   H151      1.0  0.99031  0.47292  0.41688  1.0000
  H   H152      1.0  0.95483  0.47316  0.41311  1.0000
  C   C311      1.0  0.04738  0.48273  0.32081  1.0000
  C   C312      1.0  0.02637  0.48269  0.31912  1.0000
  H   H153      1.0  0.05463  0.46592  0.30765  1.0000
  H   H154      1.0  0.01910  0.46602  0.30401  1.0000
  C   C313      1.0  0.30923  0.24627  0.35654  1.0000
  C   C314      1.0  0.29612  0.22981  0.40540  1.0000
  C   C315      1.0  0.27508  0.23325  0.40001  1.0000
  C   C316      1.0  0.26632  0.25259  0.34657  1.0000
  C   C317      1.0  0.24491  0.25581  0.34327  1.0000
  C   C318      1.0  0.23132  0.23496  0.33942  1.0000
  C   C319      1.0  0.21032  0.23868  0.33869  1.0000
  C   C320      1.0  0.20189  0.26348  0.34213  1.0000
  H   H155      1.0  0.23664  0.21666  0.33579  1.0000
  H   H156      1.0  0.20120  0.22301  0.33526  1.0000
  H   H157      1.0  0.26606  0.22145  0.43712  1.0000
  N   N71       1.0  0.30409  0.21027  0.46101  1.0000
  O   O45       1.0  0.29948  0.21342  0.54231  1.0000
  O   O46       1.0  0.29831  0.18850  0.43640  1.0000
  C   C321      1.0  0.70161  0.76379  0.35931  1.0000
  C   C322      1.0  0.71481  0.78000  0.40879  1.0000
  C   C323      1.0  0.73584  0.77671  0.40191  1.0000
  C   C324      1.0  0.74450  0.75773  0.34657  1.0000
  C   C325      1.0  0.76589  0.75451  0.34231  1.0000
  C   C326      1.0  0.77951  0.77534  0.33927  1.0000
  C   C327      1.0  0.80051  0.77156  0.33777  1.0000
  C   C328      1.0  0.80890  0.74673  0.33971  1.0000
  H   H158      1.0  0.77421  0.79366  0.33685  1.0000
  H   H159      1.0  0.80966  0.78721  0.33498  1.0000
  H   H160      1.0  0.74494  0.78829  0.43951  1.0000
  N   N72       1.0  0.70692  0.79909  0.46652  1.0000
  O   O47       1.0  0.71182  0.79546  0.54724  1.0000
  O   O48       1.0  0.71247  0.82108  0.44326  1.0000
  C   C329      1.0  0.73115  0.26877  0.38623  1.0000
  C   C330      1.0  0.71018  0.26583  0.38110  1.0000
  H   H161      1.0  0.73669  0.28300  0.42638  1.0000
  H   H162      1.0  0.70132  0.27779  0.41837  1.0000
  C   C331      1.0  0.79522  0.28346  0.33987  1.0000
  C   C332      1.0  0.77436  0.27989  0.33929  1.0000
  H   H163      1.0  0.80021  0.30185  0.33485  1.0000
  H   H164      1.0  0.76543  0.29568  0.33306  1.0000
  C   C333      1.0  0.28071  0.74154  0.38947  1.0000
  C   C334      1.0  0.30167  0.74451  0.38330  1.0000
  H   H165      1.0  0.27528  0.72746  0.43054  1.0000
  H   H166      1.0  0.31064  0.73273  0.42078  1.0000
  C   C335      1.0  0.21657  0.72633  0.34532  1.0000
  C   C336      1.0  0.23743  0.73001  0.34478  1.0000
  H   H167      1.0  0.21164  0.70790  0.34165  1.0000
  H   H168      1.0  0.24640  0.71422  0.33969  1.0000
