data_image0
_chemical_formula_structural       C3HCHCHC3NHC4H4C3HCH3C3HCHCHC3NHC4H4C3HCH4C2H4CH3CH2CNH2C3NH2C2H2C2H2CHCH3C2H4CH3CH2CNH2C3NH2C2H2C2H2CHCH2C3HC7H2C4H2C3NC2H2C3NHC5H3CH3C4H3C3HC7H2C4H2C3NC2H2C3NHC5H3CH3C4H3C3H3C2H2C2H2C3NH3C5H3CH3C5H3CH3C3H3C2H2C2H2C3NH3C5H3CH3C5H3CH3C3HC3H3C3HC3H3C3HC3H3C2H2C2H2C2H2C2H2C2H2C2H2C3NC3NH4C3NC3NH4C3NC3NH4C5H3CH3C5H3CH3C5H3CH3C5H3CH3C5H3CH3C5H3CH3C3HC3H3C3HC3H3C3HC3H3C2H2C2H2C2H2C2H2C2H2C2H2C3NC3NH4C3NC3NH4C3NC3NH4C5H3CH3C5H3CH3C5H3CH3C5H3CH3C5H3CH3C5H3CH3
_chemical_formula_sum              "C336 H288 N24"
_cell_length_a       46.6054
_cell_length_b       46.6055
_cell_length_c       14.7994
_cell_angle_alpha    90
_cell_angle_beta     90
_cell_angle_gamma    120

_space_group_name_H-M_alt    "P 1"
_space_group_IT_number       1

loop_
  _space_group_symop_operation_xyz
  'x, y, z'

loop_
  _atom_site_type_symbol
  _atom_site_label
  _atom_site_symmetry_multiplicity
  _atom_site_fract_x
  _atom_site_fract_y
  _atom_site_fract_z
  _atom_site_occupancy
  C   C1        1.0  0.02877  0.26617  0.32659  1.0000
  C   C2        1.0  0.08351  0.31970  0.32325  1.0000
  C   C3        1.0  0.04834  0.30154  0.32471  1.0000
  H   H1        1.0  0.03714  0.31550  0.32719  1.0000
  C   C4        1.0  0.11965  0.25007  0.25633  1.0000
  H   H2        1.0  0.11499  0.25737  0.19532  1.0000
  C   C5        1.0  0.11926  0.37245  0.25215  1.0000
  H   H3        1.0  0.11449  0.36050  0.19112  1.0000
  C   C6        1.0  0.04798  0.24993  0.32816  1.0000
  C   C7        1.0  0.08323  0.26656  0.32711  1.0000
  C   C8        1.0  0.10122  0.30199  0.32399  1.0000
  N   N1        1.0  0.13516  0.31890  0.32516  1.0000
  H   H4        1.0  0.03638  0.22476  0.33194  1.0000
  C   C9        1.0  0.10046  0.24834  0.33269  1.0000
  C   C10       1.0  0.10986  0.24103  0.41813  1.0000
  C   C11       1.0  0.13983  0.23943  0.42626  1.0000
  C   C12       1.0  0.09026  0.23789  0.50141  1.0000
  H   H5        1.0  0.06780  0.23891  0.48880  1.0000
  H   H6        1.0  0.10538  0.25784  0.54844  1.0000
  H   H7        1.0  0.08248  0.21413  0.53405  1.0000
  H   H8        1.0  0.13087  0.20859  0.54123  1.0000
  C   C13       1.0  0.10069  0.35509  0.32927  1.0000
  C   C14       1.0  0.13993  0.40337  0.42232  1.0000
  C   C15       1.0  0.11021  0.37163  0.41483  1.0000
  H   H9        1.0  0.13135  0.42473  0.53909  1.0000
  C   C16       1.0  0.09110  0.35494  0.49859  1.0000
  H   H10       1.0  0.06879  0.33129  0.48641  1.0000
  H   H11       1.0  0.08316  0.37065  0.53206  1.0000
  H   H12       1.0  0.10664  0.35037  0.54474  1.0000
  C   C17       1.0  0.02877  0.76617  0.32659  1.0000
  C   C18       1.0  0.08350  0.81970  0.32325  1.0000
  C   C19       1.0  0.04834  0.80154  0.32471  1.0000
  H   H13       1.0  0.03714  0.81550  0.32719  1.0000
  C   C20       1.0  0.11965  0.75008  0.25633  1.0000
  H   H14       1.0  0.11499  0.75737  0.19532  1.0000
  C   C21       1.0  0.11926  0.87245  0.25215  1.0000
  H   H15       1.0  0.11449  0.86050  0.19112  1.0000
  C   C22       1.0  0.04798  0.74993  0.32816  1.0000
  C   C23       1.0  0.08323  0.76656  0.32711  1.0000
  C   C24       1.0  0.10122  0.80199  0.32399  1.0000
  N   N2        1.0  0.13516  0.81890  0.32516  1.0000
  H   H16       1.0  0.03638  0.72476  0.33194  1.0000
  C   C25       1.0  0.10046  0.74834  0.33269  1.0000
  C   C26       1.0  0.10986  0.74103  0.41813  1.0000
  C   C27       1.0  0.13983  0.73943  0.42626  1.0000
  C   C28       1.0  0.09026  0.73789  0.50141  1.0000
  H   H17       1.0  0.06780  0.73891  0.48880  1.0000
  H   H18       1.0  0.10538  0.75784  0.54844  1.0000
  H   H19       1.0  0.08248  0.71413  0.53405  1.0000
  H   H20       1.0  0.13087  0.70859  0.54123  1.0000
  C   C29       1.0  0.10069  0.85509  0.32927  1.0000
  C   C30       1.0  0.13993  0.90337  0.42232  1.0000
  C   C31       1.0  0.11021  0.87163  0.41483  1.0000
  H   H21       1.0  0.13135  0.92473  0.53909  1.0000
  C   C32       1.0  0.09110  0.85494  0.49859  1.0000
  H   H22       1.0  0.06879  0.83129  0.48641  1.0000
  H   H23       1.0  0.08316  0.87065  0.53206  1.0000
  H   H24       1.0  0.10664  0.85037  0.54474  1.0000
  H   H25       1.0  0.14816  0.34254  0.31884  1.0000
  C   C33       1.0  0.19698  0.26417  0.36041  1.0000
  C   C34       1.0  0.21547  0.24868  0.33575  1.0000
  H   H26       1.0  0.20183  0.22422  0.31950  1.0000
  H   H27       1.0  0.17735  0.30134  0.44836  1.0000
  H   H28       1.0  0.22747  0.03317  0.32249  1.0000
  H   H29       1.0  0.21219  0.37993  0.44426  1.0000
  C   C35       1.0  0.14990  0.25045  0.26553  1.0000
  H   H30       1.0  0.16537  0.25783  0.21058  1.0000
  H   H31       1.0  0.23938  0.34536  0.22700  1.0000
  H   H32       1.0  0.23975  0.39581  0.22377  1.0000
  C   C36       1.0  0.14941  0.40240  0.26084  1.0000
  H   H33       1.0  0.16475  0.41063  0.20560  1.0000
  H   H34       1.0  0.14815  0.30816  0.32845  1.0000
  C   C37       1.0  0.21485  0.29831  0.38508  1.0000
  N   N3        1.0  0.19996  0.31336  0.42787  1.0000
  H   H35       1.0  0.21357  0.33368  0.46057  1.0000
  H   H36       1.0  0.22849  0.19821  0.33204  1.0000
  C   C38       1.0  0.21493  0.46960  0.33391  1.0000
  C   C39       1.0  0.19659  0.43539  0.35518  1.0000
  C   C40       1.0  0.21439  0.41881  0.37695  1.0000
  N   N4        1.0  0.19913  0.38827  0.41648  1.0000
  H   H37       1.0  0.17663  0.37777  0.43796  1.0000
  H   H38       1.0  0.20115  0.48060  0.32182  1.0000
  C   C41       1.0  0.16168  0.24729  0.35088  1.0000
  C   C42       1.0  0.15023  0.23241  0.51544  1.0000
  H   H39       1.0  0.17277  0.23083  0.51148  1.0000
  H   H40       1.0  0.15458  0.25176  0.56407  1.0000
  C   C43       1.0  0.16133  0.41731  0.34612  1.0000
  C   C44       1.0  0.15076  0.42070  0.51151  1.0000
  H   H41       1.0  0.17302  0.44502  0.50693  1.0000
  H   H42       1.0  0.15578  0.40585  0.55898  1.0000
  C   C45       1.0  0.24132  0.15780  0.50113  1.0000
  H   H43       1.0  0.21734  0.14181  0.53268  1.0000
  C   C46       1.0  0.23561  0.09221  0.51381  1.0000
  H   H44       1.0  0.23384  0.06802  0.50920  1.0000
  H   H45       1.0  0.21181  0.08784  0.53943  1.0000
  H   H46       1.0  0.14815  0.84254  0.31884  1.0000
  C   C47       1.0  0.19698  0.76417  0.36041  1.0000
  C   C48       1.0  0.21546  0.74868  0.33575  1.0000
  H   H47       1.0  0.20183  0.72421  0.31950  1.0000
  H   H48       1.0  0.17735  0.80134  0.44836  1.0000
  H   H49       1.0  0.22747  0.53317  0.32249  1.0000
  H   H50       1.0  0.21219  0.87993  0.44426  1.0000
  C   C49       1.0  0.14990  0.75045  0.26553  1.0000
  H   H51       1.0  0.16537  0.75783  0.21058  1.0000
  H   H52       1.0  0.23939  0.84536  0.22700  1.0000
  H   H53       1.0  0.23975  0.89581  0.22377  1.0000
  C   C50       1.0  0.14942  0.90240  0.26084  1.0000
  H   H54       1.0  0.16475  0.91063  0.20560  1.0000
  H   H55       1.0  0.14815  0.80816  0.32845  1.0000
  C   C51       1.0  0.21485  0.79831  0.38508  1.0000
  N   N5        1.0  0.19996  0.81336  0.42787  1.0000
  H   H56       1.0  0.21357  0.83368  0.46057  1.0000
  H   H57       1.0  0.22849  0.69821  0.33204  1.0000
  C   C52       1.0  0.21492  0.96960  0.33391  1.0000
  C   C53       1.0  0.19659  0.93539  0.35518  1.0000
  C   C54       1.0  0.21439  0.91881  0.37695  1.0000
  N   N6        1.0  0.19913  0.88827  0.41648  1.0000
  H   H58       1.0  0.17663  0.87777  0.43796  1.0000
  H   H59       1.0  0.20115  0.98060  0.32182  1.0000
  C   C55       1.0  0.16168  0.74729  0.35088  1.0000
  C   C56       1.0  0.15023  0.73241  0.51544  1.0000
  H   H60       1.0  0.17277  0.73082  0.51148  1.0000
  H   H61       1.0  0.15458  0.75176  0.56407  1.0000
  C   C57       1.0  0.16134  0.91731  0.34612  1.0000
  C   C58       1.0  0.15076  0.92070  0.51151  1.0000
  H   H62       1.0  0.17302  0.94502  0.50693  1.0000
  H   H63       1.0  0.15578  0.90585  0.55898  1.0000
  C   C59       1.0  0.24132  0.65780  0.50113  1.0000
  H   H64       1.0  0.21734  0.64180  0.53268  1.0000
  C   C60       1.0  0.23561  0.59221  0.51381  1.0000
  H   H65       1.0  0.23384  0.56802  0.50920  1.0000
  H   H66       1.0  0.21181  0.58784  0.53943  1.0000
  C   C61       1.0  0.26944  0.24752  0.32901  1.0000
  C   C62       1.0  0.30490  0.26380  0.32866  1.0000
  C   C63       1.0  0.32352  0.24719  0.32736  1.0000
  H   H67       1.0  0.31848  0.28899  0.33095  1.0000
  C   C64       1.0  0.25097  0.26503  0.33601  1.0000
  C   C65       1.0  0.26838  0.02481  0.33626  1.0000
  C   C66       1.0  0.25217  0.04404  0.33566  1.0000
  C   C67       1.0  0.26796  0.07806  0.35914  1.0000
  C   C68       1.0  0.25037  0.48880  0.33537  1.0000
  C   C69       1.0  0.24906  0.43471  0.35870  1.0000
  C   C70       1.0  0.26620  0.46926  0.34025  1.0000
  H   H68       1.0  0.29116  0.48004  0.33141  1.0000
  H   H69       1.0  0.30518  0.13477  0.44631  1.0000
  C   C71       1.0  0.25240  0.39233  0.27539  1.0000
  C   C72       1.0  0.25210  0.36209  0.27736  1.0000
  C   C73       1.0  0.25466  0.11158  0.26432  1.0000
  C   C74       1.0  0.25449  0.14153  0.25572  1.0000
  H   H70       1.0  0.26209  0.15375  0.19514  1.0000
  H   H71       1.0  0.26225  0.10364  0.20945  1.0000
  C   C75       1.0  0.30610  0.21175  0.32680  1.0000
  C   C76       1.0  0.27067  0.19401  0.32782  1.0000
  C   C77       1.0  0.25364  0.21215  0.32871  1.0000
  N   N7        1.0  0.32316  0.19488  0.32885  1.0000
  C   C78       1.0  0.26648  0.30036  0.34185  1.0000
  C   C79       1.0  0.24936  0.31736  0.36504  1.0000
  H   H72       1.0  0.31248  0.17113  0.32866  1.0000
  H   H73       1.0  0.29118  0.31487  0.32943  1.0000
  C   C80       1.0  0.30221  0.09439  0.38221  1.0000
  C   C81       1.0  0.32106  0.07872  0.36238  1.0000
  C   C82       1.0  0.30375  0.04435  0.34157  1.0000
  N   N8        1.0  0.31731  0.12446  0.42435  1.0000
  H   H74       1.0  0.31798  0.03371  0.33111  1.0000
  C   C83       1.0  0.26450  0.41492  0.34853  1.0000
  C   C84       1.0  0.26410  0.35241  0.35237  1.0000
  C   C85       1.0  0.27907  0.37592  0.42416  1.0000
  C   C86       1.0  0.27915  0.40695  0.42241  1.0000
  C   C87       1.0  0.29202  0.36673  0.50508  1.0000
  H   H75       1.0  0.29159  0.34325  0.49794  1.0000
  H   H76       1.0  0.27729  0.36481  0.56445  1.0000
  H   H77       1.0  0.31778  0.38556  0.51710  1.0000
  C   C88       1.0  0.29185  0.42973  0.50208  1.0000
  H   H78       1.0  0.29146  0.45271  0.49281  1.0000
  H   H79       1.0  0.31758  0.43676  0.51531  1.0000
  H   H80       1.0  0.27693  0.41740  0.56158  1.0000
  C   C89       1.0  0.25106  0.09638  0.34941  1.0000
  C   C90       1.0  0.25255  0.15861  0.33259  1.0000
  C   C91       1.0  0.24475  0.14162  0.41762  1.0000
  C   C92       1.0  0.24294  0.10997  0.42511  1.0000
  H   H81       1.0  0.24263  0.18144  0.48907  1.0000
  H   H82       1.0  0.26096  0.16224  0.54888  1.0000
  H   H83       1.0  0.25492  0.10694  0.56285  1.0000
  C   C93       1.0  0.26944  0.74752  0.32901  1.0000
  C   C94       1.0  0.30490  0.76380  0.32866  1.0000
  C   C95       1.0  0.32352  0.74719  0.32736  1.0000
  H   H84       1.0  0.31848  0.78899  0.33095  1.0000
  C   C96       1.0  0.25097  0.76503  0.33601  1.0000
  C   C97       1.0  0.26838  0.52481  0.33626  1.0000
  C   C98       1.0  0.25217  0.54404  0.33566  1.0000
  C   C99       1.0  0.26796  0.57805  0.35914  1.0000
  C   C100      1.0  0.25036  0.98880  0.33537  1.0000
  C   C101      1.0  0.24906  0.93471  0.35870  1.0000
  C   C102      1.0  0.26620  0.96926  0.34025  1.0000
  H   H85       1.0  0.29116  0.98004  0.33141  1.0000
  H   H86       1.0  0.30518  0.63477  0.44631  1.0000
  C   C103      1.0  0.25240  0.89233  0.27539  1.0000
  C   C104      1.0  0.25210  0.86209  0.27736  1.0000
  C   C105      1.0  0.25466  0.61158  0.26432  1.0000
  C   C106      1.0  0.25449  0.64153  0.25572  1.0000
  H   H87       1.0  0.26209  0.65375  0.19514  1.0000
  H   H88       1.0  0.26225  0.60364  0.20945  1.0000
  C   C107      1.0  0.30610  0.71175  0.32680  1.0000
  C   C108      1.0  0.27067  0.69401  0.32782  1.0000
  C   C109      1.0  0.25364  0.71215  0.32871  1.0000
  N   N9        1.0  0.32316  0.69488  0.32885  1.0000
  C   C110      1.0  0.26648  0.80036  0.34185  1.0000
  C   C111      1.0  0.24936  0.81737  0.36504  1.0000
  H   H89       1.0  0.31248  0.67113  0.32866  1.0000
  H   H90       1.0  0.29118  0.81487  0.32943  1.0000
  C   C112      1.0  0.30220  0.59439  0.38221  1.0000
  C   C113      1.0  0.32106  0.57872  0.36238  1.0000
  C   C114      1.0  0.30375  0.54436  0.34157  1.0000
  N   N10       1.0  0.31731  0.62446  0.42435  1.0000
  H   H91       1.0  0.31798  0.53371  0.33111  1.0000
  C   C115      1.0  0.26449  0.91492  0.34853  1.0000
  C   C116      1.0  0.26410  0.85241  0.35237  1.0000
  C   C117      1.0  0.27907  0.87592  0.42416  1.0000
  C   C118      1.0  0.27915  0.90696  0.42241  1.0000
  C   C119      1.0  0.29202  0.86673  0.50508  1.0000
  H   H92       1.0  0.29159  0.84326  0.49794  1.0000
  H   H93       1.0  0.27729  0.86481  0.56445  1.0000
  H   H94       1.0  0.31778  0.88556  0.51710  1.0000
  C   C120      1.0  0.29185  0.92973  0.50208  1.0000
  H   H95       1.0  0.29146  0.95271  0.49281  1.0000
  H   H96       1.0  0.31758  0.93676  0.51531  1.0000
  H   H97       1.0  0.27693  0.91740  0.56158  1.0000
  C   C121      1.0  0.25106  0.59637  0.34941  1.0000
  C   C122      1.0  0.25255  0.65860  0.33259  1.0000
  C   C123      1.0  0.24475  0.64162  0.41762  1.0000
  C   C124      1.0  0.24294  0.60997  0.42511  1.0000
  H   H98       1.0  0.24263  0.68144  0.48907  1.0000
  H   H99       1.0  0.26096  0.66224  0.54888  1.0000
  H   H100      1.0  0.25492  0.60694  0.56285  1.0000
  C   C125      1.0  0.49278  0.24867  0.33346  1.0000
  C   C126      1.0  0.47295  0.21332  0.33887  1.0000
  C   C127      1.0  0.43872  0.19623  0.36104  1.0000
  H   H101      1.0  0.48318  0.19885  0.32634  1.0000
  H   H102      1.0  0.38580  0.17929  0.45383  1.0000
  H   H103      1.0  0.34692  0.20570  0.32789  1.0000
  C   C128      1.0  0.37615  0.26370  0.25542  1.0000
  C   C129      1.0  0.40601  0.26324  0.26374  1.0000
  H   H104      1.0  0.41397  0.25586  0.20848  1.0000
  H   H105      1.0  0.36404  0.25637  0.19464  1.0000
  C   C130      1.0  0.39613  0.15119  0.27619  1.0000
  C   C131      1.0  0.36602  0.12110  0.27652  1.0000
  H   H106      1.0  0.34942  0.11741  0.22606  1.0000
  H   H107      1.0  0.39972  0.16768  0.22550  1.0000
  C   C132      1.0  0.42325  0.21526  0.38125  1.0000
  C   C133      1.0  0.43962  0.24948  0.35755  1.0000
  C   C134      1.0  0.47363  0.26502  0.33335  1.0000
  N   N11       1.0  0.39318  0.20013  0.42350  1.0000
  H   H108      1.0  0.38308  0.21243  0.44553  1.0000
  H   H109      1.0  0.48450  0.28956  0.31790  1.0000
  H   H110      1.0  0.33833  0.13212  0.45399  1.0000
  C   C135      1.0  0.35898  0.26548  0.33237  1.0000
  C   C136      1.0  0.42129  0.26647  0.34862  1.0000
  C   C137      1.0  0.40755  0.27434  0.42457  1.0000
  C   C138      1.0  0.37593  0.27267  0.41740  1.0000
  C   C139      1.0  0.42517  0.28122  0.51341  1.0000
  H   H111      1.0  0.44931  0.28289  0.50872  1.0000
  H   H112      1.0  0.41031  0.26175  0.56190  1.0000
  H   H113      1.0  0.42961  0.30496  0.53981  1.0000
  C   C140      1.0  0.35962  0.27562  0.50128  1.0000
  H   H114      1.0  0.33610  0.27461  0.48928  1.0000
  H   H115      1.0  0.37564  0.29932  0.53418  1.0000
  H   H116      1.0  0.35489  0.25557  0.54781  1.0000
  C   C141      1.0  0.41855  0.16109  0.34959  1.0000
  C   C142      1.0  0.35616  0.09884  0.35030  1.0000
  C   C143      1.0  0.37946  0.10699  0.42253  1.0000
  C   C144      1.0  0.41050  0.13796  0.42215  1.0000
  C   C145      1.0  0.37005  0.08450  0.50271  1.0000
  H   H117      1.0  0.34655  0.06153  0.49489  1.0000
  H   H118      1.0  0.36805  0.09708  0.56249  1.0000
  H   H119      1.0  0.38880  0.07744  0.51451  1.0000
  C   C146      1.0  0.43325  0.14750  0.50177  1.0000
  H   H120      1.0  0.45628  0.17089  0.49317  1.0000
  H   H121      1.0  0.44020  0.12867  0.51370  1.0000
  H   H122      1.0  0.42093  0.14977  0.56176  1.0000
  C   C147      1.0  0.49278  0.74866  0.33346  1.0000
  C   C148      1.0  0.47295  0.71332  0.33887  1.0000
  C   C149      1.0  0.43872  0.69622  0.36104  1.0000
  H   H123      1.0  0.48318  0.69885  0.32634  1.0000
  H   H124      1.0  0.38579  0.67929  0.45383  1.0000
  H   H125      1.0  0.34692  0.70569  0.32789  1.0000
  C   C150      1.0  0.37615  0.76370  0.25542  1.0000
  C   C151      1.0  0.40601  0.76323  0.26374  1.0000
  H   H126      1.0  0.41397  0.75586  0.20848  1.0000
  H   H127      1.0  0.36405  0.75637  0.19464  1.0000
  C   C152      1.0  0.39613  0.65118  0.27619  1.0000
  C   C153      1.0  0.36602  0.62110  0.27652  1.0000
  H   H128      1.0  0.34942  0.61741  0.22606  1.0000
  H   H129      1.0  0.39972  0.66768  0.22550  1.0000
  C   C154      1.0  0.42325  0.71526  0.38125  1.0000
  C   C155      1.0  0.43962  0.74948  0.35755  1.0000
  C   C156      1.0  0.47363  0.76502  0.33335  1.0000
  N   N12       1.0  0.39318  0.70013  0.42350  1.0000
  H   H130      1.0  0.38308  0.71242  0.44553  1.0000
  H   H131      1.0  0.48450  0.78955  0.31790  1.0000
  H   H132      1.0  0.33833  0.63212  0.45399  1.0000
  C   C157      1.0  0.35898  0.76548  0.33237  1.0000
  C   C158      1.0  0.42129  0.76648  0.34862  1.0000
  C   C159      1.0  0.40755  0.77434  0.42457  1.0000
  C   C160      1.0  0.37593  0.77267  0.41740  1.0000
  C   C161      1.0  0.42517  0.78122  0.51341  1.0000
  H   H133      1.0  0.44931  0.78289  0.50872  1.0000
  H   H134      1.0  0.41031  0.76175  0.56190  1.0000
  H   H135      1.0  0.42961  0.80496  0.53981  1.0000
  C   C162      1.0  0.35962  0.77563  0.50128  1.0000
  H   H136      1.0  0.33610  0.77461  0.48928  1.0000
  H   H137      1.0  0.37564  0.79932  0.53418  1.0000
  H   H138      1.0  0.35489  0.75558  0.54781  1.0000
  C   C163      1.0  0.41855  0.66109  0.34959  1.0000
  C   C164      1.0  0.35616  0.59884  0.35030  1.0000
  C   C165      1.0  0.37946  0.60699  0.42253  1.0000
  C   C166      1.0  0.41049  0.63796  0.42215  1.0000
  C   C167      1.0  0.37005  0.58450  0.50271  1.0000
  H   H139      1.0  0.34655  0.56153  0.49489  1.0000
  H   H140      1.0  0.36805  0.59708  0.56249  1.0000
  H   H141      1.0  0.38880  0.57744  0.51451  1.0000
  C   C168      1.0  0.43325  0.64750  0.50177  1.0000
  H   H142      1.0  0.45628  0.67088  0.49317  1.0000
  H   H143      1.0  0.44020  0.62867  0.51370  1.0000
  H   H144      1.0  0.42094  0.64977  0.56176  1.0000
  C   C169      1.0  0.99278  0.24867  0.33346  1.0000
  C   C170      1.0  0.97295  0.21332  0.33887  1.0000
  C   C171      1.0  0.93872  0.19623  0.36104  1.0000
  H   H145      1.0  0.98318  0.19885  0.32634  1.0000
  C   C172      1.0  0.52877  0.26617  0.32659  1.0000
  C   C173      1.0  0.58351  0.31970  0.32325  1.0000
  C   C174      1.0  0.54834  0.30154  0.32471  1.0000
  H   H146      1.0  0.53714  0.31550  0.32719  1.0000
  H   H147      1.0  0.64816  0.34254  0.31884  1.0000
  H   H148      1.0  0.88580  0.17929  0.45383  1.0000
  C   C175      1.0  0.76944  0.24752  0.32901  1.0000
  C   C176      1.0  0.80490  0.26380  0.32866  1.0000
  C   C177      1.0  0.82352  0.24719  0.32736  1.0000
  H   H149      1.0  0.81848  0.28899  0.33095  1.0000
  C   C178      1.0  0.75097  0.26503  0.33601  1.0000
  C   C179      1.0  0.69698  0.26417  0.36041  1.0000
  C   C180      1.0  0.71547  0.24868  0.33575  1.0000
  H   H150      1.0  0.70183  0.22422  0.31950  1.0000
  H   H151      1.0  0.67735  0.30134  0.44836  1.0000
  H   H152      1.0  0.84692  0.20570  0.32789  1.0000
  C   C181      1.0  0.76838  0.02481  0.33626  1.0000
  C   C182      1.0  0.75217  0.04404  0.33566  1.0000
  C   C183      1.0  0.76796  0.07806  0.35914  1.0000
  H   H153      1.0  0.72747  0.03317  0.32249  1.0000
  C   C184      1.0  0.75037  0.48880  0.33537  1.0000
  C   C185      1.0  0.74906  0.43471  0.35870  1.0000
  C   C186      1.0  0.76620  0.46926  0.34025  1.0000
  H   H154      1.0  0.79116  0.48004  0.33141  1.0000
  H   H155      1.0  0.71219  0.37993  0.44426  1.0000
  H   H156      1.0  0.80518  0.13477  0.44631  1.0000
  C   C187      1.0  0.64990  0.25045  0.26553  1.0000
  C   C188      1.0  0.61965  0.25007  0.25633  1.0000
  H   H157      1.0  0.61499  0.25737  0.19532  1.0000
  H   H158      1.0  0.66538  0.25783  0.21058  1.0000
  C   C189      1.0  0.75240  0.39233  0.27539  1.0000
  C   C190      1.0  0.75210  0.36209  0.27736  1.0000
  H   H159      1.0  0.73939  0.34536  0.22700  1.0000
  H   H160      1.0  0.73975  0.39581  0.22377  1.0000
  C   C191      1.0  0.61926  0.37245  0.25215  1.0000
  C   C192      1.0  0.64941  0.40240  0.26084  1.0000
  H   H161      1.0  0.66475  0.41063  0.20560  1.0000
  H   H162      1.0  0.61449  0.36050  0.19112  1.0000
  C   C193      1.0  0.87615  0.26370  0.25542  1.0000
  C   C194      1.0  0.90601  0.26324  0.26374  1.0000
  H   H163      1.0  0.91397  0.25586  0.20848  1.0000
  H   H164      1.0  0.86404  0.25637  0.19464  1.0000
  C   C195      1.0  0.75466  0.11158  0.26432  1.0000
  C   C196      1.0  0.75449  0.14153  0.25572  1.0000
  H   H165      1.0  0.76209  0.15375  0.19514  1.0000
  H   H166      1.0  0.76225  0.10364  0.20945  1.0000
  C   C197      1.0  0.89613  0.15119  0.27619  1.0000
  C   C198      1.0  0.86602  0.12110  0.27652  1.0000
  H   H167      1.0  0.84942  0.11741  0.22606  1.0000
  H   H168      1.0  0.89972  0.16768  0.22550  1.0000
  C   C199      1.0  0.92325  0.21526  0.38125  1.0000
  C   C200      1.0  0.93962  0.24948  0.35755  1.0000
  C   C201      1.0  0.97363  0.26502  0.33335  1.0000
  N   N13       1.0  0.89318  0.20013  0.42350  1.0000
  C   C202      1.0  0.54798  0.24993  0.32816  1.0000
  C   C203      1.0  0.58323  0.26656  0.32711  1.0000
  C   C204      1.0  0.60122  0.30199  0.32399  1.0000
  N   N14       1.0  0.63516  0.31890  0.32516  1.0000
  H   H169      1.0  0.64815  0.30816  0.32845  1.0000
  H   H170      1.0  0.88308  0.21243  0.44553  1.0000
  H   H171      1.0  0.98450  0.28956  0.31790  1.0000
  H   H172      1.0  0.53638  0.22476  0.33194  1.0000
  C   C205      1.0  0.80610  0.21175  0.32680  1.0000
  C   C206      1.0  0.77067  0.19401  0.32782  1.0000
  C   C207      1.0  0.75364  0.21215  0.32871  1.0000
  N   N15       1.0  0.82316  0.19488  0.32885  1.0000
  C   C208      1.0  0.76648  0.30036  0.34185  1.0000
  C   C209      1.0  0.74936  0.31736  0.36504  1.0000
  C   C210      1.0  0.71485  0.29831  0.38508  1.0000
  N   N16       1.0  0.69995  0.31336  0.42787  1.0000
  H   H173      1.0  0.71357  0.33368  0.46057  1.0000
  H   H174      1.0  0.81248  0.17113  0.32866  1.0000
  H   H175      1.0  0.72849  0.19821  0.33204  1.0000
  H   H176      1.0  0.79118  0.31487  0.32943  1.0000
  C   C211      1.0  0.80221  0.09439  0.38221  1.0000
  C   C212      1.0  0.82106  0.07872  0.36238  1.0000
  C   C213      1.0  0.80375  0.04435  0.34157  1.0000
  N   N17       1.0  0.81731  0.12446  0.42435  1.0000
  C   C214      1.0  0.71493  0.46960  0.33391  1.0000
  C   C215      1.0  0.69659  0.43539  0.35518  1.0000
  C   C216      1.0  0.71439  0.41881  0.37695  1.0000
  N   N18       1.0  0.69913  0.38827  0.41648  1.0000
  H   H177      1.0  0.67663  0.37777  0.43796  1.0000
  H   H178      1.0  0.83833  0.13212  0.45399  1.0000
  H   H179      1.0  0.81798  0.03371  0.33111  1.0000
  H   H180      1.0  0.70115  0.48060  0.32182  1.0000
  C   C217      1.0  0.66168  0.24729  0.35088  1.0000
  C   C218      1.0  0.60047  0.24834  0.33269  1.0000
  C   C219      1.0  0.60986  0.24103  0.41813  1.0000
  C   C220      1.0  0.63984  0.23943  0.42626  1.0000
  C   C221      1.0  0.59026  0.23789  0.50141  1.0000
  H   H181      1.0  0.56780  0.23891  0.48880  1.0000
  H   H182      1.0  0.60537  0.25784  0.54844  1.0000
  H   H183      1.0  0.58248  0.21413  0.53405  1.0000
  C   C222      1.0  0.65023  0.23241  0.51544  1.0000
  H   H184      1.0  0.67277  0.23083  0.51148  1.0000
  H   H185      1.0  0.63087  0.20859  0.54123  1.0000
  H   H186      1.0  0.65459  0.25176  0.56407  1.0000
  C   C223      1.0  0.76450  0.41492  0.34853  1.0000
  C   C224      1.0  0.76410  0.35241  0.35237  1.0000
  C   C225      1.0  0.77907  0.37592  0.42416  1.0000
  C   C226      1.0  0.77915  0.40695  0.42241  1.0000
  C   C227      1.0  0.79202  0.36673  0.50508  1.0000
  H   H187      1.0  0.79159  0.34325  0.49794  1.0000
  H   H188      1.0  0.77729  0.36481  0.56445  1.0000
  H   H189      1.0  0.81778  0.38556  0.51710  1.0000
  C   C228      1.0  0.79185  0.42973  0.50208  1.0000
  H   H190      1.0  0.79146  0.45271  0.49281  1.0000
  H   H191      1.0  0.81758  0.43676  0.51531  1.0000
  H   H192      1.0  0.77693  0.41740  0.56158  1.0000
  C   C229      1.0  0.60069  0.35509  0.32927  1.0000
  C   C230      1.0  0.66133  0.41731  0.34612  1.0000
  C   C231      1.0  0.63993  0.40337  0.42232  1.0000
  C   C232      1.0  0.61021  0.37163  0.41483  1.0000
  C   C233      1.0  0.65076  0.42070  0.51151  1.0000
  H   H193      1.0  0.67302  0.44502  0.50693  1.0000
  H   H194      1.0  0.65578  0.40585  0.55898  1.0000
  H   H195      1.0  0.63135  0.42473  0.53909  1.0000
  C   C234      1.0  0.59110  0.35494  0.49859  1.0000
  H   H196      1.0  0.56880  0.33129  0.48641  1.0000
  H   H197      1.0  0.58316  0.37065  0.53206  1.0000
  H   H198      1.0  0.60664  0.35037  0.54474  1.0000
  C   C235      1.0  0.85898  0.26548  0.33237  1.0000
  C   C236      1.0  0.92129  0.26647  0.34862  1.0000
  C   C237      1.0  0.90755  0.27434  0.42457  1.0000
  C   C238      1.0  0.87593  0.27267  0.41740  1.0000
  C   C239      1.0  0.92517  0.28122  0.51341  1.0000
  H   H199      1.0  0.94931  0.28289  0.50872  1.0000
  H   H200      1.0  0.91031  0.26175  0.56190  1.0000
  H   H201      1.0  0.92961  0.30496  0.53981  1.0000
  C   C240      1.0  0.85962  0.27562  0.50128  1.0000
  H   H202      1.0  0.83610  0.27461  0.48928  1.0000
  H   H203      1.0  0.87564  0.29932  0.53418  1.0000
  H   H204      1.0  0.85489  0.25557  0.54781  1.0000
  C   C241      1.0  0.75106  0.09638  0.34941  1.0000
  C   C242      1.0  0.75255  0.15861  0.33259  1.0000
  C   C243      1.0  0.74475  0.14162  0.41762  1.0000
  C   C244      1.0  0.74294  0.10997  0.42511  1.0000
  C   C245      1.0  0.74132  0.15780  0.50113  1.0000
  H   H205      1.0  0.74263  0.18144  0.48907  1.0000
  H   H206      1.0  0.76096  0.16224  0.54888  1.0000
  H   H207      1.0  0.71734  0.14181  0.53268  1.0000
  C   C246      1.0  0.73561  0.09221  0.51381  1.0000
  H   H208      1.0  0.73384  0.06802  0.50920  1.0000
  H   H209      1.0  0.71181  0.08784  0.53943  1.0000
  H   H210      1.0  0.75492  0.10694  0.56285  1.0000
  C   C247      1.0  0.91855  0.16109  0.34959  1.0000
  C   C248      1.0  0.85616  0.09884  0.35030  1.0000
  C   C249      1.0  0.87946  0.10699  0.42253  1.0000
  C   C250      1.0  0.91050  0.13796  0.42215  1.0000
  C   C251      1.0  0.87005  0.08450  0.50271  1.0000
  H   H211      1.0  0.84656  0.06153  0.49489  1.0000
  H   H212      1.0  0.86805  0.09708  0.56249  1.0000
  H   H213      1.0  0.88880  0.07744  0.51451  1.0000
  C   C252      1.0  0.93325  0.14750  0.50177  1.0000
  H   H214      1.0  0.95628  0.17089  0.49317  1.0000
  H   H215      1.0  0.94020  0.12867  0.51370  1.0000
  H   H216      1.0  0.92094  0.14977  0.56176  1.0000
  C   C253      1.0  0.99278  0.74866  0.33346  1.0000
  C   C254      1.0  0.97295  0.71332  0.33887  1.0000
  C   C255      1.0  0.93872  0.69622  0.36104  1.0000
  H   H217      1.0  0.98318  0.69885  0.32634  1.0000
  C   C256      1.0  0.52877  0.76617  0.32659  1.0000
  C   C257      1.0  0.58351  0.81970  0.32325  1.0000
  C   C258      1.0  0.54834  0.80154  0.32471  1.0000
  H   H218      1.0  0.53714  0.81550  0.32719  1.0000
  H   H219      1.0  0.64816  0.84254  0.31884  1.0000
  H   H220      1.0  0.88579  0.67929  0.45383  1.0000
  C   C259      1.0  0.76944  0.74752  0.32901  1.0000
  C   C260      1.0  0.80490  0.76380  0.32866  1.0000
  C   C261      1.0  0.82352  0.74719  0.32736  1.0000
  H   H221      1.0  0.81848  0.78899  0.33095  1.0000
  C   C262      1.0  0.75097  0.76503  0.33601  1.0000
  C   C263      1.0  0.69698  0.76417  0.36041  1.0000
  C   C264      1.0  0.71547  0.74868  0.33575  1.0000
  H   H222      1.0  0.70183  0.72421  0.31950  1.0000
  H   H223      1.0  0.67735  0.80134  0.44836  1.0000
  H   H224      1.0  0.84691  0.70569  0.32789  1.0000
  C   C265      1.0  0.76838  0.52481  0.33626  1.0000
  C   C266      1.0  0.75217  0.54404  0.33566  1.0000
  C   C267      1.0  0.76796  0.57805  0.35914  1.0000
  H   H225      1.0  0.72747  0.53317  0.32249  1.0000
  C   C268      1.0  0.75036  0.98880  0.33537  1.0000
  C   C269      1.0  0.74906  0.93471  0.35870  1.0000
  C   C270      1.0  0.76620  0.96926  0.34025  1.0000
  H   H226      1.0  0.79116  0.98004  0.33141  1.0000
  H   H227      1.0  0.71219  0.87993  0.44426  1.0000
  H   H228      1.0  0.80518  0.63477  0.44631  1.0000
  C   C271      1.0  0.64990  0.75045  0.26553  1.0000
  C   C272      1.0  0.61965  0.75008  0.25633  1.0000
  H   H229      1.0  0.61499  0.75737  0.19532  1.0000
  H   H230      1.0  0.66537  0.75783  0.21058  1.0000
  C   C273      1.0  0.75240  0.89233  0.27539  1.0000
  C   C274      1.0  0.75210  0.86209  0.27736  1.0000
  H   H231      1.0  0.73939  0.84536  0.22700  1.0000
  H   H232      1.0  0.73975  0.89581  0.22377  1.0000
  C   C275      1.0  0.61926  0.87245  0.25215  1.0000
  C   C276      1.0  0.64941  0.90240  0.26084  1.0000
  H   H233      1.0  0.66475  0.91063  0.20560  1.0000
  H   H234      1.0  0.61449  0.86050  0.19112  1.0000
  C   C277      1.0  0.87615  0.76370  0.25542  1.0000
  C   C278      1.0  0.90601  0.76323  0.26374  1.0000
  H   H235      1.0  0.91397  0.75586  0.20848  1.0000
  H   H236      1.0  0.86405  0.75637  0.19464  1.0000
  C   C279      1.0  0.75466  0.61158  0.26432  1.0000
  C   C280      1.0  0.75449  0.64153  0.25572  1.0000
  H   H237      1.0  0.76209  0.65375  0.19514  1.0000
  H   H238      1.0  0.76225  0.60364  0.20945  1.0000
  C   C281      1.0  0.89613  0.65118  0.27619  1.0000
  C   C282      1.0  0.86602  0.62110  0.27652  1.0000
  H   H239      1.0  0.84942  0.61741  0.22606  1.0000
  H   H240      1.0  0.89972  0.66768  0.22550  1.0000
  C   C283      1.0  0.92325  0.71526  0.38125  1.0000
  C   C284      1.0  0.93962  0.74948  0.35755  1.0000
  C   C285      1.0  0.97364  0.76502  0.33335  1.0000
  N   N19       1.0  0.89318  0.70013  0.42350  1.0000
  C   C286      1.0  0.54799  0.74993  0.32816  1.0000
  C   C287      1.0  0.58323  0.76656  0.32711  1.0000
  C   C288      1.0  0.60122  0.80199  0.32399  1.0000
  N   N20       1.0  0.63516  0.81890  0.32516  1.0000
  H   H241      1.0  0.64815  0.80816  0.32845  1.0000
  H   H242      1.0  0.88308  0.71242  0.44553  1.0000
  H   H243      1.0  0.98450  0.78955  0.31790  1.0000
  H   H244      1.0  0.53638  0.72476  0.33194  1.0000
  C   C289      1.0  0.80610  0.71175  0.32680  1.0000
  C   C290      1.0  0.77067  0.69401  0.32782  1.0000
  C   C291      1.0  0.75364  0.71215  0.32871  1.0000
  N   N21       1.0  0.82316  0.69488  0.32885  1.0000
  C   C292      1.0  0.76648  0.80036  0.34185  1.0000
  C   C293      1.0  0.74936  0.81737  0.36504  1.0000
  C   C294      1.0  0.71486  0.79831  0.38508  1.0000
  N   N22       1.0  0.69996  0.81336  0.42787  1.0000
  H   H245      1.0  0.71357  0.83368  0.46057  1.0000
  H   H246      1.0  0.81248  0.67113  0.32866  1.0000
  H   H247      1.0  0.72849  0.69821  0.33204  1.0000
  H   H248      1.0  0.79118  0.81487  0.32943  1.0000
  C   C295      1.0  0.80220  0.59439  0.38221  1.0000
  C   C296      1.0  0.82106  0.57872  0.36238  1.0000
  C   C297      1.0  0.80375  0.54436  0.34157  1.0000
  N   N23       1.0  0.81731  0.62446  0.42435  1.0000
  C   C298      1.0  0.71492  0.96960  0.33391  1.0000
  C   C299      1.0  0.69659  0.93539  0.35518  1.0000
  C   C300      1.0  0.71439  0.91881  0.37695  1.0000
  N   N24       1.0  0.69913  0.88827  0.41648  1.0000
  H   H249      1.0  0.67663  0.87777  0.43796  1.0000
  H   H250      1.0  0.83833  0.63212  0.45399  1.0000
  H   H251      1.0  0.81798  0.53371  0.33111  1.0000
  H   H252      1.0  0.70115  0.98060  0.32182  1.0000
  C   C301      1.0  0.66168  0.74729  0.35088  1.0000
  C   C302      1.0  0.60047  0.74834  0.33269  1.0000
  C   C303      1.0  0.60986  0.74103  0.41813  1.0000
  C   C304      1.0  0.63984  0.73943  0.42626  1.0000
  C   C305      1.0  0.59026  0.73789  0.50141  1.0000
  H   H253      1.0  0.56780  0.73891  0.48880  1.0000
  H   H254      1.0  0.60538  0.75784  0.54844  1.0000
  H   H255      1.0  0.58248  0.71413  0.53405  1.0000
  C   C306      1.0  0.65023  0.73241  0.51544  1.0000
  H   H256      1.0  0.67277  0.73082  0.51148  1.0000
  H   H257      1.0  0.63087  0.70859  0.54123  1.0000
  H   H258      1.0  0.65459  0.75176  0.56407  1.0000
  C   C307      1.0  0.76450  0.91492  0.34853  1.0000
  C   C308      1.0  0.76410  0.85241  0.35237  1.0000
  C   C309      1.0  0.77907  0.87592  0.42416  1.0000
  C   C310      1.0  0.77915  0.90696  0.42241  1.0000
  C   C311      1.0  0.79202  0.86673  0.50508  1.0000
  H   H259      1.0  0.79159  0.84326  0.49794  1.0000
  H   H260      1.0  0.77729  0.86481  0.56445  1.0000
  H   H261      1.0  0.81778  0.88556  0.51710  1.0000
  C   C312      1.0  0.79185  0.92973  0.50208  1.0000
  H   H262      1.0  0.79146  0.95271  0.49281  1.0000
  H   H263      1.0  0.81758  0.93676  0.51531  1.0000
  H   H264      1.0  0.77693  0.91740  0.56158  1.0000
  C   C313      1.0  0.60069  0.85509  0.32927  1.0000
  C   C314      1.0  0.66134  0.91731  0.34612  1.0000
  C   C315      1.0  0.63993  0.90337  0.42232  1.0000
  C   C316      1.0  0.61021  0.87163  0.41483  1.0000
  C   C317      1.0  0.65076  0.92070  0.51151  1.0000
  H   H265      1.0  0.67302  0.94502  0.50693  1.0000
  H   H266      1.0  0.65578  0.90585  0.55898  1.0000
  H   H267      1.0  0.63135  0.92473  0.53909  1.0000
  C   C318      1.0  0.59110  0.85494  0.49859  1.0000
  H   H268      1.0  0.56879  0.83129  0.48641  1.0000
  H   H269      1.0  0.58316  0.87065  0.53206  1.0000
  H   H270      1.0  0.60664  0.85037  0.54474  1.0000
  C   C319      1.0  0.85898  0.76548  0.33237  1.0000
  C   C320      1.0  0.92129  0.76648  0.34862  1.0000
  C   C321      1.0  0.90755  0.77434  0.42457  1.0000
  C   C322      1.0  0.87593  0.77267  0.41740  1.0000
  C   C323      1.0  0.92517  0.78122  0.51341  1.0000
  H   H271      1.0  0.94931  0.78289  0.50872  1.0000
  H   H272      1.0  0.91031  0.76175  0.56190  1.0000
  H   H273      1.0  0.92961  0.80496  0.53981  1.0000
  C   C324      1.0  0.85962  0.77563  0.50128  1.0000
  H   H274      1.0  0.83610  0.77461  0.48928  1.0000
  H   H275      1.0  0.87564  0.79932  0.53418  1.0000
  H   H276      1.0  0.85489  0.75558  0.54781  1.0000
  C   C325      1.0  0.75106  0.59637  0.34941  1.0000
  C   C326      1.0  0.75255  0.65860  0.33259  1.0000
  C   C327      1.0  0.74475  0.64162  0.41762  1.0000
  C   C328      1.0  0.74294  0.60997  0.42511  1.0000
  C   C329      1.0  0.74132  0.65780  0.50113  1.0000
  H   H277      1.0  0.74263  0.68144  0.48907  1.0000
  H   H278      1.0  0.76096  0.66224  0.54888  1.0000
  H   H279      1.0  0.71734  0.64180  0.53268  1.0000
  C   C330      1.0  0.73561  0.59221  0.51381  1.0000
  H   H280      1.0  0.73384  0.56802  0.50920  1.0000
  H   H281      1.0  0.71181  0.58784  0.53943  1.0000
  H   H282      1.0  0.75491  0.60694  0.56285  1.0000
  C   C331      1.0  0.91854  0.66109  0.34959  1.0000
  C   C332      1.0  0.85616  0.59884  0.35030  1.0000
  C   C333      1.0  0.87946  0.60699  0.42253  1.0000
  C   C334      1.0  0.91049  0.63796  0.42215  1.0000
  C   C335      1.0  0.87005  0.58450  0.50271  1.0000
  H   H283      1.0  0.84655  0.56153  0.49489  1.0000
  H   H284      1.0  0.86805  0.59708  0.56249  1.0000
  H   H285      1.0  0.88880  0.57744  0.51451  1.0000
  C   C336      1.0  0.93325  0.64750  0.50177  1.0000
  H   H286      1.0  0.95628  0.67088  0.49317  1.0000
  H   H287      1.0  0.94020  0.62867  0.51370  1.0000
  H   H288      1.0  0.92094  0.64977  0.56176  1.0000
