data_image0
_chemical_formula_structural       C3HCH2C2HOCH3C3NHC2NC3NC3HCH2C2HOCH3C3NHC2NC3NHC2H3C2HCHOCH4C2H5C2NH2C3NH2C3N2C2NHOC2NC2H2C2H3C2HCHOCH4C2H5C2NH2C3NH2C3N2C2NHOC2NC2HC3HC5H2C2H2CH4OCHC3NCH2C3NHC4HC4NC2NC3HC5H2C2H2CH4OCHC3NCH2C3NHC4HC4NC2NC3H3C2H2OCH2C2H2CH2C3NH3C4NC2NHC4NC2NHOHC3H3C2H2OCH2C2H2CH2C3NH3C4NC2NHC4NC2NHOHC3HC3H3C3HC3H3C3HC3H3C2H3OCH3C2H2CH2C2H2OCH3C2H2OCH3C2H3OCH3C2H2CH2C3NC3NH4C3NC3NH4C3NC3NH4C4NC2NC4NC2NHOHC4NC2NHC4NC2NHC4NC2NC4NC2NHOHC3HC3H3C3HC3H3C3HC3H3C2H3OCH3C2H2CH2C2H2OCH3C2H2OCH3C2H3OCH3C2H2CH2C3NC3NH4C3NC3NH4C3NC3NH4C4NC2NC4NC2NHOHC4NC2NHC4NC2NHC4NC2NC4NC2NHOH
_chemical_formula_sum              "C360 H240 O24 N72"
_cell_length_a       46.5893
_cell_length_b       46.5893
_cell_length_c       14.7988
_cell_angle_alpha    90
_cell_angle_beta     90
_cell_angle_gamma    120

_space_group_name_H-M_alt    "P 1"
_space_group_IT_number       1

loop_
  _space_group_symop_operation_xyz
  'x, y, z'

loop_
  _atom_site_type_symbol
  _atom_site_label
  _atom_site_symmetry_multiplicity
  _atom_site_fract_x
  _atom_site_fract_y
  _atom_site_fract_z
  _atom_site_occupancy
  C   C1        1.0  0.02755  0.26586  0.37457  1.0000
  C   C2        1.0  0.08220  0.31915  0.39079  1.0000
  C   C3        1.0  0.04731  0.30126  0.37798  1.0000
  H   H1        1.0  0.03636  0.31535  0.37079  1.0000
  C   C4        1.0  0.10608  0.23718  0.31330  1.0000
  H   H2        1.0  0.13129  0.27869  0.01423  1.0000
  H   H3        1.0  0.09232  0.23501  0.25704  1.0000
  C   C5        1.0  0.13547  0.40265  0.29746  1.0000
  C   C6        1.0  0.10587  0.37215  0.31147  1.0000
  H   H4        1.0  0.09175  0.36029  0.25611  1.0000
  O   O1        1.0  0.13529  0.35287  0.03094  1.0000
  C   C7        1.0  0.10264  0.33724  0.06953  1.0000
  H   H5        1.0  0.10336  0.32619  0.13382  1.0000
  H   H6        1.0  0.08467  0.31751  0.02588  1.0000
  H   H7        1.0  0.09462  0.35527  0.08216  1.0000
  C   C8        1.0  0.04646  0.24931  0.37952  1.0000
  C   C9        1.0  0.08146  0.26565  0.39150  1.0000
  C   C10       1.0  0.09961  0.30112  0.39367  1.0000
  N   N1        1.0  0.13361  0.31780  0.38932  1.0000
  H   H8        1.0  0.03465  0.22410  0.37719  1.0000
  C   C11       1.0  0.12084  0.25296  0.46886  1.0000
  C   C12       1.0  0.09865  0.24736  0.39610  1.0000
  N   N2        1.0  0.11532  0.26266  0.55076  1.0000
  C   C13       1.0  0.13673  0.27159  0.62102  1.0000
  C   C14       1.0  0.09982  0.35461  0.39399  1.0000
  C   C15       1.0  0.12202  0.37144  0.46628  1.0000
  N   N3        1.0  0.11779  0.35623  0.54772  1.0000
  C   C16       1.0  0.02756  0.76586  0.37457  1.0000
  C   C17       1.0  0.08220  0.81915  0.39079  1.0000
  C   C18       1.0  0.04732  0.80126  0.37798  1.0000
  H   H9        1.0  0.03636  0.81535  0.37079  1.0000
  C   C19       1.0  0.10608  0.73718  0.31330  1.0000
  H   H10       1.0  0.13129  0.77870  0.01423  1.0000
  H   H11       1.0  0.09232  0.73501  0.25704  1.0000
  C   C20       1.0  0.13547  0.90265  0.29746  1.0000
  C   C21       1.0  0.10587  0.87215  0.31147  1.0000
  H   H12       1.0  0.09175  0.86029  0.25611  1.0000
  O   O2        1.0  0.13529  0.85287  0.03094  1.0000
  C   C22       1.0  0.10263  0.83724  0.06953  1.0000
  H   H13       1.0  0.10336  0.82619  0.13382  1.0000
  H   H14       1.0  0.08467  0.81751  0.02588  1.0000
  H   H15       1.0  0.09462  0.85527  0.08216  1.0000
  C   C23       1.0  0.04646  0.74931  0.37952  1.0000
  C   C24       1.0  0.08146  0.76565  0.39150  1.0000
  C   C25       1.0  0.09961  0.80112  0.39367  1.0000
  N   N4        1.0  0.13361  0.81780  0.38932  1.0000
  H   H16       1.0  0.03465  0.72410  0.37719  1.0000
  C   C26       1.0  0.12084  0.75296  0.46886  1.0000
  C   C27       1.0  0.09865  0.74736  0.39610  1.0000
  N   N5        1.0  0.11532  0.76266  0.55076  1.0000
  C   C28       1.0  0.13673  0.77158  0.62102  1.0000
  C   C29       1.0  0.09982  0.85461  0.39399  1.0000
  C   C30       1.0  0.12202  0.87144  0.46628  1.0000
  N   N6        1.0  0.11779  0.85623  0.54772  1.0000
  H   H17       1.0  0.14665  0.34141  0.38315  1.0000
  C   C31       1.0  0.19502  0.26315  0.34562  1.0000
  C   C32       1.0  0.21450  0.24879  0.37113  1.0000
  H   H18       1.0  0.20171  0.22525  0.39584  1.0000
  H   H19       1.0  0.17211  0.29692  0.25593  1.0000
  H   H20       1.0  0.22663  0.03322  0.38240  1.0000
  C   C33       1.0  0.24884  0.48884  0.35494  1.0000
  C   C34       1.0  0.24656  0.43438  0.32625  1.0000
  H   H21       1.0  0.20602  0.37712  0.25349  1.0000
  C   C35       1.0  0.13603  0.23682  0.30050  1.0000
  H   H22       1.0  0.14208  0.23404  0.23589  1.0000
  O   O3        1.0  0.18957  0.28226  0.01014  1.0000
  C   C36       1.0  0.19276  0.25607  0.05125  1.0000
  H   H23       1.0  0.21062  0.26667  0.10628  1.0000
  H   H24       1.0  0.20197  0.24483  0.00297  1.0000
  H   H25       1.0  0.16920  0.23695  0.07945  1.0000
  H   H26       1.0  0.14122  0.41131  0.23255  1.0000
  C   C37       1.0  0.24152  0.14190  0.31347  1.0000
  C   C38       1.0  0.24038  0.11125  0.30061  1.0000
  H   H27       1.0  0.23775  0.10255  0.23587  1.0000
  H   H28       1.0  0.23971  0.15375  0.25729  1.0000
  H   H29       1.0  0.24675  0.05212  0.00279  1.0000
  H   H30       1.0  0.23925  0.07731  0.07918  1.0000
  H   H31       1.0  0.14619  0.30685  0.38010  1.0000
  C   C39       1.0  0.24702  0.31629  0.32439  1.0000
  C   C40       1.0  0.21192  0.29653  0.31343  1.0000
  N   N7        1.0  0.19515  0.30997  0.27204  1.0000
  H   H32       1.0  0.20715  0.32989  0.23661  1.0000
  H   H33       1.0  0.22784  0.19864  0.37475  1.0000
  C   C41       1.0  0.21346  0.46976  0.36173  1.0000
  C   C42       1.0  0.19435  0.43553  0.34102  1.0000
  C   C43       1.0  0.21142  0.41848  0.31573  1.0000
  N   N8        1.0  0.19447  0.38727  0.28026  1.0000
  H   H34       1.0  0.17166  0.37741  0.26144  1.0000
  H   H35       1.0  0.20017  0.48079  0.37943  1.0000
  C   C44       1.0  0.16059  0.24743  0.36889  1.0000
  C   C45       1.0  0.15153  0.25356  0.45544  1.0000
  C   C46       1.0  0.16667  0.27167  0.60892  1.0000
  N   N9        1.0  0.17316  0.26356  0.52618  1.0000
  N   N10       1.0  0.24764  0.34667  0.49245  1.0000
  C   C47       1.0  0.24101  0.35718  0.57093  1.0000
  C   C48       1.0  0.24154  0.38757  0.57232  1.0000
  N   N11       1.0  0.24796  0.40470  0.49353  1.0000
  H   H36       1.0  0.23600  0.34325  0.62808  1.0000
  O   O4        1.0  0.23417  0.39810  0.65066  1.0000
  C   C49       1.0  0.15175  0.40226  0.45234  1.0000
  C   C50       1.0  0.16009  0.41722  0.36554  1.0000
  N   N12       1.0  0.17338  0.41509  0.52273  1.0000
  C   C51       1.0  0.16781  0.40043  0.60494  1.0000
  C   C52       1.0  0.13906  0.36962  0.61842  1.0000
  H   H37       1.0  0.18484  0.41135  0.65528  1.0000
  H   H38       1.0  0.14665  0.84141  0.38315  1.0000
  C   C53       1.0  0.19502  0.76315  0.34562  1.0000
  C   C54       1.0  0.21450  0.74879  0.37113  1.0000
  H   H39       1.0  0.20171  0.72525  0.39584  1.0000
  H   H40       1.0  0.17211  0.79692  0.25593  1.0000
  H   H41       1.0  0.22663  0.53322  0.38240  1.0000
  C   C55       1.0  0.24884  0.98884  0.35494  1.0000
  C   C56       1.0  0.24656  0.93439  0.32625  1.0000
  H   H42       1.0  0.20602  0.87712  0.25349  1.0000
  C   C57       1.0  0.13603  0.73682  0.30050  1.0000
  H   H43       1.0  0.14208  0.73404  0.23589  1.0000
  O   O5        1.0  0.18957  0.78227  0.01014  1.0000
  C   C58       1.0  0.19276  0.75607  0.05125  1.0000
  H   H44       1.0  0.21062  0.76667  0.10628  1.0000
  H   H45       1.0  0.20197  0.74483  0.00297  1.0000
  H   H46       1.0  0.16920  0.73695  0.07945  1.0000
  H   H47       1.0  0.14122  0.91131  0.23255  1.0000
  C   C59       1.0  0.24152  0.64190  0.31347  1.0000
  C   C60       1.0  0.24038  0.61125  0.30061  1.0000
  H   H48       1.0  0.23776  0.60255  0.23587  1.0000
  H   H49       1.0  0.23971  0.65375  0.25729  1.0000
  H   H50       1.0  0.24675  0.55213  0.00279  1.0000
  H   H51       1.0  0.23925  0.57732  0.07918  1.0000
  H   H52       1.0  0.14619  0.80686  0.38010  1.0000
  C   C61       1.0  0.24702  0.81630  0.32439  1.0000
  C   C62       1.0  0.21192  0.79653  0.31343  1.0000
  N   N13       1.0  0.19516  0.80997  0.27204  1.0000
  H   H53       1.0  0.20715  0.82989  0.23661  1.0000
  H   H54       1.0  0.22784  0.69864  0.37475  1.0000
  C   C63       1.0  0.21346  0.96976  0.36173  1.0000
  C   C64       1.0  0.19435  0.93553  0.34102  1.0000
  C   C65       1.0  0.21142  0.91848  0.31573  1.0000
  N   N14       1.0  0.19447  0.88727  0.28026  1.0000
  H   H55       1.0  0.17166  0.87741  0.26144  1.0000
  H   H56       1.0  0.20017  0.98079  0.37943  1.0000
  C   C66       1.0  0.16060  0.74743  0.36889  1.0000
  C   C67       1.0  0.15153  0.75357  0.45544  1.0000
  C   C68       1.0  0.16667  0.77167  0.60892  1.0000
  N   N15       1.0  0.17316  0.76356  0.52618  1.0000
  N   N16       1.0  0.24765  0.84667  0.49245  1.0000
  C   C69       1.0  0.24101  0.85718  0.57093  1.0000
  C   C70       1.0  0.24154  0.88757  0.57232  1.0000
  N   N17       1.0  0.24796  0.90470  0.49353  1.0000
  H   H57       1.0  0.23600  0.84325  0.62808  1.0000
  O   O6        1.0  0.23417  0.89810  0.65066  1.0000
  C   C71       1.0  0.15175  0.90226  0.45234  1.0000
  C   C72       1.0  0.16009  0.91722  0.36554  1.0000
  N   N18       1.0  0.17339  0.91509  0.52273  1.0000
  C   C73       1.0  0.16781  0.90043  0.60494  1.0000
  C   C74       1.0  0.13906  0.86962  0.61842  1.0000
  H   H58       1.0  0.18484  0.91135  0.65528  1.0000
  C   C75       1.0  0.26866  0.24805  0.37527  1.0000
  C   C76       1.0  0.30416  0.26450  0.37772  1.0000
  C   C77       1.0  0.32279  0.24811  0.38931  1.0000
  H   H59       1.0  0.31761  0.28967  0.37393  1.0000
  C   C78       1.0  0.24991  0.26518  0.36402  1.0000
  C   C79       1.0  0.26700  0.02492  0.35587  1.0000
  C   C80       1.0  0.25093  0.04418  0.36450  1.0000
  C   C81       1.0  0.26633  0.07856  0.34556  1.0000
  C   C82       1.0  0.26426  0.46901  0.34448  1.0000
  H   H60       1.0  0.28935  0.47971  0.34942  1.0000
  H   H61       1.0  0.30197  0.13686  0.26679  1.0000
  C   C83       1.0  0.27038  0.37221  0.25643  1.0000
  C   C84       1.0  0.27064  0.40278  0.25724  1.0000
  H   H62       1.0  0.27284  0.41427  0.19673  1.0000
  H   H63       1.0  0.27251  0.36316  0.19529  1.0000
  C   C85       1.0  0.25798  0.43139  0.01034  1.0000
  H   H64       1.0  0.24990  0.43668  0.07421  1.0000
  H   H65       1.0  0.28250  0.43420  0.02018  1.0000
  H   H66       1.0  0.31825  0.24159  0.01914  1.0000
  H   H67       1.0  0.28257  0.15716  0.01504  1.0000
  O   O7        1.0  0.28478  0.10170  0.01066  1.0000
  C   C86       1.0  0.25816  0.07250  0.05130  1.0000
  H   H68       1.0  0.26838  0.06489  0.10652  1.0000
  C   C87       1.0  0.30538  0.21268  0.39392  1.0000
  C   C88       1.0  0.26992  0.19477  0.39301  1.0000
  C   C89       1.0  0.25293  0.21268  0.38055  1.0000
  N   N19       1.0  0.32262  0.19591  0.39032  1.0000
  C   C90       1.0  0.26490  0.30017  0.34940  1.0000
  H   H69       1.0  0.31208  0.17223  0.38857  1.0000
  H   H70       1.0  0.28989  0.31502  0.35538  1.0000
  C   C91       1.0  0.30038  0.09550  0.31987  1.0000
  C   C92       1.0  0.31940  0.07933  0.32907  1.0000
  C   C93       1.0  0.30226  0.04458  0.34549  1.0000
  N   N20       1.0  0.31479  0.12682  0.28508  1.0000
  H   H71       1.0  0.31650  0.03368  0.34898  1.0000
  C   C94       1.0  0.26193  0.41449  0.33519  1.0000
  C   C95       1.0  0.25543  0.39496  0.41445  1.0000
  C   C96       1.0  0.25533  0.36425  0.41391  1.0000
  C   C97       1.0  0.26156  0.35147  0.33370  1.0000
  H   H72       1.0  0.25952  0.44944  0.62723  1.0000
  C   C98       1.0  0.25041  0.09695  0.36940  1.0000
  C   C99       1.0  0.25692  0.11214  0.45594  1.0000
  C   C100      1.0  0.25704  0.14254  0.46945  1.0000
  C   C101      1.0  0.25194  0.15933  0.39647  1.0000
  N   N21       1.0  0.26689  0.15763  0.55147  1.0000
  C   C102      1.0  0.27531  0.14470  0.62173  1.0000
  C   C103      1.0  0.27469  0.11450  0.60948  1.0000
  N   N22       1.0  0.26641  0.10000  0.52663  1.0000
  C   C104      1.0  0.26866  0.74805  0.37527  1.0000
  C   C105      1.0  0.30416  0.76450  0.37772  1.0000
  C   C106      1.0  0.32279  0.74811  0.38931  1.0000
  H   H73       1.0  0.31762  0.78967  0.37393  1.0000
  C   C107      1.0  0.24991  0.76518  0.36402  1.0000
  C   C108      1.0  0.26700  0.52492  0.35587  1.0000
  C   C109      1.0  0.25093  0.54418  0.36450  1.0000
  C   C110      1.0  0.26633  0.57856  0.34556  1.0000
  C   C111      1.0  0.26426  0.96901  0.34448  1.0000
  H   H74       1.0  0.28935  0.97971  0.34942  1.0000
  H   H75       1.0  0.30197  0.63686  0.26679  1.0000
  C   C112      1.0  0.27038  0.87221  0.25643  1.0000
  C   C113      1.0  0.27064  0.90278  0.25724  1.0000
  H   H76       1.0  0.27284  0.91427  0.19673  1.0000
  H   H77       1.0  0.27251  0.86315  0.19529  1.0000
  C   C114      1.0  0.25798  0.93139  0.01034  1.0000
  H   H78       1.0  0.24991  0.93668  0.07421  1.0000
  H   H79       1.0  0.28250  0.93420  0.02018  1.0000
  H   H80       1.0  0.31825  0.74159  0.01914  1.0000
  H   H81       1.0  0.28257  0.65717  0.01504  1.0000
  O   O8        1.0  0.28478  0.60170  0.01066  1.0000
  C   C115      1.0  0.25816  0.57250  0.05130  1.0000
  H   H82       1.0  0.26838  0.56489  0.10652  1.0000
  C   C116      1.0  0.30538  0.71268  0.39392  1.0000
  C   C117      1.0  0.26992  0.69477  0.39301  1.0000
  C   C118      1.0  0.25293  0.71268  0.38055  1.0000
  N   N23       1.0  0.32262  0.69591  0.39032  1.0000
  C   C119      1.0  0.26490  0.80017  0.34940  1.0000
  H   H83       1.0  0.31208  0.67223  0.38857  1.0000
  H   H84       1.0  0.28989  0.81502  0.35538  1.0000
  C   C120      1.0  0.30038  0.59550  0.31987  1.0000
  C   C121      1.0  0.31940  0.57933  0.32907  1.0000
  C   C122      1.0  0.30226  0.54458  0.34549  1.0000
  N   N24       1.0  0.31479  0.62682  0.28508  1.0000
  H   H85       1.0  0.31650  0.53368  0.34898  1.0000
  C   C123      1.0  0.26193  0.91449  0.33519  1.0000
  C   C124      1.0  0.25543  0.89496  0.41445  1.0000
  C   C125      1.0  0.25533  0.86425  0.41391  1.0000
  C   C126      1.0  0.26156  0.85147  0.33370  1.0000
  H   H86       1.0  0.25952  0.94944  0.62723  1.0000
  C   C127      1.0  0.25041  0.59695  0.36940  1.0000
  C   C128      1.0  0.25692  0.61214  0.45593  1.0000
  C   C129      1.0  0.25704  0.64254  0.46945  1.0000
  C   C130      1.0  0.25194  0.65933  0.39647  1.0000
  N   N25       1.0  0.26689  0.65763  0.55147  1.0000
  C   C131      1.0  0.27531  0.64470  0.62173  1.0000
  C   C132      1.0  0.27469  0.61450  0.60948  1.0000
  N   N26       1.0  0.26641  0.60001  0.52663  1.0000
  C   C133      1.0  0.49170  0.24877  0.36263  1.0000
  C   C134      1.0  0.47161  0.21371  0.34949  1.0000
  C   C135      1.0  0.43762  0.19756  0.32414  1.0000
  H   H87       1.0  0.48166  0.19882  0.35677  1.0000
  H   H88       1.0  0.38435  0.18365  0.23497  1.0000
  H   H89       1.0  0.34601  0.20670  0.37833  1.0000
  C   C136      1.0  0.40590  0.27682  0.29580  1.0000
  C   C137      1.0  0.37568  0.27658  0.30950  1.0000
  H   H90       1.0  0.36391  0.27864  0.25362  1.0000
  H   H91       1.0  0.41445  0.27931  0.23088  1.0000
  O   O9        1.0  0.35702  0.23127  0.03204  1.0000
  C   C138      1.0  0.33852  0.24621  0.06490  1.0000
  H   H92       1.0  0.32783  0.23511  0.13009  1.0000
  H   H93       1.0  0.35457  0.27289  0.07432  1.0000
  C   C139      1.0  0.37494  0.11054  0.25966  1.0000
  C   C140      1.0  0.40515  0.14121  0.25810  1.0000
  H   H94       1.0  0.41634  0.15000  0.19695  1.0000
  H   H95       1.0  0.36558  0.09885  0.19925  1.0000
  C   C141      1.0  0.43434  0.18426  0.01158  1.0000
  H   H96       1.0  0.43975  0.19802  0.07480  1.0000
  H   H97       1.0  0.43582  0.16189  0.02362  1.0000
  C   C142      1.0  0.42244  0.21738  0.31120  1.0000
  C   C143      1.0  0.43904  0.25102  0.34146  1.0000
  C   C144      1.0  0.47280  0.26532  0.36771  1.0000
  N   N27       1.0  0.39220  0.20367  0.26983  1.0000
  H   H98       1.0  0.38231  0.21675  0.25299  1.0000
  H   H99       1.0  0.48361  0.28899  0.39159  1.0000
  H   H100      1.0  0.33643  0.13684  0.25798  1.0000
  C   C145      1.0  0.35829  0.26631  0.39259  1.0000
  C   C146      1.0  0.37528  0.26116  0.46507  1.0000
  C   C147      1.0  0.40575  0.26141  0.45146  1.0000
  C   C148      1.0  0.42040  0.26685  0.36438  1.0000
  N   N28       1.0  0.41840  0.25278  0.52265  1.0000
  C   C149      1.0  0.40394  0.24462  0.60527  1.0000
  C   C150      1.0  0.37346  0.24331  0.61852  1.0000
  N   N29       1.0  0.36027  0.25107  0.54709  1.0000
  H   H101      1.0  0.41475  0.23861  0.65615  1.0000
  C   C151      1.0  0.41694  0.16240  0.33450  1.0000
  C   C152      1.0  0.39804  0.14996  0.41499  1.0000
  C   C153      1.0  0.36765  0.11903  0.41653  1.0000
  C   C154      1.0  0.35467  0.09905  0.33794  1.0000
  N   N30       1.0  0.35038  0.10961  0.49563  1.0000
  C   C155      1.0  0.36092  0.12751  0.57289  1.0000
  C   C156      1.0  0.39104  0.15764  0.57230  1.0000
  N   N31       1.0  0.40786  0.16790  0.49293  1.0000
  H   H102      1.0  0.34723  0.11894  0.63057  1.0000
  O   O10       1.0  0.40169  0.17623  0.64941  1.0000
  H   H103      1.0  0.45310  0.19991  0.62880  1.0000
  C   C157      1.0  0.49170  0.74877  0.36263  1.0000
  C   C158      1.0  0.47161  0.71371  0.34949  1.0000
  C   C159      1.0  0.43763  0.69756  0.32414  1.0000
  H   H104      1.0  0.48166  0.69882  0.35677  1.0000
  H   H105      1.0  0.38435  0.68365  0.23497  1.0000
  H   H106      1.0  0.34601  0.70670  0.37833  1.0000
  C   C160      1.0  0.40590  0.77683  0.29580  1.0000
  C   C161      1.0  0.37568  0.77658  0.30950  1.0000
  H   H107      1.0  0.36391  0.77864  0.25362  1.0000
  H   H108      1.0  0.41445  0.77931  0.23088  1.0000
  O   O11       1.0  0.35702  0.73127  0.03204  1.0000
  C   C162      1.0  0.33853  0.74622  0.06490  1.0000
  H   H109      1.0  0.32783  0.73511  0.13009  1.0000
  H   H110      1.0  0.35457  0.77289  0.07432  1.0000
  C   C163      1.0  0.37494  0.61054  0.25966  1.0000
  C   C164      1.0  0.40515  0.64121  0.25810  1.0000
  H   H111      1.0  0.41634  0.65000  0.19695  1.0000
  H   H112      1.0  0.36559  0.59885  0.19925  1.0000
  C   C165      1.0  0.43434  0.68426  0.01158  1.0000
  H   H113      1.0  0.43976  0.69802  0.07480  1.0000
  H   H114      1.0  0.43582  0.66188  0.02362  1.0000
  C   C166      1.0  0.42244  0.71738  0.31120  1.0000
  C   C167      1.0  0.43904  0.75103  0.34146  1.0000
  C   C168      1.0  0.47280  0.76533  0.36771  1.0000
  N   N32       1.0  0.39220  0.70367  0.26983  1.0000
  H   H115      1.0  0.38231  0.71675  0.25299  1.0000
  H   H116      1.0  0.48361  0.78899  0.39159  1.0000
  H   H117      1.0  0.33643  0.63684  0.25798  1.0000
  C   C169      1.0  0.35829  0.76631  0.39259  1.0000
  C   C170      1.0  0.37528  0.76116  0.46507  1.0000
  C   C171      1.0  0.40575  0.76141  0.45146  1.0000
  C   C172      1.0  0.42040  0.76686  0.36438  1.0000
  N   N33       1.0  0.41840  0.75278  0.52265  1.0000
  C   C173      1.0  0.40394  0.74462  0.60527  1.0000
  C   C174      1.0  0.37346  0.74331  0.61852  1.0000
  N   N34       1.0  0.36027  0.75107  0.54709  1.0000
  H   H118      1.0  0.41475  0.73861  0.65615  1.0000
  C   C175      1.0  0.41694  0.66240  0.33451  1.0000
  C   C176      1.0  0.39805  0.64996  0.41499  1.0000
  C   C177      1.0  0.36765  0.61903  0.41653  1.0000
  C   C178      1.0  0.35467  0.59905  0.33794  1.0000
  N   N35       1.0  0.35039  0.60961  0.49563  1.0000
  C   C179      1.0  0.36092  0.62751  0.57289  1.0000
  C   C180      1.0  0.39104  0.65764  0.57230  1.0000
  N   N36       1.0  0.40786  0.66791  0.49293  1.0000
  H   H119      1.0  0.34723  0.61894  0.63057  1.0000
  O   O12       1.0  0.40169  0.67623  0.64941  1.0000
  H   H120      1.0  0.45310  0.69991  0.62880  1.0000
  C   C181      1.0  0.99170  0.24877  0.36263  1.0000
  C   C182      1.0  0.97161  0.21371  0.34949  1.0000
  C   C183      1.0  0.93763  0.19756  0.32414  1.0000
  H   H121      1.0  0.98166  0.19882  0.35677  1.0000
  C   C184      1.0  0.52755  0.26586  0.37457  1.0000
  C   C185      1.0  0.58220  0.31915  0.39079  1.0000
  C   C186      1.0  0.54731  0.30126  0.37798  1.0000
  H   H122      1.0  0.53636  0.31535  0.37079  1.0000
  H   H123      1.0  0.64665  0.34141  0.38315  1.0000
  H   H124      1.0  0.88435  0.18365  0.23497  1.0000
  C   C187      1.0  0.76866  0.24805  0.37527  1.0000
  C   C188      1.0  0.80416  0.26450  0.37772  1.0000
  C   C189      1.0  0.82279  0.24811  0.38931  1.0000
  H   H125      1.0  0.81762  0.28967  0.37393  1.0000
  C   C190      1.0  0.74991  0.26518  0.36402  1.0000
  C   C191      1.0  0.69502  0.26315  0.34562  1.0000
  C   C192      1.0  0.71450  0.24879  0.37113  1.0000
  H   H126      1.0  0.70171  0.22525  0.39584  1.0000
  H   H127      1.0  0.67211  0.29692  0.25593  1.0000
  H   H128      1.0  0.84601  0.20670  0.37833  1.0000
  C   C193      1.0  0.76699  0.02492  0.35587  1.0000
  C   C194      1.0  0.75093  0.04418  0.36450  1.0000
  C   C195      1.0  0.76633  0.07856  0.34556  1.0000
  H   H129      1.0  0.72663  0.03322  0.38240  1.0000
  C   C196      1.0  0.74884  0.48884  0.35494  1.0000
  C   C197      1.0  0.74656  0.43438  0.32625  1.0000
  C   C198      1.0  0.76426  0.46901  0.34448  1.0000
  H   H130      1.0  0.78935  0.47971  0.34942  1.0000
  H   H131      1.0  0.70602  0.37712  0.25349  1.0000
  H   H132      1.0  0.80198  0.13686  0.26679  1.0000
  C   C199      1.0  0.60608  0.23718  0.31330  1.0000
  C   C200      1.0  0.63603  0.23682  0.30050  1.0000
  H   H133      1.0  0.63129  0.27869  0.01423  1.0000
  H   H134      1.0  0.64208  0.23404  0.23589  1.0000
  H   H135      1.0  0.59232  0.23501  0.25704  1.0000
  O   O13       1.0  0.68957  0.28226  0.01014  1.0000
  C   C201      1.0  0.69276  0.25607  0.05125  1.0000
  H   H136      1.0  0.71062  0.26667  0.10628  1.0000
  H   H137      1.0  0.70197  0.24483  0.00297  1.0000
  H   H138      1.0  0.66920  0.23695  0.07945  1.0000
  C   C202      1.0  0.77038  0.37221  0.25643  1.0000
  C   C203      1.0  0.77064  0.40278  0.25724  1.0000
  H   H139      1.0  0.77284  0.41427  0.19673  1.0000
  H   H140      1.0  0.77251  0.36316  0.19529  1.0000
  C   C204      1.0  0.75798  0.43139  0.01034  1.0000
  H   H141      1.0  0.74990  0.43668  0.07421  1.0000
  H   H142      1.0  0.78250  0.43420  0.02018  1.0000
  C   C205      1.0  0.63547  0.40265  0.29746  1.0000
  C   C206      1.0  0.60587  0.37215  0.31147  1.0000
  H   H143      1.0  0.59175  0.36029  0.25611  1.0000
  H   H144      1.0  0.64122  0.41131  0.23255  1.0000
  O   O14       1.0  0.63529  0.35287  0.03094  1.0000
  C   C207      1.0  0.60263  0.33724  0.06953  1.0000
  H   H145      1.0  0.60336  0.32619  0.13382  1.0000
  H   H146      1.0  0.58467  0.31751  0.02588  1.0000
  H   H147      1.0  0.59462  0.35527  0.08216  1.0000
  C   C208      1.0  0.90590  0.27682  0.29580  1.0000
  C   C209      1.0  0.87568  0.27658  0.30950  1.0000
  H   H148      1.0  0.86391  0.27864  0.25362  1.0000
  H   H149      1.0  0.91445  0.27931  0.23088  1.0000
  O   O15       1.0  0.85702  0.23127  0.03204  1.0000
  C   C210      1.0  0.83852  0.24621  0.06490  1.0000
  H   H150      1.0  0.82784  0.23511  0.13009  1.0000
  H   H151      1.0  0.81825  0.24159  0.01914  1.0000
  H   H152      1.0  0.85457  0.27289  0.07432  1.0000
  C   C211      1.0  0.74152  0.14190  0.31347  1.0000
  C   C212      1.0  0.74038  0.11125  0.30061  1.0000
  H   H153      1.0  0.78257  0.15716  0.01504  1.0000
  H   H154      1.0  0.73776  0.10255  0.23587  1.0000
  H   H155      1.0  0.73971  0.15375  0.25729  1.0000
  O   O16       1.0  0.78478  0.10170  0.01066  1.0000
  C   C213      1.0  0.75816  0.07250  0.05130  1.0000
  H   H156      1.0  0.76838  0.06489  0.10652  1.0000
  H   H157      1.0  0.74675  0.05212  0.00279  1.0000
  H   H158      1.0  0.73925  0.07731  0.07918  1.0000
  C   C214      1.0  0.87493  0.11054  0.25966  1.0000
  C   C215      1.0  0.90515  0.14121  0.25810  1.0000
  H   H159      1.0  0.91634  0.15000  0.19695  1.0000
  H   H160      1.0  0.86559  0.09885  0.19925  1.0000
  C   C216      1.0  0.93434  0.18426  0.01158  1.0000
  H   H161      1.0  0.93976  0.19802  0.07480  1.0000
  H   H162      1.0  0.93582  0.16189  0.02362  1.0000
  C   C217      1.0  0.92244  0.21738  0.31120  1.0000
  C   C218      1.0  0.93904  0.25102  0.34146  1.0000
  C   C219      1.0  0.97280  0.26532  0.36771  1.0000
  N   N37       1.0  0.89220  0.20367  0.26983  1.0000
  C   C220      1.0  0.54646  0.24931  0.37952  1.0000
  C   C221      1.0  0.58146  0.26565  0.39150  1.0000
  C   C222      1.0  0.59961  0.30112  0.39367  1.0000
  N   N38       1.0  0.63361  0.31780  0.38932  1.0000
  H   H163      1.0  0.64619  0.30685  0.38010  1.0000
  H   H164      1.0  0.88231  0.21675  0.25299  1.0000
  H   H165      1.0  0.98361  0.28899  0.39159  1.0000
  H   H166      1.0  0.53465  0.22410  0.37719  1.0000
  C   C223      1.0  0.80538  0.21268  0.39392  1.0000
  C   C224      1.0  0.76992  0.19477  0.39301  1.0000
  C   C225      1.0  0.75293  0.21268  0.38055  1.0000
  N   N39       1.0  0.82262  0.19591  0.39032  1.0000
  C   C226      1.0  0.76490  0.30017  0.34940  1.0000
  C   C227      1.0  0.74702  0.31629  0.32439  1.0000
  C   C228      1.0  0.71192  0.29653  0.31343  1.0000
  N   N40       1.0  0.69515  0.30997  0.27204  1.0000
  H   H167      1.0  0.70715  0.32989  0.23661  1.0000
  H   H168      1.0  0.81208  0.17223  0.38857  1.0000
  H   H169      1.0  0.72783  0.19864  0.37475  1.0000
  H   H170      1.0  0.78989  0.31502  0.35538  1.0000
  C   C229      1.0  0.80038  0.09550  0.31987  1.0000
  C   C230      1.0  0.81940  0.07933  0.32907  1.0000
  C   C231      1.0  0.80226  0.04458  0.34549  1.0000
  N   N41       1.0  0.81480  0.12682  0.28508  1.0000
  C   C232      1.0  0.71346  0.46976  0.36173  1.0000
  C   C233      1.0  0.69435  0.43553  0.34102  1.0000
  C   C234      1.0  0.71142  0.41848  0.31573  1.0000
  N   N42       1.0  0.69447  0.38727  0.28026  1.0000
  H   H171      1.0  0.67166  0.37741  0.26144  1.0000
  H   H172      1.0  0.83643  0.13684  0.25798  1.0000
  H   H173      1.0  0.81650  0.03368  0.34898  1.0000
  H   H174      1.0  0.70017  0.48079  0.37943  1.0000
  C   C235      1.0  0.66060  0.24743  0.36889  1.0000
  C   C236      1.0  0.65153  0.25356  0.45544  1.0000
  C   C237      1.0  0.62084  0.25296  0.46886  1.0000
  C   C238      1.0  0.59865  0.24736  0.39610  1.0000
  N   N43       1.0  0.61533  0.26266  0.55076  1.0000
  C   C239      1.0  0.63673  0.27159  0.62102  1.0000
  C   C240      1.0  0.66667  0.27167  0.60892  1.0000
  N   N44       1.0  0.67316  0.26356  0.52618  1.0000
  C   C241      1.0  0.76193  0.41449  0.33519  1.0000
  C   C242      1.0  0.75542  0.39496  0.41445  1.0000
  C   C243      1.0  0.75533  0.36425  0.41391  1.0000
  C   C244      1.0  0.76156  0.35147  0.33370  1.0000
  N   N45       1.0  0.74764  0.34667  0.49245  1.0000
  C   C245      1.0  0.74101  0.35718  0.57093  1.0000
  C   C246      1.0  0.74154  0.38757  0.57232  1.0000
  N   N46       1.0  0.74796  0.40470  0.49353  1.0000
  H   H175      1.0  0.73600  0.34325  0.62808  1.0000
  O   O17       1.0  0.73417  0.39810  0.65066  1.0000
  H   H176      1.0  0.75952  0.44944  0.62723  1.0000
  C   C247      1.0  0.59982  0.35461  0.39399  1.0000
  C   C248      1.0  0.62202  0.37144  0.46628  1.0000
  C   C249      1.0  0.65175  0.40226  0.45234  1.0000
  C   C250      1.0  0.66009  0.41722  0.36554  1.0000
  N   N47       1.0  0.67338  0.41509  0.52273  1.0000
  C   C251      1.0  0.66781  0.40043  0.60494  1.0000
  C   C252      1.0  0.63906  0.36962  0.61842  1.0000
  N   N48       1.0  0.61779  0.35623  0.54772  1.0000
  H   H177      1.0  0.68484  0.41135  0.65528  1.0000
  C   C253      1.0  0.85828  0.26631  0.39259  1.0000
  C   C254      1.0  0.87528  0.26116  0.46507  1.0000
  C   C255      1.0  0.90575  0.26141  0.45146  1.0000
  C   C256      1.0  0.92040  0.26685  0.36438  1.0000
  N   N49       1.0  0.91840  0.25278  0.52265  1.0000
  C   C257      1.0  0.90394  0.24462  0.60527  1.0000
  C   C258      1.0  0.87346  0.24331  0.61852  1.0000
  N   N50       1.0  0.86027  0.25107  0.54709  1.0000
  H   H178      1.0  0.91475  0.23861  0.65615  1.0000
  C   C259      1.0  0.75041  0.09695  0.36940  1.0000
  C   C260      1.0  0.75692  0.11214  0.45594  1.0000
  C   C261      1.0  0.75704  0.14254  0.46945  1.0000
  C   C262      1.0  0.75194  0.15933  0.39647  1.0000
  N   N51       1.0  0.76689  0.15763  0.55147  1.0000
  C   C263      1.0  0.77531  0.14470  0.62173  1.0000
  C   C264      1.0  0.77469  0.11450  0.60948  1.0000
  N   N52       1.0  0.76641  0.10000  0.52663  1.0000
  C   C265      1.0  0.91694  0.16240  0.33450  1.0000
  C   C266      1.0  0.89804  0.14996  0.41499  1.0000
  C   C267      1.0  0.86765  0.11903  0.41653  1.0000
  C   C268      1.0  0.85467  0.09905  0.33794  1.0000
  N   N53       1.0  0.85038  0.10961  0.49563  1.0000
  C   C269      1.0  0.86092  0.12751  0.57289  1.0000
  C   C270      1.0  0.89104  0.15764  0.57230  1.0000
  N   N54       1.0  0.90786  0.16790  0.49293  1.0000
  H   H179      1.0  0.84723  0.11894  0.63057  1.0000
  O   O18       1.0  0.90169  0.17623  0.64941  1.0000
  H   H180      1.0  0.95310  0.19991  0.62880  1.0000
  C   C271      1.0  0.99170  0.74877  0.36263  1.0000
  C   C272      1.0  0.97161  0.71371  0.34949  1.0000
  C   C273      1.0  0.93763  0.69756  0.32414  1.0000
  H   H181      1.0  0.98166  0.69882  0.35677  1.0000
  C   C274      1.0  0.52755  0.76586  0.37457  1.0000
  C   C275      1.0  0.58220  0.81915  0.39079  1.0000
  C   C276      1.0  0.54731  0.80126  0.37798  1.0000
  H   H182      1.0  0.53636  0.81535  0.37079  1.0000
  H   H183      1.0  0.64666  0.84141  0.38315  1.0000
  H   H184      1.0  0.88435  0.68365  0.23497  1.0000
  C   C277      1.0  0.76866  0.74805  0.37527  1.0000
  C   C278      1.0  0.80416  0.76450  0.37772  1.0000
  C   C279      1.0  0.82279  0.74811  0.38931  1.0000
  H   H185      1.0  0.81762  0.78967  0.37393  1.0000
  C   C280      1.0  0.74991  0.76518  0.36402  1.0000
  C   C281      1.0  0.69502  0.76315  0.34562  1.0000
  C   C282      1.0  0.71450  0.74879  0.37113  1.0000
  H   H186      1.0  0.70171  0.72525  0.39584  1.0000
  H   H187      1.0  0.67211  0.79692  0.25593  1.0000
  H   H188      1.0  0.84601  0.70670  0.37833  1.0000
  C   C283      1.0  0.76700  0.52492  0.35587  1.0000
  C   C284      1.0  0.75093  0.54418  0.36450  1.0000
  C   C285      1.0  0.76633  0.57856  0.34556  1.0000
  H   H189      1.0  0.72663  0.53322  0.38240  1.0000
  C   C286      1.0  0.74884  0.98884  0.35494  1.0000
  C   C287      1.0  0.74657  0.93439  0.32625  1.0000
  C   C288      1.0  0.76426  0.96901  0.34448  1.0000
  H   H190      1.0  0.78935  0.97971  0.34942  1.0000
  H   H191      1.0  0.70602  0.87712  0.25349  1.0000
  H   H192      1.0  0.80197  0.63686  0.26679  1.0000
  C   C289      1.0  0.60609  0.73718  0.31330  1.0000
  C   C290      1.0  0.63603  0.73682  0.30050  1.0000
  H   H193      1.0  0.63129  0.77870  0.01423  1.0000
  H   H194      1.0  0.64208  0.73404  0.23589  1.0000
  H   H195      1.0  0.59232  0.73501  0.25704  1.0000
  O   O19       1.0  0.68957  0.78227  0.01014  1.0000
  C   C291      1.0  0.69276  0.75607  0.05125  1.0000
  H   H196      1.0  0.71062  0.76667  0.10628  1.0000
  H   H197      1.0  0.70197  0.74483  0.00297  1.0000
  H   H198      1.0  0.66920  0.73695  0.07945  1.0000
  C   C292      1.0  0.77038  0.87221  0.25643  1.0000
  C   C293      1.0  0.77064  0.90278  0.25724  1.0000
  H   H199      1.0  0.77284  0.91427  0.19673  1.0000
  H   H200      1.0  0.77251  0.86315  0.19529  1.0000
  C   C294      1.0  0.75798  0.93139  0.01034  1.0000
  H   H201      1.0  0.74990  0.93668  0.07421  1.0000
  H   H202      1.0  0.78250  0.93420  0.02018  1.0000
  C   C295      1.0  0.63547  0.90265  0.29746  1.0000
  C   C296      1.0  0.60587  0.87215  0.31147  1.0000
  H   H203      1.0  0.59175  0.86029  0.25611  1.0000
  H   H204      1.0  0.64122  0.91131  0.23255  1.0000
  O   O20       1.0  0.63529  0.85287  0.03094  1.0000
  C   C297      1.0  0.60264  0.83724  0.06953  1.0000
  H   H205      1.0  0.60336  0.82619  0.13382  1.0000
  H   H206      1.0  0.58467  0.81751  0.02588  1.0000
  H   H207      1.0  0.59462  0.85527  0.08216  1.0000
  C   C298      1.0  0.90590  0.77683  0.29580  1.0000
  C   C299      1.0  0.87568  0.77658  0.30950  1.0000
  H   H208      1.0  0.86391  0.77864  0.25362  1.0000
  H   H209      1.0  0.91445  0.77931  0.23088  1.0000
  O   O21       1.0  0.85702  0.73127  0.03204  1.0000
  C   C300      1.0  0.83852  0.74622  0.06490  1.0000
  H   H210      1.0  0.82784  0.73511  0.13009  1.0000
  H   H211      1.0  0.81825  0.74159  0.01914  1.0000
  H   H212      1.0  0.85457  0.77289  0.07432  1.0000
  C   C301      1.0  0.74152  0.64190  0.31347  1.0000
  C   C302      1.0  0.74038  0.61125  0.30061  1.0000
  H   H213      1.0  0.78257  0.65717  0.01504  1.0000
  H   H214      1.0  0.73776  0.60255  0.23587  1.0000
  H   H215      1.0  0.73971  0.65375  0.25729  1.0000
  O   O22       1.0  0.78478  0.60170  0.01066  1.0000
  C   C303      1.0  0.75816  0.57250  0.05130  1.0000
  H   H216      1.0  0.76838  0.56489  0.10652  1.0000
  H   H217      1.0  0.74675  0.55213  0.00279  1.0000
  H   H218      1.0  0.73925  0.57732  0.07918  1.0000
  C   C304      1.0  0.87494  0.61054  0.25966  1.0000
  C   C305      1.0  0.90515  0.64121  0.25810  1.0000
  H   H219      1.0  0.91634  0.65000  0.19695  1.0000
  H   H220      1.0  0.86559  0.59885  0.19925  1.0000
  C   C306      1.0  0.93434  0.68426  0.01158  1.0000
  H   H221      1.0  0.93976  0.69802  0.07480  1.0000
  H   H222      1.0  0.93582  0.66188  0.02362  1.0000
  C   C307      1.0  0.92244  0.71738  0.31120  1.0000
  C   C308      1.0  0.93904  0.75103  0.34146  1.0000
  C   C309      1.0  0.97280  0.76533  0.36771  1.0000
  N   N55       1.0  0.89220  0.70367  0.26983  1.0000
  C   C310      1.0  0.54646  0.74931  0.37952  1.0000
  C   C311      1.0  0.58146  0.76565  0.39150  1.0000
  C   C312      1.0  0.59961  0.80112  0.39367  1.0000
  N   N56       1.0  0.63361  0.81780  0.38932  1.0000
  H   H223      1.0  0.64619  0.80686  0.38010  1.0000
  H   H224      1.0  0.88231  0.71675  0.25299  1.0000
  H   H225      1.0  0.98361  0.78899  0.39159  1.0000
  H   H226      1.0  0.53465  0.72410  0.37719  1.0000
  C   C313      1.0  0.80538  0.71268  0.39392  1.0000
  C   C314      1.0  0.76992  0.69477  0.39301  1.0000
  C   C315      1.0  0.75293  0.71268  0.38055  1.0000
  N   N57       1.0  0.82262  0.69591  0.39032  1.0000
  C   C316      1.0  0.76490  0.80017  0.34940  1.0000
  C   C317      1.0  0.74702  0.81630  0.32439  1.0000
  C   C318      1.0  0.71192  0.79653  0.31343  1.0000
  N   N58       1.0  0.69516  0.80997  0.27204  1.0000
  H   H227      1.0  0.70715  0.82989  0.23661  1.0000
  H   H228      1.0  0.81208  0.67223  0.38857  1.0000
  H   H229      1.0  0.72783  0.69864  0.37475  1.0000
  H   H230      1.0  0.78990  0.81502  0.35538  1.0000
  C   C319      1.0  0.80038  0.59550  0.31987  1.0000
  C   C320      1.0  0.81940  0.57933  0.32907  1.0000
  C   C321      1.0  0.80226  0.54458  0.34549  1.0000
  N   N59       1.0  0.81479  0.62682  0.28508  1.0000
  C   C322      1.0  0.71346  0.96976  0.36173  1.0000
  C   C323      1.0  0.69435  0.93553  0.34102  1.0000
  C   C324      1.0  0.71142  0.91848  0.31573  1.0000
  N   N60       1.0  0.69447  0.88727  0.28026  1.0000
  H   H231      1.0  0.67166  0.87741  0.26144  1.0000
  H   H232      1.0  0.83643  0.63684  0.25798  1.0000
  H   H233      1.0  0.81650  0.53368  0.34898  1.0000
  H   H234      1.0  0.70017  0.98079  0.37943  1.0000
  C   C325      1.0  0.66060  0.74743  0.36889  1.0000
  C   C326      1.0  0.65153  0.75357  0.45544  1.0000
  C   C327      1.0  0.62084  0.75296  0.46886  1.0000
  C   C328      1.0  0.59865  0.74736  0.39610  1.0000
  N   N61       1.0  0.61533  0.76266  0.55076  1.0000
  C   C329      1.0  0.63673  0.77158  0.62102  1.0000
  C   C330      1.0  0.66667  0.77167  0.60892  1.0000
  N   N62       1.0  0.67316  0.76356  0.52618  1.0000
  C   C331      1.0  0.76193  0.91449  0.33519  1.0000
  C   C332      1.0  0.75543  0.89496  0.41445  1.0000
  C   C333      1.0  0.75533  0.86425  0.41391  1.0000
  C   C334      1.0  0.76156  0.85147  0.33370  1.0000
  N   N63       1.0  0.74765  0.84667  0.49245  1.0000
  C   C335      1.0  0.74101  0.85718  0.57093  1.0000
  C   C336      1.0  0.74154  0.88757  0.57232  1.0000
  N   N64       1.0  0.74796  0.90470  0.49353  1.0000
  H   H235      1.0  0.73600  0.84325  0.62808  1.0000
  O   O23       1.0  0.73418  0.89810  0.65066  1.0000
  H   H236      1.0  0.75952  0.94944  0.62723  1.0000
  C   C337      1.0  0.59982  0.85461  0.39399  1.0000
  C   C338      1.0  0.62202  0.87144  0.46628  1.0000
  C   C339      1.0  0.65175  0.90226  0.45234  1.0000
  C   C340      1.0  0.66009  0.91722  0.36554  1.0000
  N   N65       1.0  0.67338  0.91509  0.52273  1.0000
  C   C341      1.0  0.66781  0.90043  0.60494  1.0000
  C   C342      1.0  0.63906  0.86962  0.61842  1.0000
  N   N66       1.0  0.61779  0.85623  0.54772  1.0000
  H   H237      1.0  0.68485  0.91135  0.65528  1.0000
  C   C343      1.0  0.85828  0.76631  0.39259  1.0000
  C   C344      1.0  0.87528  0.76116  0.46507  1.0000
  C   C345      1.0  0.90575  0.76141  0.45146  1.0000
  C   C346      1.0  0.92040  0.76686  0.36438  1.0000
  N   N67       1.0  0.91840  0.75278  0.52265  1.0000
  C   C347      1.0  0.90394  0.74462  0.60527  1.0000
  C   C348      1.0  0.87346  0.74331  0.61852  1.0000
  N   N68       1.0  0.86027  0.75107  0.54709  1.0000
  H   H238      1.0  0.91475  0.73861  0.65615  1.0000
  C   C349      1.0  0.75041  0.59695  0.36940  1.0000
  C   C350      1.0  0.75692  0.61214  0.45593  1.0000
  C   C351      1.0  0.75704  0.64254  0.46945  1.0000
  C   C352      1.0  0.75194  0.65933  0.39647  1.0000
  N   N69       1.0  0.76689  0.65763  0.55147  1.0000
  C   C353      1.0  0.77531  0.64470  0.62173  1.0000
  C   C354      1.0  0.77469  0.61450  0.60948  1.0000
  N   N70       1.0  0.76641  0.60001  0.52663  1.0000
  C   C355      1.0  0.91694  0.66240  0.33451  1.0000
  C   C356      1.0  0.89805  0.64996  0.41499  1.0000
  C   C357      1.0  0.86765  0.61903  0.41653  1.0000
  C   C358      1.0  0.85467  0.59905  0.33794  1.0000
  N   N71       1.0  0.85039  0.60961  0.49563  1.0000
  C   C359      1.0  0.86092  0.62751  0.57289  1.0000
  C   C360      1.0  0.89104  0.65764  0.57230  1.0000
  N   N72       1.0  0.90786  0.66791  0.49293  1.0000
  H   H239      1.0  0.84723  0.61894  0.63057  1.0000
  O   O24       1.0  0.90169  0.67623  0.64941  1.0000
  H   H240      1.0  0.95310  0.69991  0.62880  1.0000
