data_image0
_chemical_formula_structural       C3HCH3CHC3HCH3CHC3HCH3CHC3HCH3CHC3HCH3CHC3HCH3CHC3HCH3CHC3HCH3CHC3HCH3CHC3HCH3CHC3HCH3CHC3HCH3CHC3HCH3CHC3HCH3CHC3HCH3CHC3HCH3CHC3HCH3CHC3HCH3CHC3HCH3CHC3HCH3CHC3HCH3CHC3HCH3CHC3HCH3CHC3HCH3CHC6H3N3C6H3N3C6H3N3C6H3N3C6H3N3C6H3N3C6H3N3C6H3N3C6H3N3C6H3N3C6H3N3C6H3N3C6H3N3C6H3N3C6H3N3C6H3N3C3HCH3CHC3HCH3CHC3HCH3CHC3HCH3CHC3HCH3CHC3HCH3CHC3HCH3CHC3HCH3CHC3HCH3CHC3HCH3CHC3HCH3CHC3HCH3CHC3HCH3CHC3HCH3CHC3HCH3CHC3HCH3CHC3HCH3CHC3HCH3CHC3HCH3CHC3HCH3CHC3HCH3CHC3HCH3CHC3HCH3CHC3HCH3CH
_chemical_formula_sum              "C336 H288 N48"
_cell_length_a       67.8862
_cell_length_b       53.2332
_cell_length_c       14.6727
_cell_angle_alpha    90
_cell_angle_beta     90
_cell_angle_gamma    90

_space_group_name_H-M_alt    "P 1"
_space_group_IT_number       1

loop_
  _space_group_symop_operation_xyz
  'x, y, z'

loop_
  _atom_site_type_symbol
  _atom_site_label
  _atom_site_symmetry_multiplicity
  _atom_site_fract_x
  _atom_site_fract_y
  _atom_site_fract_z
  _atom_site_occupancy
  C   C1        1.0  0.00797  0.03815  0.35885  1.0000
  C   C2        1.0  0.01596  0.02596  0.28059  1.0000
  C   C3        1.0  0.01927  0.99955  0.28225  1.0000
  H   H1        1.0  0.02526  0.99124  0.22559  1.0000
  C   C4        1.0  0.02084  0.03932  0.19430  1.0000
  H   H2        1.0  0.01745  0.05929  0.19593  1.0000
  H   H3        1.0  0.01252  0.03108  0.13803  1.0000
  H   H4        1.0  0.03655  0.03732  0.17999  1.0000
  C   C5        1.0  0.00244  0.06370  0.36217  1.0000
  H   H5        1.0  0.98825  0.06721  0.37247  1.0000
  C   C6        1.0  0.50793  0.53815  0.35899  1.0000
  C   C7        1.0  0.51595  0.52596  0.28078  1.0000
  C   C8        1.0  0.51925  0.49955  0.28245  1.0000
  H   H6        1.0  0.52526  0.49124  0.22581  1.0000
  C   C9        1.0  0.52084  0.53932  0.19451  1.0000
  H   H7        1.0  0.51743  0.55929  0.19607  1.0000
  H   H8        1.0  0.51255  0.53106  0.13819  1.0000
  H   H9        1.0  0.53655  0.53734  0.18029  1.0000
  C   C10       1.0  0.50244  0.56371  0.36238  1.0000
  H   H10       1.0  0.48826  0.56724  0.37300  1.0000
  C   C11       1.0  0.10615  0.22176  0.34238  1.0000
  C   C12       1.0  0.09390  0.21485  0.26741  1.0000
  C   C13       1.0  0.07973  0.19542  0.27822  1.0000
  H   H11       1.0  0.07126  0.19041  0.22322  1.0000
  C   C14       1.0  0.09516  0.22680  0.17569  1.0000
  H   H12       1.0  0.10692  0.24063  0.17000  1.0000
  H   H13       1.0  0.08126  0.23617  0.16007  1.0000
  H   H14       1.0  0.09787  0.21243  0.12406  1.0000
  C   C15       1.0  0.11838  0.24303  0.34011  1.0000
  H   H15       1.0  0.11187  0.25904  0.32288  1.0000
  C   C16       1.0  0.91615  0.80056  0.34456  1.0000
  C   C17       1.0  0.92845  0.80752  0.26981  1.0000
  C   C18       1.0  0.94262  0.82693  0.28096  1.0000
  H   H16       1.0  0.95111  0.83198  0.22609  1.0000
  C   C19       1.0  0.92723  0.79564  0.17798  1.0000
  H   H17       1.0  0.91546  0.78182  0.17205  1.0000
  H   H18       1.0  0.94114  0.78627  0.16240  1.0000
  H   H19       1.0  0.92454  0.81005  0.12645  1.0000
  C   C20       1.0  0.90395  0.77927  0.34208  1.0000
  H   H20       1.0  0.91048  0.76328  0.32491  1.0000
  C   C21       1.0  0.94965  0.18990  0.33993  1.0000
  C   C22       1.0  0.93718  0.19701  0.26600  1.0000
  C   C23       1.0  0.92091  0.21326  0.28185  1.0000
  H   H21       1.0  0.91279  0.21927  0.22709  1.0000
  C   C24       1.0  0.94066  0.18891  0.17014  1.0000
  H   H22       1.0  0.95272  0.17553  0.16325  1.0000
  H   H23       1.0  0.94403  0.20526  0.12800  1.0000
  H   H24       1.0  0.92743  0.17986  0.14344  1.0000
  C   C25       1.0  0.96833  0.17915  0.32641  1.0000
  H   H25       1.0  0.97739  0.18849  0.28532  1.0000
  C   C26       1.0  0.07267  0.83235  0.34154  1.0000
  C   C27       1.0  0.08516  0.82523  0.26769  1.0000
  C   C28       1.0  0.10145  0.80902  0.28372  1.0000
  H   H26       1.0  0.10958  0.80299  0.22902  1.0000
  C   C29       1.0  0.08171  0.83330  0.17175  1.0000
  H   H27       1.0  0.06964  0.84665  0.16470  1.0000
  H   H28       1.0  0.07837  0.81693  0.12967  1.0000
  H   H29       1.0  0.09495  0.84235  0.14511  1.0000
  C   C30       1.0  0.05401  0.84313  0.32775  1.0000
  H   H30       1.0  0.04497  0.83380  0.28653  1.0000
  C   C31       1.0  0.60617  0.72177  0.34004  1.0000
  C   C32       1.0  0.59391  0.71476  0.26520  1.0000
  C   C33       1.0  0.57974  0.69534  0.27633  1.0000
  H   H31       1.0  0.57129  0.69025  0.22140  1.0000
  C   C34       1.0  0.59518  0.72658  0.17327  1.0000
  H   H32       1.0  0.60694  0.74041  0.16737  1.0000
  H   H33       1.0  0.58127  0.73592  0.15746  1.0000
  H   H34       1.0  0.59790  0.71214  0.12191  1.0000
  C   C35       1.0  0.61839  0.74304  0.33745  1.0000
  H   H35       1.0  0.61188  0.75904  0.32004  1.0000
  C   C36       1.0  0.41617  0.30053  0.34214  1.0000
  C   C37       1.0  0.42847  0.30760  0.26754  1.0000
  C   C38       1.0  0.44264  0.32700  0.27907  1.0000
  H   H36       1.0  0.45112  0.33213  0.22431  1.0000
  C   C39       1.0  0.42725  0.29585  0.17547  1.0000
  H   H37       1.0  0.41550  0.28203  0.16928  1.0000
  H   H38       1.0  0.44116  0.28652  0.15972  1.0000
  H   H39       1.0  0.42456  0.31033  0.12423  1.0000
  C   C40       1.0  0.40395  0.27926  0.33923  1.0000
  H   H40       1.0  0.41046  0.26328  0.32170  1.0000
  C   C41       1.0  0.44964  0.68994  0.34150  1.0000
  C   C42       1.0  0.43716  0.69717  0.26776  1.0000
  C   C43       1.0  0.42090  0.71339  0.28399  1.0000
  H   H41       1.0  0.41276  0.71948  0.22938  1.0000
  C   C44       1.0  0.44061  0.68920  0.17172  1.0000
  H   H42       1.0  0.45266  0.67583  0.16451  1.0000
  H   H43       1.0  0.44398  0.70561  0.12989  1.0000
  H   H44       1.0  0.42736  0.68020  0.14491  1.0000
  C   C45       1.0  0.46831  0.67920  0.32765  1.0000
  H   H45       1.0  0.47735  0.68859  0.28656  1.0000
  C   C46       1.0  0.57269  0.33232  0.34312  1.0000
  C   C47       1.0  0.58520  0.32509  0.26946  1.0000
  C   C48       1.0  0.60147  0.30889  0.28587  1.0000
  H   H46       1.0  0.60961  0.30277  0.23132  1.0000
  C   C49       1.0  0.58177  0.33302  0.17335  1.0000
  H   H47       1.0  0.56971  0.34638  0.16598  1.0000
  H   H48       1.0  0.57843  0.31659  0.13158  1.0000
  H   H49       1.0  0.59502  0.34201  0.14660  1.0000
  C   C50       1.0  0.55404  0.34309  0.32900  1.0000
  H   H50       1.0  0.54502  0.33372  0.28776  1.0000
  C   C51       1.0  0.38241  0.15180  0.34068  1.0000
  C   C52       1.0  0.38915  0.13562  0.26975  1.0000
  C   C53       1.0  0.39359  0.11019  0.29018  1.0000
  H   H51       1.0  0.39939  0.09906  0.23981  1.0000
  C   C54       1.0  0.39225  0.14395  0.17382  1.0000
  H   H52       1.0  0.38741  0.16314  0.16111  1.0000
  H   H53       1.0  0.38398  0.13178  0.12766  1.0000
  H   H54       1.0  0.40787  0.14269  0.15672  1.0000
  C   C55       1.0  0.38101  0.17783  0.32994  1.0000
  H   H55       1.0  0.39224  0.18665  0.30055  1.0000
  C   C56       1.0  0.63988  0.87051  0.34001  1.0000
  C   C57       1.0  0.63319  0.88668  0.26897  1.0000
  C   C58       1.0  0.62869  0.91209  0.28936  1.0000
  H   H56       1.0  0.62289  0.92321  0.23893  1.0000
  C   C59       1.0  0.63017  0.87836  0.17297  1.0000
  H   H57       1.0  0.63504  0.85918  0.16028  1.0000
  H   H58       1.0  0.63845  0.89055  0.12696  1.0000
  H   H59       1.0  0.61455  0.87958  0.15564  1.0000
  C   C60       1.0  0.64132  0.84448  0.32918  1.0000
  H   H60       1.0  0.63012  0.83566  0.29957  1.0000
  C   C61       1.0  0.63028  0.09997  0.33817  1.0000
  C   C62       1.0  0.63714  0.11557  0.26594  1.0000
  C   C63       1.0  0.64180  0.14103  0.28425  1.0000
  H   H61       1.0  0.64579  0.15240  0.23089  1.0000
  C   C64       1.0  0.63921  0.10687  0.16985  1.0000
  H   H62       1.0  0.63643  0.08685  0.16130  1.0000
  H   H63       1.0  0.65419  0.11046  0.14605  1.0000
  H   H64       1.0  0.62894  0.11714  0.12640  1.0000
  C   C65       1.0  0.62110  0.07697  0.32154  1.0000
  H   H65       1.0  0.61024  0.07709  0.27593  1.0000
  C   C66       1.0  0.39221  0.92236  0.33583  1.0000
  C   C67       1.0  0.38544  0.90676  0.26341  1.0000
  C   C68       1.0  0.38074  0.88130  0.28154  1.0000
  H   H66       1.0  0.37679  0.86994  0.22810  1.0000
  C   C69       1.0  0.38350  0.91548  0.16730  1.0000
  H   H67       1.0  0.38635  0.93549  0.15889  1.0000
  H   H68       1.0  0.36854  0.91195  0.14311  1.0000
  H   H69       1.0  0.39381  0.90519  0.12407  1.0000
  C   C70       1.0  0.40146  0.94533  0.31969  1.0000
  H   H70       1.0  0.41246  0.94521  0.27483  1.0000
  C   C71       1.0  0.88237  0.65179  0.34351  1.0000
  C   C72       1.0  0.88904  0.63567  0.27227  1.0000
  C   C73       1.0  0.89352  0.61023  0.29233  1.0000
  H   H71       1.0  0.89928  0.59914  0.24173  1.0000
  C   C74       1.0  0.89205  0.64407  0.17634  1.0000
  H   H72       1.0  0.88716  0.66324  0.16383  1.0000
  H   H73       1.0  0.88377  0.63190  0.13023  1.0000
  H   H74       1.0  0.90766  0.64287  0.15897  1.0000
  C   C75       1.0  0.88091  0.67783  0.33302  1.0000
  H   H75       1.0  0.89201  0.68666  0.30264  1.0000
  C   C76       1.0  0.13993  0.37050  0.34282  1.0000
  C   C77       1.0  0.13330  0.38662  0.27145  1.0000
  C   C78       1.0  0.12877  0.41204  0.29149  1.0000
  H   H76       1.0  0.12302  0.42311  0.24081  1.0000
  C   C79       1.0  0.13037  0.37823  0.17547  1.0000
  H   H77       1.0  0.13530  0.35906  0.16299  1.0000
  H   H78       1.0  0.13867  0.39043  0.12950  1.0000
  H   H79       1.0  0.11477  0.37939  0.15786  1.0000
  C   C80       1.0  0.14142  0.34447  0.33223  1.0000
  H   H80       1.0  0.13034  0.33564  0.30164  1.0000
  C   C81       1.0  0.13030  0.59991  0.33630  1.0000
  C   C82       1.0  0.13709  0.61546  0.26377  1.0000
  C   C83       1.0  0.14177  0.64094  0.28167  1.0000
  H   H81       1.0  0.14571  0.65226  0.22810  1.0000
  C   C84       1.0  0.13909  0.60667  0.16776  1.0000
  H   H82       1.0  0.13630  0.58665  0.15951  1.0000
  H   H83       1.0  0.15405  0.61026  0.14365  1.0000
  H   H84       1.0  0.12877  0.61689  0.12436  1.0000
  C   C85       1.0  0.12110  0.57690  0.32014  1.0000
  H   H85       1.0  0.11023  0.57696  0.27458  1.0000
  C   C86       1.0  0.89220  0.42241  0.33389  1.0000
  C   C87       1.0  0.88548  0.40687  0.26119  1.0000
  C   C88       1.0  0.88077  0.38139  0.27897  1.0000
  H   H86       1.0  0.87686  0.37008  0.22533  1.0000
  C   C89       1.0  0.88362  0.41567  0.16514  1.0000
  H   H87       1.0  0.88647  0.43569  0.15700  1.0000
  H   H88       1.0  0.86868  0.41215  0.14067  1.0000
  H   H89       1.0  0.89396  0.40541  0.12197  1.0000
  C   C90       1.0  0.90145  0.44540  0.31819  1.0000
  H   H90       1.0  0.91245  0.44535  0.27333  1.0000
  C   C91       1.0  0.49083  0.00533  0.34036  1.0000
  C   C92       1.0  0.50228  0.01344  0.26473  1.0000
  C   C93       1.0  0.52242  0.01906  0.27874  1.0000
  H   H91       1.0  0.53068  0.02519  0.22454  1.0000
  C   C94       1.0  0.49433  0.01672  0.17081  1.0000
  H   H92       1.0  0.47871  0.01230  0.16518  1.0000
  H   H93       1.0  0.50230  0.00450  0.12376  1.0000
  H   H94       1.0  0.49631  0.03619  0.14917  1.0000
  C   C95       1.0  0.47127  0.99861  0.33228  1.0000
  H   H95       1.0  0.46808  0.98183  0.30654  1.0000
  C   C96       1.0  0.99083  0.50535  0.33999  1.0000
  C   C97       1.0  0.00228  0.51347  0.26437  1.0000
  C   C98       1.0  0.02242  0.51909  0.27839  1.0000
  H   H96       1.0  0.03068  0.52521  0.22420  1.0000
  C   C99       1.0  0.99433  0.51677  0.17046  1.0000
  H   H97       1.0  0.97871  0.51235  0.16481  1.0000
  H   H98       1.0  0.00229  0.50454  0.12339  1.0000
  H   H99       1.0  0.99632  0.53623  0.14884  1.0000
  C   C100      1.0  0.97126  0.49865  0.33190  1.0000
  H   H100      1.0  0.96806  0.48193  0.30566  1.0000
  C   C101      1.0  0.28166  0.25386  0.35747  1.0000
  C   C102      1.0  0.27312  0.26382  0.27649  1.0000
  C   C103      1.0  0.25301  0.27122  0.27707  1.0000
  H   H101      1.0  0.24716  0.27875  0.21864  1.0000
  C   C104      1.0  0.28396  0.26666  0.18883  1.0000
  H   H102      1.0  0.29912  0.26004  0.19171  1.0000
  H   H103      1.0  0.28425  0.28644  0.16919  1.0000
  H   H104      1.0  0.27647  0.25600  0.13549  1.0000
  C   C105      1.0  0.30059  0.24339  0.36204  1.0000
  H   H105      1.0  0.30113  0.22517  0.37623  1.0000
  C   C106      1.0  0.74065  0.76842  0.35729  1.0000
  C   C107      1.0  0.74923  0.75848  0.27636  1.0000
  C   C108      1.0  0.76934  0.75106  0.27710  1.0000
  H   H106      1.0  0.77521  0.74355  0.21870  1.0000
  C   C109      1.0  0.73842  0.75567  0.18859  1.0000
  H   H107      1.0  0.72327  0.76230  0.19135  1.0000
  H   H108      1.0  0.73813  0.73590  0.16888  1.0000
  H   H109      1.0  0.74594  0.76633  0.13535  1.0000
  C   C110      1.0  0.72173  0.77891  0.36174  1.0000
  H   H110      1.0  0.72119  0.79713  0.37595  1.0000
  C   C111      1.0  0.78163  0.26875  0.35554  1.0000
  C   C112      1.0  0.77314  0.25856  0.27480  1.0000
  C   C113      1.0  0.75309  0.25091  0.27565  1.0000
  H   H111      1.0  0.74728  0.24321  0.21744  1.0000
  C   C114      1.0  0.78397  0.25573  0.18710  1.0000
  H   H112      1.0  0.79905  0.26265  0.18956  1.0000
  H   H113      1.0  0.77633  0.26612  0.13353  1.0000
  H   H114      1.0  0.78448  0.23591  0.16806  1.0000
  C   C115      1.0  0.80053  0.27928  0.36005  1.0000
  H   H115      1.0  0.80110  0.29745  0.37517  1.0000
  C   C116      1.0  0.24074  0.75357  0.35589  1.0000
  C   C117      1.0  0.24915  0.76375  0.27498  1.0000
  C   C118      1.0  0.26920  0.77140  0.27548  1.0000
  H   H116      1.0  0.27497  0.77907  0.21714  1.0000
  C   C119      1.0  0.23826  0.76654  0.18743  1.0000
  H   H117      1.0  0.22319  0.75961  0.19014  1.0000
  H   H118      1.0  0.24587  0.75615  0.13377  1.0000
  H   H119      1.0  0.23773  0.78636  0.16834  1.0000
  C   C120      1.0  0.22183  0.74307  0.36080  1.0000
  H   H120      1.0  0.22126  0.72493  0.37617  1.0000
  C   C121      1.0  0.99250  0.14741  0.35828  1.0000
  C   C122      1.0  0.99388  0.12081  0.35973  1.0000
  C   C123      1.0  0.01228  0.10798  0.35698  1.0000
  C   C124      1.0  0.02963  0.12293  0.35437  1.0000
  C   C125      1.0  0.02904  0.14963  0.35490  1.0000
  C   C126      1.0  0.01032  0.16131  0.35660  1.0000
  H   H121      1.0  0.04301  0.11413  0.35205  1.0000
  H   H122      1.0  0.00965  0.18052  0.35844  1.0000
  H   H123      1.0  0.98112  0.11063  0.36164  1.0000
  N   N1        1.0  0.97466  0.15866  0.36385  1.0000
  N   N2        1.0  0.01439  0.08260  0.35537  1.0000
  N   N3        1.0  0.04485  0.16502  0.35351  1.0000
  C   C127      1.0  0.02982  0.87487  0.35955  1.0000
  C   C128      1.0  0.02845  0.90146  0.36197  1.0000
  C   C129      1.0  0.01005  0.91429  0.35974  1.0000
  C   C130      1.0  0.99269  0.89936  0.35785  1.0000
  C   C131      1.0  0.99328  0.87267  0.35708  1.0000
  C   C132      1.0  0.01200  0.86098  0.35761  1.0000
  H   H124      1.0  0.97930  0.90817  0.35689  1.0000
  H   H125      1.0  0.01267  0.84176  0.35885  1.0000
  H   H126      1.0  0.04120  0.91163  0.36536  1.0000
  N   N4        1.0  0.04766  0.86360  0.36524  1.0000
  N   N5        1.0  0.00795  0.93967  0.36169  1.0000
  N   N6        1.0  0.97746  0.85728  0.35581  1.0000
  C   C133      1.0  0.49251  0.64742  0.35876  1.0000
  C   C134      1.0  0.49389  0.62082  0.36018  1.0000
  C   C135      1.0  0.51228  0.60800  0.35698  1.0000
  C   C136      1.0  0.52963  0.62294  0.35392  1.0000
  C   C137      1.0  0.52904  0.64963  0.35444  1.0000
  C   C138      1.0  0.51033  0.66132  0.35662  1.0000
  H   H127      1.0  0.54301  0.61414  0.35126  1.0000
  H   H128      1.0  0.50967  0.68053  0.35847  1.0000
  H   H129      1.0  0.48113  0.61065  0.36241  1.0000
  N   N7        1.0  0.47467  0.65868  0.36472  1.0000
  N   N8        1.0  0.51438  0.58261  0.35532  1.0000
  N   N9        1.0  0.54485  0.66503  0.35263  1.0000
  C   C139      1.0  0.52983  0.37486  0.36005  1.0000
  C   C140      1.0  0.52844  0.40146  0.36243  1.0000
  C   C141      1.0  0.51004  0.41428  0.35976  1.0000
  C   C142      1.0  0.49269  0.39935  0.35743  1.0000
  C   C143      1.0  0.49328  0.37265  0.35665  1.0000
  C   C144      1.0  0.51200  0.36097  0.35766  1.0000
  H   H130      1.0  0.47930  0.40814  0.35612  1.0000
  H   H131      1.0  0.51267  0.34175  0.35890  1.0000
  H   H132      1.0  0.54118  0.41163  0.36615  1.0000
  N   N10       1.0  0.54766  0.36359  0.36613  1.0000
  N   N11       1.0  0.50794  0.43966  0.36167  1.0000
  N   N12       1.0  0.47747  0.35726  0.35494  1.0000
  C   C145      1.0  0.43804  0.01223  0.35324  1.0000
  C   C146      1.0  0.42701  0.03467  0.35180  1.0000
  C   C147      1.0  0.40615  0.03449  0.35393  1.0000
  C   C148      1.0  0.39636  0.01097  0.35532  1.0000
  C   C149      1.0  0.40697  0.98805  0.35610  1.0000
  C   C150      1.0  0.42781  0.98913  0.35718  1.0000
  H   H133      1.0  0.38129  0.01053  0.35686  1.0000
  H   H134      1.0  0.43564  0.97279  0.36256  1.0000
  H   H135      1.0  0.43432  0.05150  0.34933  1.0000
  N   N13       1.0  0.45761  0.01414  0.35490  1.0000
  N   N14       1.0  0.39572  0.05593  0.35336  1.0000
  N   N15       1.0  0.39755  0.96592  0.36266  1.0000
  C   C151      1.0  0.58430  0.01018  0.35278  1.0000
  C   C152      1.0  0.59532  0.98774  0.34967  1.0000
  C   C153      1.0  0.61616  0.98785  0.35422  1.0000
  C   C154      1.0  0.62597  0.01134  0.35782  1.0000
  C   C155      1.0  0.61539  0.03429  0.35798  1.0000
  C   C156      1.0  0.59455  0.03325  0.35713  1.0000
  H   H136      1.0  0.64104  0.01175  0.36068  1.0000
  H   H137      1.0  0.58674  0.04965  0.35937  1.0000
  H   H138      1.0  0.58801  0.97094  0.34544  1.0000
  N   N16       1.0  0.56471  0.00826  0.34998  1.0000
  N   N17       1.0  0.62656  0.96639  0.35365  1.0000
  N   N18       1.0  0.62482  0.05641  0.36500  1.0000
  C   C157      1.0  0.93804  0.51224  0.35327  1.0000
  C   C158      1.0  0.92702  0.53468  0.35237  1.0000
  C   C159      1.0  0.90616  0.53450  0.35451  1.0000
  C   C160      1.0  0.89636  0.51098  0.35535  1.0000
  C   C161      1.0  0.90697  0.48806  0.35556  1.0000
  C   C162      1.0  0.92781  0.48913  0.35666  1.0000
  H   H139      1.0  0.88129  0.51054  0.35687  1.0000
  H   H140      1.0  0.93564  0.47279  0.36166  1.0000
  H   H141      1.0  0.93432  0.55151  0.35029  1.0000
  N   N19       1.0  0.95762  0.51415  0.35495  1.0000
  N   N20       1.0  0.89573  0.55594  0.35445  1.0000
  N   N21       1.0  0.89754  0.46592  0.36162  1.0000
  C   C163      1.0  0.08429  0.51016  0.35288  1.0000
  C   C164      1.0  0.09531  0.48771  0.35028  1.0000
  C   C165      1.0  0.11616  0.48784  0.35479  1.0000
  C   C166      1.0  0.12597  0.51133  0.35783  1.0000
  C   C167      1.0  0.11539  0.53428  0.35746  1.0000
  C   C168      1.0  0.09455  0.53324  0.35667  1.0000
  H   H142      1.0  0.14104  0.51174  0.36065  1.0000
  H   H143      1.0  0.08674  0.54964  0.35856  1.0000
  H   H144      1.0  0.08801  0.47091  0.34644  1.0000
  N   N22       1.0  0.06471  0.50824  0.35015  1.0000
  N   N23       1.0  0.12656  0.46638  0.35470  1.0000
  N   N24       1.0  0.12483  0.55640  0.36398  1.0000
  C   C169      1.0  0.16031  0.30690  0.35775  1.0000
  C   C170      1.0  0.18030  0.29964  0.35981  1.0000
  C   C171      1.0  0.18622  0.27408  0.35830  1.0000
  C   C172      1.0  0.17109  0.25560  0.35730  1.0000
  C   C173      1.0  0.15074  0.26188  0.35611  1.0000
  C   C174      1.0  0.14577  0.28780  0.35691  1.0000
  H   H145      1.0  0.17502  0.23703  0.35731  1.0000
  H   H146      1.0  0.13132  0.29299  0.35926  1.0000
  H   H147      1.0  0.19072  0.31347  0.36279  1.0000
  N   N25       1.0  0.15630  0.33158  0.36033  1.0000
  N   N26       1.0  0.20533  0.26673  0.36061  1.0000
  N   N27       1.0  0.13714  0.24320  0.35621  1.0000
  C   C175      1.0  0.86201  0.71540  0.35845  1.0000
  C   C176      1.0  0.84202  0.72264  0.36043  1.0000
  C   C177      1.0  0.83609  0.74821  0.35912  1.0000
  C   C178      1.0  0.85122  0.76669  0.35841  1.0000
  C   C179      1.0  0.87157  0.76041  0.35739  1.0000
  C   C180      1.0  0.87654  0.73450  0.35800  1.0000
  H   H148      1.0  0.84728  0.78526  0.35855  1.0000
  H   H149      1.0  0.89100  0.72931  0.36042  1.0000
  H   H150      1.0  0.83159  0.70881  0.36321  1.0000
  N   N28       1.0  0.86601  0.69071  0.36094  1.0000
  N   N29       1.0  0.81697  0.75555  0.36127  1.0000
  N   N30       1.0  0.88517  0.77910  0.35779  1.0000
  C   C181      1.0  0.86195  0.30722  0.35053  1.0000
  C   C182      1.0  0.84194  0.30002  0.34943  1.0000
  C   C183      1.0  0.83598  0.27447  0.35059  1.0000
  C   C184      1.0  0.85106  0.25593  0.35052  1.0000
  C   C185      1.0  0.87141  0.26218  0.35145  1.0000
  C   C186      1.0  0.87644  0.28807  0.35044  1.0000
  H   H151      1.0  0.84711  0.23737  0.35007  1.0000
  H   H152      1.0  0.89093  0.29313  0.34699  1.0000
  H   H153      1.0  0.83153  0.31388  0.34722  1.0000
  N   N31       1.0  0.86600  0.33190  0.34813  1.0000
  N   N32       1.0  0.81688  0.26714  0.34871  1.0000
  N   N33       1.0  0.88508  0.24361  0.34926  1.0000
  C   C187      1.0  0.16041  0.71514  0.35268  1.0000
  C   C188      1.0  0.18042  0.72234  0.35109  1.0000
  C   C189      1.0  0.18637  0.74789  0.35180  1.0000
  C   C190      1.0  0.17129  0.76642  0.35181  1.0000
  C   C191      1.0  0.15094  0.76017  0.35315  1.0000
  C   C192      1.0  0.14591  0.73428  0.35256  1.0000
  H   H154      1.0  0.17524  0.78499  0.35107  1.0000
  H   H155      1.0  0.13142  0.72920  0.34945  1.0000
  H   H156      1.0  0.19083  0.70848  0.34882  1.0000
  N   N34       1.0  0.15638  0.69046  0.35053  1.0000
  N   N35       1.0  0.20547  0.75522  0.34953  1.0000
  N   N36       1.0  0.13726  0.77873  0.35098  1.0000
  C   C193      1.0  0.66030  0.80692  0.35345  1.0000
  C   C194      1.0  0.68031  0.79968  0.35334  1.0000
  C   C195      1.0  0.68623  0.77412  0.35312  1.0000
  C   C196      1.0  0.67111  0.75563  0.35237  1.0000
  C   C197      1.0  0.65075  0.76190  0.35280  1.0000
  C   C198      1.0  0.64578  0.78781  0.35445  1.0000
  H   H157      1.0  0.67505  0.73707  0.35154  1.0000
  H   H158      1.0  0.63133  0.79299  0.35804  1.0000
  H   H159      1.0  0.69072  0.81353  0.35237  1.0000
  N   N37       1.0  0.65631  0.83160  0.35608  1.0000
  N   N38       1.0  0.70535  0.76676  0.35120  1.0000
  N   N39       1.0  0.63716  0.74321  0.35331  1.0000
  C   C199      1.0  0.36202  0.21539  0.35412  1.0000
  C   C200      1.0  0.34202  0.22263  0.35388  1.0000
  C   C201      1.0  0.33609  0.24820  0.35378  1.0000
  C   C202      1.0  0.35121  0.26668  0.35340  1.0000
  C   C203      1.0  0.37157  0.26040  0.35406  1.0000
  C   C204      1.0  0.37654  0.23450  0.35554  1.0000
  H   H160      1.0  0.34728  0.28525  0.35269  1.0000
  H   H161      1.0  0.39099  0.22931  0.35927  1.0000
  H   H162      1.0  0.33160  0.20878  0.35261  1.0000
  N   N40       1.0  0.36601  0.19071  0.35667  1.0000
  N   N41       1.0  0.31697  0.25555  0.35170  1.0000
  N   N42       1.0  0.38516  0.27909  0.35490  1.0000
  C   C205      1.0  0.36196  0.80721  0.35446  1.0000
  C   C206      1.0  0.34194  0.80003  0.35530  1.0000
  C   C207      1.0  0.33598  0.77447  0.35525  1.0000
  C   C208      1.0  0.35105  0.75593  0.35508  1.0000
  C   C209      1.0  0.37140  0.76217  0.35453  1.0000
  C   C210      1.0  0.37644  0.78805  0.35274  1.0000
  H   H163      1.0  0.34709  0.73737  0.35548  1.0000
  H   H164      1.0  0.39092  0.79310  0.34824  1.0000
  H   H165      1.0  0.33155  0.81390  0.35684  1.0000
  N   N43       1.0  0.36600  0.83188  0.35207  1.0000
  N   N44       1.0  0.31687  0.76714  0.35756  1.0000
  N   N45       1.0  0.38507  0.74360  0.35201  1.0000
  C   C211      1.0  0.66041  0.21514  0.35673  1.0000
  C   C212      1.0  0.68042  0.22233  0.35714  1.0000
  C   C213      1.0  0.68638  0.24788  0.35672  1.0000
  C   C214      1.0  0.67130  0.26642  0.35655  1.0000
  C   C215      1.0  0.65095  0.26017  0.35635  1.0000
  C   C216      1.0  0.64592  0.23429  0.35494  1.0000
  H   H166      1.0  0.67525  0.28498  0.35669  1.0000
  H   H167      1.0  0.63144  0.22922  0.35073  1.0000
  H   H168      1.0  0.69082  0.20846  0.35873  1.0000
  N   N46       1.0  0.65638  0.19046  0.35454  1.0000
  N   N47       1.0  0.70549  0.25522  0.35867  1.0000
  N   N48       1.0  0.63728  0.27872  0.35380  1.0000
  C   C217      1.0  0.01448  0.98410  0.35791  1.0000
  C   C218      1.0  0.00645  0.99628  0.43609  1.0000
  C   C219      1.0  0.00314  0.02269  0.43442  1.0000
  H   H169      1.0  0.99712  0.03100  0.49104  1.0000
  C   C220      1.0  0.00154  0.98292  0.52233  1.0000
  H   H170      1.0  0.00496  0.96295  0.52082  1.0000
  H   H171      1.0  0.98582  0.98488  0.53644  1.0000
  H   H172      1.0  0.00980  0.99119  0.57871  1.0000
  C   C221      1.0  0.01993  0.95852  0.35445  1.0000
  H   H173      1.0  0.03408  0.95493  0.34317  1.0000
  C   C222      1.0  0.51444  0.48409  0.35804  1.0000
  C   C223      1.0  0.50644  0.49629  0.43629  1.0000
  C   C224      1.0  0.50314  0.52270  0.43464  1.0000
  H   H174      1.0  0.49714  0.53101  0.49128  1.0000
  C   C225      1.0  0.50155  0.48293  0.52255  1.0000
  H   H175      1.0  0.50494  0.46295  0.52097  1.0000
  H   H176      1.0  0.48584  0.48492  0.53680  1.0000
  H   H177      1.0  0.50985  0.49117  0.57886  1.0000
  C   C226      1.0  0.51991  0.45852  0.35464  1.0000
  H   H178      1.0  0.53407  0.45495  0.34364  1.0000
  C   C227      1.0  0.07693  0.18254  0.36159  1.0000
  C   C228      1.0  0.08917  0.18946  0.43658  1.0000
  C   C229      1.0  0.10337  0.20887  0.42577  1.0000
  H   H179      1.0  0.11160  0.21418  0.48113  1.0000
  C   C230      1.0  0.08755  0.17789  0.52875  1.0000
  H   H180      1.0  0.07595  0.16382  0.53381  1.0000
  H   H181      1.0  0.08440  0.19243  0.57920  1.0000
  H   H182      1.0  0.10148  0.16886  0.54648  1.0000
  C   C231      1.0  0.06360  0.16237  0.36487  1.0000
  H   H183      1.0  0.06892  0.14548  0.37964  1.0000
  C   C232      1.0  0.94539  0.83975  0.36449  1.0000
  C   C233      1.0  0.93314  0.83274  0.43935  1.0000
  C   C234      1.0  0.91893  0.81335  0.42817  1.0000
  H   H184      1.0  0.91069  0.80798  0.48343  1.0000
  C   C235      1.0  0.93475  0.84418  0.53173  1.0000
  H   H185      1.0  0.94636  0.85822  0.53709  1.0000
  H   H186      1.0  0.93788  0.82957  0.58194  1.0000
  H   H187      1.0  0.92083  0.85321  0.54956  1.0000
  C   C236      1.0  0.95874  0.85989  0.36816  1.0000
  H   H188      1.0  0.95346  0.87674  0.38383  1.0000
  C   C237      1.0  0.91637  0.22296  0.36920  1.0000
  C   C238      1.0  0.92843  0.21510  0.44368  1.0000
  C   C239      1.0  0.94471  0.19889  0.42777  1.0000
  H   H189      1.0  0.95386  0.19465  0.48125  1.0000
  C   C240      1.0  0.92538  0.22376  0.53929  1.0000
  H   H190      1.0  0.91203  0.23483  0.54832  1.0000
  H   H191      1.0  0.93790  0.23517  0.56081  1.0000
  H   H192      1.0  0.92423  0.20752  0.58450  1.0000
  C   C241      1.0  0.90321  0.24324  0.37670  1.0000
  H   H193      1.0  0.90858  0.25865  0.40582  1.0000
  C   C242      1.0  0.10597  0.79939  0.37118  1.0000
  C   C243      1.0  0.09391  0.80727  0.44557  1.0000
  C   C244      1.0  0.07761  0.82344  0.42948  1.0000
  H   H194      1.0  0.06846  0.82773  0.48290  1.0000
  C   C245      1.0  0.09696  0.79868  0.54125  1.0000
  H   H195      1.0  0.11033  0.78764  0.55039  1.0000
  H   H196      1.0  0.08445  0.78725  0.56285  1.0000
  H   H197      1.0  0.09809  0.81495  0.58633  1.0000
  C   C246      1.0  0.11915  0.77912  0.37876  1.0000
  H   H198      1.0  0.11382  0.76374  0.40819  1.0000
  C   C247      1.0  0.57693  0.68257  0.35993  1.0000
  C   C248      1.0  0.58916  0.68961  0.43482  1.0000
  C   C249      1.0  0.60335  0.70901  0.42367  1.0000
  H   H199      1.0  0.61158  0.71439  0.47896  1.0000
  C   C250      1.0  0.58753  0.67817  0.52720  1.0000
  H   H200      1.0  0.57593  0.66410  0.53247  1.0000
  H   H201      1.0  0.58435  0.69278  0.57735  1.0000
  H   H202      1.0  0.60145  0.66918  0.54518  1.0000
  C   C251      1.0  0.56361  0.66239  0.36353  1.0000
  H   H203      1.0  0.56896  0.64551  0.37826  1.0000
  C   C252      1.0  0.44539  0.33970  0.36284  1.0000
  C   C253      1.0  0.43315  0.33258  0.43755  1.0000
  C   C254      1.0  0.41894  0.31320  0.42599  1.0000
  H   H204      1.0  0.41070  0.30776  0.48114  1.0000
  C   C255      1.0  0.43474  0.34390  0.53013  1.0000
  H   H205      1.0  0.44635  0.35794  0.53575  1.0000
  H   H206      1.0  0.43788  0.32922  0.58008  1.0000
  H   H207      1.0  0.42082  0.35289  0.54811  1.0000
  C   C256      1.0  0.45874  0.35985  0.36689  1.0000
  H   H208      1.0  0.45343  0.37669  0.38257  1.0000
  C   C257      1.0  0.41637  0.72297  0.37155  1.0000
  C   C258      1.0  0.42845  0.71500  0.44582  1.0000
  C   C259      1.0  0.44472  0.69881  0.42952  1.0000
  H   H209      1.0  0.45388  0.69449  0.48289  1.0000
  C   C260      1.0  0.42541  0.72351  0.54160  1.0000
  H   H210      1.0  0.41207  0.73459  0.55089  1.0000
  H   H211      1.0  0.43795  0.73488  0.56332  1.0000
  H   H212      1.0  0.42425  0.70721  0.58649  1.0000
  C   C261      1.0  0.40320  0.74323  0.37945  1.0000
  H   H213      1.0  0.40855  0.75860  0.40881  1.0000
  C   C262      1.0  0.60597  0.29937  0.37352  1.0000
  C   C263      1.0  0.59389  0.30737  0.44771  1.0000
  C   C264      1.0  0.57761  0.32352  0.43124  1.0000
  H   H214      1.0  0.56845  0.32790  0.48454  1.0000
  C   C265      1.0  0.59692  0.29891  0.54355  1.0000
  H   H215      1.0  0.61028  0.28785  0.55294  1.0000
  H   H216      1.0  0.58439  0.28754  0.56535  1.0000
  H   H217      1.0  0.59807  0.31524  0.58833  1.0000
  C   C266      1.0  0.61916  0.27912  0.38150  1.0000
  H   H218      1.0  0.61383  0.26377  0.41112  1.0000
  C   C267      1.0  0.39132  0.10005  0.37869  1.0000
  C   C268      1.0  0.38373  0.11592  0.44860  1.0000
  C   C269      1.0  0.37951  0.14139  0.42843  1.0000
  H   H219      1.0  0.37496  0.15292  0.48036  1.0000
  C   C270      1.0  0.38028  0.10750  0.54419  1.0000
  H   H220      1.0  0.38264  0.08744  0.55418  1.0000
  H   H221      1.0  0.36507  0.11150  0.56368  1.0000
  H   H222      1.0  0.39012  0.11763  0.59014  1.0000
  C   C271      1.0  0.39947  0.07659  0.39828  1.0000
  H   H223      1.0  0.40927  0.07592  0.44870  1.0000
  C   C272      1.0  0.63088  0.92223  0.37793  1.0000
  C   C273      1.0  0.63844  0.90638  0.44793  1.0000
  C   C274      1.0  0.64272  0.88091  0.42780  1.0000
  H   H224      1.0  0.64726  0.86940  0.47977  1.0000
  C   C275      1.0  0.64179  0.91481  0.54358  1.0000
  H   H225      1.0  0.63937  0.93486  0.55347  1.0000
  H   H226      1.0  0.65698  0.91086  0.56336  1.0000
  H   H227      1.0  0.63192  0.90464  0.58934  1.0000
  C   C276      1.0  0.62255  0.94560  0.39723  1.0000
  H   H228      1.0  0.61274  0.94623  0.44763  1.0000
  C   C277      1.0  0.63988  0.15169  0.37218  1.0000
  C   C278      1.0  0.63382  0.13579  0.44517  1.0000
  C   C279      1.0  0.62905  0.11036  0.42675  1.0000
  H   H229      1.0  0.62362  0.09948  0.47874  1.0000
  C   C280      1.0  0.63160  0.14447  0.54122  1.0000
  H   H230      1.0  0.63658  0.16369  0.55205  1.0000
  H   H231      1.0  0.64025  0.13244  0.58632  1.0000
  H   H232      1.0  0.61614  0.14334  0.56137  1.0000
  C   C281      1.0  0.64133  0.17773  0.38160  1.0000
  H   H233      1.0  0.63016  0.18666  0.41109  1.0000
  C   C282      1.0  0.38257  0.87063  0.36949  1.0000
  C   C283      1.0  0.38855  0.88651  0.44267  1.0000
  C   C284      1.0  0.39334  0.91194  0.42441  1.0000
  H   H234      1.0  0.39873  0.92280  0.47655  1.0000
  C   C285      1.0  0.39067  0.87781  0.53875  1.0000
  H   H235      1.0  0.38568  0.85859  0.54944  1.0000
  H   H236      1.0  0.38197  0.88984  0.58368  1.0000
  H   H237      1.0  0.40611  0.87895  0.55924  1.0000
  C   C286      1.0  0.38108  0.84459  0.37895  1.0000
  H   H238      1.0  0.39224  0.83565  0.40842  1.0000
  C   C287      1.0  0.89133  0.60002  0.38077  1.0000
  C   C288      1.0  0.88378  0.61581  0.45100  1.0000
  C   C289      1.0  0.87955  0.64131  0.43119  1.0000
  H   H239      1.0  0.87502  0.65277  0.48333  1.0000
  C   C290      1.0  0.88040  0.60730  0.54653  1.0000
  H   H240      1.0  0.88278  0.58724  0.55624  1.0000
  H   H241      1.0  0.86520  0.61127  0.56628  1.0000
  H   H242      1.0  0.89027  0.61740  0.59246  1.0000
  C   C291      1.0  0.89945  0.57651  0.39990  1.0000
  H   H243      1.0  0.90930  0.57577  0.45013  1.0000
  C   C292      1.0  0.13088  0.42226  0.37998  1.0000
  C   C293      1.0  0.13839  0.40647  0.45030  1.0000
  C   C294      1.0  0.14268  0.38099  0.43054  1.0000
  H   H244      1.0  0.14719  0.36952  0.48272  1.0000
  C   C295      1.0  0.14167  0.41499  0.54589  1.0000
  H   H245      1.0  0.13924  0.43505  0.55551  1.0000
  H   H246      1.0  0.15685  0.41107  0.56594  1.0000
  H   H247      1.0  0.13177  0.40486  0.59162  1.0000
  C   C296      1.0  0.12257  0.44567  0.39883  1.0000
  H   H248      1.0  0.11273  0.44636  0.44907  1.0000
  C   C297      1.0  0.13992  0.65168  0.36951  1.0000
  C   C298      1.0  0.13393  0.63584  0.44280  1.0000
  C   C299      1.0  0.12914  0.61040  0.42475  1.0000
  H   H249      1.0  0.12376  0.59957  0.47697  1.0000
  C   C300      1.0  0.13180  0.64459  0.53882  1.0000
  H   H250      1.0  0.13683  0.66380  0.54942  1.0000
  H   H251      1.0  0.14046  0.63256  0.58388  1.0000
  H   H252      1.0  0.11636  0.64351  0.55923  1.0000
  C   C301      1.0  0.14142  0.67773  0.37868  1.0000
  H   H253      1.0  0.13036  0.68666  0.40906  1.0000
  C   C302      1.0  0.88251  0.37066  0.36684  1.0000
  C   C303      1.0  0.88843  0.38648  0.44030  1.0000
  C   C304      1.0  0.89325  0.41192  0.42238  1.0000
  H   H254      1.0  0.89859  0.42273  0.47474  1.0000
  C   C305      1.0  0.89045  0.37773  0.53637  1.0000
  H   H255      1.0  0.88541  0.35852  0.54685  1.0000
  H   H256      1.0  0.88174  0.38976  0.58122  1.0000
  H   H257      1.0  0.90587  0.37880  0.55714  1.0000
  C   C306      1.0  0.88098  0.34461  0.37608  1.0000
  H   H258      1.0  0.89203  0.33567  0.40646  1.0000
  C   C307      1.0  0.53141  0.01662  0.36519  1.0000
  C   C308      1.0  0.51996  0.00850  0.44082  1.0000
  C   C309      1.0  0.49982  0.00287  0.42679  1.0000
  H   H259      1.0  0.49156  0.99679  0.48103  1.0000
  C   C310      1.0  0.52789  0.00525  0.53480  1.0000
  H   H260      1.0  0.54352  0.00962  0.54048  1.0000
  H   H261      1.0  0.52586  0.98581  0.55661  1.0000
  H   H262      1.0  0.51994  0.01753  0.58172  1.0000
  C   C311      1.0  0.55093  0.02351  0.37362  1.0000
  H   H263      1.0  0.55399  0.04002  0.40181  1.0000
  C   C312      1.0  0.03141  0.51664  0.36483  1.0000
  C   C313      1.0  0.01996  0.50853  0.44047  1.0000
  C   C314      1.0  0.99982  0.50290  0.42644  1.0000
  H   H264      1.0  0.99155  0.49682  0.48067  1.0000
  C   C315      1.0  0.02788  0.50530  0.53446  1.0000
  H   H265      1.0  0.04351  0.50968  0.54014  1.0000
  H   H266      1.0  0.02586  0.48586  0.55630  1.0000
  H   H267      1.0  0.01993  0.51759  0.58135  1.0000
  C   C316      1.0  0.05093  0.52353  0.37325  1.0000
  H   H268      1.0  0.05397  0.54014  0.40072  1.0000
  C   C317      1.0  0.24063  0.26847  0.35430  1.0000
  C   C318      1.0  0.24919  0.25854  0.43530  1.0000
  C   C319      1.0  0.26930  0.25113  0.43472  1.0000
  H   H269      1.0  0.27515  0.24360  0.49313  1.0000
  C   C320      1.0  0.23836  0.25572  0.52298  1.0000
  H   H270      1.0  0.22321  0.26237  0.52016  1.0000
  H   H271      1.0  0.24587  0.26635  0.57631  1.0000
  H   H272      1.0  0.23804  0.23593  0.54259  1.0000
  C   C321      1.0  0.22169  0.27890  0.34955  1.0000
  H   H273      1.0  0.22110  0.29706  0.33439  1.0000
  C   C322      1.0  0.78167  0.75376  0.35449  1.0000
  C   C323      1.0  0.77310  0.76374  0.43539  1.0000
  C   C324      1.0  0.75299  0.77116  0.43463  1.0000
  H   H274      1.0  0.74713  0.77871  0.49298  1.0000
  C   C325      1.0  0.78390  0.76657  0.52316  1.0000
  H   H275      1.0  0.79904  0.75987  0.52053  1.0000
  H   H276      1.0  0.77635  0.75598  0.57648  1.0000
  H   H277      1.0  0.78424  0.78636  0.54267  1.0000
  C   C326      1.0  0.80063  0.74338  0.34987  1.0000
  H   H278      1.0  0.80124  0.72524  0.33446  1.0000
  C   C327      1.0  0.74074  0.25361  0.35295  1.0000
  C   C328      1.0  0.74921  0.26385  0.43365  1.0000
  C   C329      1.0  0.76926  0.27149  0.43279  1.0000
  H   H279      1.0  0.77507  0.27918  0.49103  1.0000
  C   C330      1.0  0.73836  0.26671  0.52128  1.0000
  H   H280      1.0  0.72327  0.25984  0.51869  1.0000
  H   H281      1.0  0.73789  0.28653  0.54032  1.0000
  H   H282      1.0  0.74597  0.25630  0.57490  1.0000
  C   C331      1.0  0.72186  0.24304  0.34857  1.0000
  H   H283      1.0  0.72134  0.22481  0.33469  1.0000
  C   C332      1.0  0.28162  0.76870  0.35256  1.0000
  C   C333      1.0  0.27320  0.75856  0.43352  1.0000
  C   C334      1.0  0.25315  0.75092  0.43303  1.0000
  H   H284      1.0  0.24737  0.74328  0.49143  1.0000
  C   C335      1.0  0.28410  0.75577  0.52102  1.0000
  H   H285      1.0  0.29920  0.76260  0.51808  1.0000
  H   H286      1.0  0.28457  0.73597  0.54033  1.0000
  H   H287      1.0  0.27655  0.76626  0.57461  1.0000
  C   C336      1.0  0.30049  0.77931  0.34784  1.0000
  H   H288      1.0  0.30097  0.79755  0.33407  1.0000
