data_image0
_chemical_formula_structural       CNC2NC4NC18H14C2NC16H12C3NC2NC5NC4NC18H14CNC16H12C11H11CNCNC4NC16H13C5H3CH3C4H3CH3C4H3CH3C4H3CH3C4H3CH3C4H3CH3C4H3CH3C4H3CH3C5H3CH3C5H3CH3C4H3CH3C4H3CH3C7NC12H12C2NC3NC3NC18H14C12H12C3NC3NC3NC18H14C3NC3NC2NC5NC20H15C8NC14H13C3HC4H2CH3C4HC4H2CH3C4HC4H2CH3C4HC4H2CH3C4HC4H2CH3C4HC4H2CH3C4HC4H2CH3C4HC4H2CH3C3HC4H2CH3C3HC4H2CH3C4HC4H2CH3C4HC4H2CH3
_chemical_formula_sum              "C432 N24 H300"
_cell_length_a       68.7486
_cell_length_b       68.7486
_cell_length_c       14.9661
_cell_angle_alpha    90.0014
_cell_angle_beta     89.9714
_cell_angle_gamma    120

_space_group_name_H-M_alt    "P 1"
_space_group_IT_number       1

loop_
  _space_group_symop_operation_xyz
  'x, y, z'

loop_
  _atom_site_type_symbol
  _atom_site_label
  _atom_site_symmetry_multiplicity
  _atom_site_fract_x
  _atom_site_fract_y
  _atom_site_fract_z
  _atom_site_occupancy
  C   C1        1.0  0.27556  0.51267  0.31581  1.0000
  N   N1        1.0  0.26826  0.47806  0.33595  1.0000
  C   C2        1.0  0.29092  0.49060  0.32888  1.0000
  C   C3        1.0  0.30736  0.48390  0.33558  1.0000
  N   N2        1.0  0.28213  0.44248  0.33382  1.0000
  C   C4        1.0  0.28369  0.42369  0.33982  1.0000
  C   C5        1.0  0.30651  0.43098  0.35088  1.0000
  C   C6        1.0  0.31808  0.45416  0.35102  1.0000
  C   C7        1.0  0.26601  0.40101  0.33432  1.0000
  N   N3        1.0  0.23269  0.40684  0.33570  1.0000
  C   C8        1.0  0.21000  0.39433  0.32917  1.0000
  C   C9        1.0  0.22538  0.37223  0.31634  1.0000
  C   C10       1.0  0.21737  0.46139  0.34209  1.0000
  C   C11       1.0  0.23506  0.48402  0.33726  1.0000
  C   C12       1.0  0.22935  0.50131  0.33986  1.0000
  C   C13       1.0  0.22090  0.50657  0.26325  1.0000
  C   C14       1.0  0.21718  0.52493  0.26387  1.0000
  C   C15       1.0  0.22186  0.53862  0.34070  1.0000
  C   C16       1.0  0.15820  0.37988  0.25186  1.0000
  C   C17       1.0  0.13482  0.36523  0.25099  1.0000
  C   C18       1.0  0.27221  0.38403  0.33307  1.0000
  C   C19       1.0  0.28875  0.35321  0.33632  1.0000
  C   C20       1.0  0.29074  0.36590  0.25873  1.0000
  C   C21       1.0  0.28257  0.38103  0.25693  1.0000
  C   C22       1.0  0.33033  0.50118  0.33843  1.0000
  C   C23       1.0  0.34342  0.50819  0.25977  1.0000
  C   C24       1.0  0.36538  0.52676  0.26142  1.0000
  C   C25       1.0  0.37474  0.53894  0.34134  1.0000
  H   H1        1.0  0.37410  0.53195  0.20260  1.0000
  H   H2        1.0  0.33680  0.50029  0.20029  1.0000
  H   H3        1.0  0.27423  0.52672  0.30775  1.0000
  H   H4        1.0  0.26042  0.46235  0.35096  1.0000
  H   H5        1.0  0.24058  0.42260  0.34987  1.0000
  H   H6        1.0  0.33508  0.46397  0.35808  1.0000
  H   H7        1.0  0.31380  0.42127  0.35812  1.0000
  H   H8        1.0  0.28497  0.39043  0.20066  1.0000
  H   H9        1.0  0.29907  0.36502  0.20359  1.0000
  H   H10       1.0  0.22674  0.35819  0.30846  1.0000
  H   H11       1.0  0.16610  0.38789  0.19403  1.0000
  H   H12       1.0  0.12642  0.36273  0.19187  1.0000
  H   H13       1.0  0.21114  0.52831  0.20703  1.0000
  H   H14       1.0  0.21790  0.49739  0.20588  1.0000
  C   C26       1.0  0.54589  0.76350  0.31475  1.0000
  C   C27       1.0  0.56793  0.80091  0.32843  1.0000
  N   N4        1.0  0.61602  0.84022  0.33417  1.0000
  C   C28       1.0  0.63480  0.86057  0.34030  1.0000
  C   C29       1.0  0.62751  0.87609  0.35164  1.0000
  C   C30       1.0  0.60433  0.86448  0.35190  1.0000
  C   C31       1.0  0.65749  0.86559  0.33465  1.0000
  C   C32       1.0  0.66417  0.81625  0.32961  1.0000
  C   C33       1.0  0.68627  0.85373  0.31676  1.0000
  C   C34       1.0  0.59710  0.75658  0.34249  1.0000
  C   C35       1.0  0.55197  0.71490  0.26370  1.0000
  C   C36       1.0  0.53361  0.69282  0.26436  1.0000
  C   C37       1.0  0.67861  0.77887  0.25229  1.0000
  C   C38       1.0  0.69327  0.77015  0.25141  1.0000
  C   C39       1.0  0.67446  0.88876  0.33339  1.0000
  C   C40       1.0  0.69259  0.92541  0.25899  1.0000
  C   C41       1.0  0.67746  0.90212  0.25726  1.0000
  C   C42       1.0  0.55034  0.83583  0.26016  1.0000
  C   C43       1.0  0.53177  0.83922  0.26183  1.0000
  H   H15       1.0  0.52664  0.84281  0.20304  1.0000
  H   H16       1.0  0.55829  0.83718  0.20071  1.0000
  H   H17       1.0  0.53183  0.74812  0.30695  1.0000
  H   H18       1.0  0.59451  0.87167  0.35905  1.0000
  H   H19       1.0  0.63722  0.89310  0.35899  1.0000
  H   H20       1.0  0.66803  0.89511  0.20106  1.0000
  H   H21       1.0  0.69344  0.93462  0.20393  1.0000
  H   H22       1.0  0.70031  0.86913  0.30889  1.0000
  H   H23       1.0  0.67061  0.77876  0.19446  1.0000
  H   H24       1.0  0.69577  0.76424  0.19230  1.0000
  H   H25       1.0  0.53027  0.68338  0.20761  1.0000
  H   H26       1.0  0.56119  0.72105  0.20638  1.0000
  C   C44       1.0  0.27496  0.76291  0.31479  1.0000
  C   C45       1.0  0.29503  0.78296  0.31509  1.0000
  C   C46       1.0  0.29038  0.80032  0.32921  1.0000
  N   N5        1.0  0.26770  0.79025  0.33533  1.0000
  C   C47       1.0  0.25760  0.76760  0.32827  1.0000
  C   C48       1.0  0.23446  0.75114  0.33521  1.0000
  N   N6        1.0  0.21828  0.77638  0.33348  1.0000
  C   C49       1.0  0.19793  0.77482  0.33945  1.0000
  C   C50       1.0  0.18239  0.75199  0.35043  1.0000
  C   C51       1.0  0.19400  0.74042  0.35067  1.0000
  C   C52       1.0  0.19291  0.79249  0.33388  1.0000
  C   C53       1.0  0.20938  0.81570  0.32874  1.0000
  N   N7        1.0  0.23206  0.82583  0.33562  1.0000
  C   C54       1.0  0.24225  0.84852  0.32907  1.0000
  C   C55       1.0  0.22488  0.85323  0.31686  1.0000
  C   C56       1.0  0.20477  0.83315  0.31654  1.0000
  C   C57       1.0  0.26546  0.86490  0.33460  1.0000
  N   N8        1.0  0.28160  0.83958  0.33504  1.0000
  C   C58       1.0  0.30194  0.84113  0.34170  1.0000
  C   C59       1.0  0.30688  0.82344  0.33702  1.0000
  C   C60       1.0  0.32987  0.82914  0.33974  1.0000
  C   C61       1.0  0.34363  0.83762  0.26323  1.0000
  C   C62       1.0  0.36571  0.84135  0.26398  1.0000
  C   C63       1.0  0.37466  0.83662  0.34086  1.0000
  C   C64       1.0  0.27174  0.88806  0.33190  1.0000
  C   C65       1.0  0.27964  0.90034  0.25156  1.0000
  C   C66       1.0  0.28834  0.92372  0.25070  1.0000
  C   C67       1.0  0.28941  0.93551  0.32987  1.0000
  C   C68       1.0  0.16974  0.78629  0.33264  1.0000
  C   C69       1.0  0.12237  0.76973  0.33586  1.0000
  C   C70       1.0  0.13311  0.76780  0.25822  1.0000
  C   C71       1.0  0.15640  0.77596  0.25648  1.0000
  C   C72       1.0  0.22877  0.72818  0.33805  1.0000
  C   C73       1.0  0.22270  0.71510  0.25940  1.0000
  C   C74       1.0  0.21935  0.69315  0.26104  1.0000
  C   C75       1.0  0.22213  0.68377  0.34097  1.0000
  H   H27       1.0  0.21579  0.68443  0.20224  1.0000
  H   H28       1.0  0.22144  0.72173  0.19992  1.0000
  H   H29       1.0  0.31041  0.78429  0.30726  1.0000
  H   H30       1.0  0.25986  0.79807  0.35109  1.0000
  H   H31       1.0  0.23996  0.81790  0.34862  1.0000
  H   H32       1.0  0.18680  0.72341  0.35763  1.0000
  H   H33       1.0  0.16538  0.74469  0.35758  1.0000
  H   H34       1.0  0.16343  0.77358  0.20020  1.0000
  H   H35       1.0  0.12391  0.75946  0.20313  1.0000
  H   H36       1.0  0.18937  0.83179  0.30872  1.0000
  H   H37       1.0  0.27976  0.89245  0.19372  1.0000
  H   H38       1.0  0.29427  0.93214  0.19161  1.0000
  H   H39       1.0  0.37517  0.84742  0.20722  1.0000
  H   H40       1.0  0.33749  0.84066  0.20583  1.0000
  C   C76       1.0  0.78669  0.54879  0.32953  1.0000
  N   N9        1.0  0.79548  0.59691  0.33444  1.0000
  C   C77       1.0  0.79392  0.61570  0.34030  1.0000
  C   C78       1.0  0.77109  0.60841  0.35119  1.0000
  C   C79       1.0  0.75952  0.58523  0.35146  1.0000
  C   C80       1.0  0.81159  0.63839  0.33482  1.0000
  C   C81       1.0  0.86762  0.64507  0.32989  1.0000
  C   C82       1.0  0.85225  0.66719  0.31752  1.0000
  C   C83       1.0  0.86024  0.57799  0.34238  1.0000
  C   C84       1.0  0.85670  0.53280  0.26376  1.0000
  C   C85       1.0  0.86043  0.51445  0.26439  1.0000
  C   C86       1.0  0.91941  0.65952  0.25208  1.0000
  C   C87       1.0  0.94279  0.67417  0.25109  1.0000
  C   C88       1.0  0.80540  0.65536  0.33355  1.0000
  C   C89       1.0  0.78691  0.67351  0.25913  1.0000
  C   C90       1.0  0.79510  0.65841  0.25734  1.0000
  C   C91       1.0  0.73421  0.53121  0.26039  1.0000
  C   C92       1.0  0.71225  0.51263  0.26203  1.0000
  H   H41       1.0  0.70356  0.50746  0.20320  1.0000
  H   H42       1.0  0.74086  0.53910  0.20089  1.0000
  H   H43       1.0  0.80337  0.51265  0.30873  1.0000
  H   H44       1.0  0.74251  0.57542  0.35838  1.0000
  H   H45       1.0  0.76379  0.61812  0.35832  1.0000
  H   H46       1.0  0.79270  0.64899  0.20112  1.0000
  H   H47       1.0  0.77860  0.67440  0.20400  1.0000
  H   H48       1.0  0.85090  0.68123  0.30973  1.0000
  H   H49       1.0  0.91150  0.65150  0.19430  1.0000
  H   H50       1.0  0.95119  0.67667  0.19192  1.0000
  H   H51       1.0  0.86647  0.51107  0.20755  1.0000
  H   H52       1.0  0.85970  0.54197  0.20637  1.0000
  C   C93       1.0  0.44280  0.17881  0.34056  1.0000
  C   C94       1.0  0.45009  0.16328  0.35164  1.0000
  C   C95       1.0  0.47327  0.17488  0.35186  1.0000
  C   C96       1.0  0.52569  0.32448  0.26422  1.0000
  C   C97       1.0  0.54405  0.34656  0.26485  1.0000
  C   C98       1.0  0.39901  0.26049  0.25241  1.0000
  C   C99       1.0  0.38435  0.26922  0.25145  1.0000
  C   C100      1.0  0.38504  0.11400  0.25910  1.0000
  C   C101      1.0  0.40017  0.13729  0.25743  1.0000
  C   C102      1.0  0.52730  0.20357  0.26072  1.0000
  C   C103      1.0  0.54587  0.20019  0.26234  1.0000
  H   H53       1.0  0.55105  0.19665  0.20351  1.0000
  H   H54       1.0  0.51940  0.20229  0.20124  1.0000
  H   H55       1.0  0.54583  0.29130  0.30881  1.0000
  H   H56       1.0  0.48308  0.16769  0.35895  1.0000
  H   H57       1.0  0.40959  0.14433  0.20121  1.0000
  H   H58       1.0  0.38418  0.10481  0.20393  1.0000
  H   H59       1.0  0.37731  0.17026  0.30898  1.0000
  H   H60       1.0  0.40703  0.26059  0.19461  1.0000
  H   H61       1.0  0.38186  0.27511  0.19229  1.0000
  H   H62       1.0  0.54743  0.35599  0.20800  1.0000
  H   H63       1.0  0.51652  0.31832  0.20685  1.0000
  C   C104      1.0  0.78261  0.25642  0.31479  1.0000
  N   N10       1.0  0.80992  0.24912  0.33542  1.0000
  C   C105      1.0  0.82002  0.27177  0.32838  1.0000
  N   N11       1.0  0.85933  0.26301  0.33403  1.0000
  C   C106      1.0  0.87968  0.26457  0.34014  1.0000
  C   C107      1.0  0.89520  0.28738  0.35146  1.0000
  C   C108      1.0  0.88359  0.29895  0.35173  1.0000
  C   C109      1.0  0.88470  0.24690  0.33448  1.0000
  N   N12       1.0  0.84555  0.21357  0.33605  1.0000
  C   C110      1.0  0.83536  0.19088  0.32946  1.0000
  C   C111      1.0  0.87284  0.20626  0.31657  1.0000
  C   C112      1.0  0.77568  0.19827  0.34251  1.0000
  C   C113      1.0  0.77075  0.21596  0.33759  1.0000
  C   C114      1.0  0.73399  0.20173  0.26392  1.0000
  C   C115      1.0  0.71191  0.19801  0.26468  1.0000
  C   C116      1.0  0.70296  0.20278  0.34149  1.0000
  C   C117      1.0  0.79797  0.13907  0.25216  1.0000
  C   C118      1.0  0.78925  0.11569  0.25127  1.0000
  C   C119      1.0  0.90787  0.25310  0.33321  1.0000
  C   C120      1.0  0.95523  0.26964  0.33635  1.0000
  C   C121      1.0  0.94452  0.27162  0.25879  1.0000
  C   C122      1.0  0.92124  0.26347  0.25708  1.0000
  C   C123      1.0  0.84882  0.31119  0.33867  1.0000
  C   C124      1.0  0.85493  0.32430  0.26007  1.0000
  C   C125      1.0  0.85831  0.34625  0.26175  1.0000
  H   H64       1.0  0.86190  0.35498  0.20296  1.0000
  H   H65       1.0  0.85627  0.31770  0.20061  1.0000
  H   H66       1.0  0.76722  0.25508  0.30705  1.0000
  H   H67       1.0  0.81774  0.24135  0.35232  1.0000
  H   H68       1.0  0.89077  0.31595  0.35887  1.0000
  H   H69       1.0  0.91221  0.29468  0.35879  1.0000
  H   H70       1.0  0.91422  0.26589  0.20087  1.0000
  H   H71       1.0  0.95374  0.28000  0.20373  1.0000
  H   H72       1.0  0.88824  0.20762  0.30869  1.0000
  H   H73       1.0  0.79787  0.14697  0.19433  1.0000
  H   H74       1.0  0.78334  0.10729  0.19215  1.0000
  H   H75       1.0  0.70246  0.19191  0.20797  1.0000
  H   H76       1.0  0.74013  0.19866  0.20657  1.0000
  C   C126      1.0  0.22023  0.66211  0.34142  1.0000
  C   C127      1.0  0.20208  0.64346  0.29909  1.0000
  C   C128      1.0  0.20020  0.62196  0.29807  1.0000
  C   C129      1.0  0.22592  0.59289  0.26747  1.0000
  C   C130      1.0  0.22716  0.57311  0.26660  1.0000
  H   H77       1.0  0.23218  0.60358  0.21399  1.0000
  H   H78       1.0  0.23457  0.57021  0.21288  1.0000
  H   H79       1.0  0.18980  0.64551  0.26952  1.0000
  C   C131      1.0  0.18063  0.60286  0.25343  1.0000
  H   H80       1.0  0.16897  0.60763  0.22516  1.0000
  H   H81       1.0  0.17136  0.58940  0.30155  1.0000
  H   H82       1.0  0.18644  0.59643  0.19916  1.0000
  C   C132      1.0  0.41506  0.55922  0.29950  1.0000
  C   C133      1.0  0.43655  0.57884  0.29848  1.0000
  C   C134      1.0  0.46562  0.63362  0.26784  1.0000
  C   C135      1.0  0.48540  0.65464  0.26696  1.0000
  H   H83       1.0  0.45497  0.62917  0.21428  1.0000
  H   H84       1.0  0.48834  0.66493  0.21316  1.0000
  H   H85       1.0  0.41302  0.54489  0.26992  1.0000
  C   C136      1.0  0.45567  0.57838  0.25389  1.0000
  H   H86       1.0  0.45092  0.56195  0.22563  1.0000
  H   H87       1.0  0.46912  0.58258  0.30202  1.0000
  H   H88       1.0  0.46211  0.59061  0.19961  1.0000
  C   C137      1.0  0.49930  0.85643  0.29992  1.0000
  C   C138      1.0  0.47969  0.85830  0.29882  1.0000
  C   C139      1.0  0.42491  0.83256  0.26794  1.0000
  C   C140      1.0  0.40389  0.83133  0.26696  1.0000
  H   H89       1.0  0.42938  0.82636  0.21443  1.0000
  H   H90       1.0  0.39363  0.82398  0.21310  1.0000
  H   H91       1.0  0.51365  0.86872  0.27039  1.0000
  C   C141      1.0  0.48016  0.87788  0.25422  1.0000
  H   H92       1.0  0.49660  0.88956  0.22602  1.0000
  H   H93       1.0  0.47594  0.88713  0.30232  1.0000
  H   H94       1.0  0.46796  0.87209  0.19989  1.0000
  C   C142      1.0  0.87553  0.39592  0.29983  1.0000
  C   C143      1.0  0.87741  0.41742  0.29880  1.0000
  C   C144      1.0  0.85169  0.44648  0.26813  1.0000
  C   C145      1.0  0.85046  0.46627  0.26721  1.0000
  H   H95       1.0  0.84544  0.43580  0.21467  1.0000
  H   H96       1.0  0.84306  0.46917  0.21349  1.0000
  H   H97       1.0  0.88782  0.39388  0.27028  1.0000
  C   C146      1.0  0.89699  0.43653  0.25418  1.0000
  H   H98       1.0  0.90866  0.43176  0.22592  1.0000
  H   H99       1.0  0.90625  0.44999  0.30229  1.0000
  H   H100      1.0  0.89120  0.44296  0.19990  1.0000
  C   C147      1.0  0.66256  0.48019  0.30005  1.0000
  C   C148      1.0  0.64106  0.46057  0.29902  1.0000
  C   C149      1.0  0.61201  0.40578  0.26847  1.0000
  C   C150      1.0  0.59223  0.38476  0.26759  1.0000
  H   H101      1.0  0.62270  0.41022  0.21499  1.0000
  H   H102      1.0  0.58933  0.37446  0.21388  1.0000
  H   H103      1.0  0.66461  0.49452  0.27047  1.0000
  C   C151      1.0  0.62196  0.46104  0.25438  1.0000
  H   H104      1.0  0.62673  0.47746  0.22609  1.0000
  H   H105      1.0  0.60849  0.45683  0.30248  1.0000
  H   H106      1.0  0.61555  0.44880  0.20011  1.0000
  C   C152      1.0  0.57832  0.18295  0.30037  1.0000
  C   C153      1.0  0.59794  0.18108  0.29930  1.0000
  C   C154      1.0  0.65272  0.20680  0.26845  1.0000
  C   C155      1.0  0.67374  0.20804  0.26747  1.0000
  H   H107      1.0  0.64825  0.21300  0.21491  1.0000
  H   H108      1.0  0.68402  0.21540  0.21362  1.0000
  H   H109      1.0  0.56399  0.17066  0.27083  1.0000
  C   C156      1.0  0.59748  0.16151  0.25471  1.0000
  H   H110      1.0  0.58105  0.14983  0.22651  1.0000
  H   H111      1.0  0.60169  0.15226  0.30283  1.0000
  H   H112      1.0  0.60970  0.16731  0.20039  1.0000
  C   C157      1.0  0.08579  0.34922  0.28998  1.0000
  C   C158      1.0  0.06201  0.33682  0.29165  1.0000
  C   C159      1.0  0.01504  0.28954  0.26711  1.0000
  C   C160      1.0  0.99144  0.27828  0.26630  1.0000
  H   H113      1.0  0.02328  0.28866  0.21158  1.0000
  H   H114      1.0  0.98326  0.26927  0.21061  1.0000
  H   H115      1.0  0.09365  0.36475  0.26064  1.0000
  C   C161      1.0  0.04909  0.34652  0.24978  1.0000
  H   H116      1.0  0.05992  0.36313  0.22111  1.0000
  H   H117      1.0  0.03840  0.34813  0.29968  1.0000
  H   H118      1.0  0.03855  0.33557  0.19618  1.0000
  C   C162      1.0  0.70930  0.73716  0.29038  1.0000
  C   C163      1.0  0.72169  0.72578  0.29206  1.0000
  C   C164      1.0  0.76901  0.72613  0.26759  1.0000
  C   C165      1.0  0.78026  0.71377  0.26676  1.0000
  H   H119      1.0  0.76989  0.73523  0.21203  1.0000
  H   H120      1.0  0.78928  0.71461  0.21106  1.0000
  H   H121      1.0  0.69376  0.72949  0.26107  1.0000
  C   C166      1.0  0.71201  0.70316  0.25019  1.0000
  H   H122      1.0  0.69540  0.69738  0.22150  1.0000
  H   H123      1.0  0.71038  0.69087  0.30011  1.0000
  H   H124      1.0  0.72297  0.70358  0.19662  1.0000
  C   C167      1.0  0.30005  0.95948  0.33027  1.0000
  C   C168      1.0  0.32132  0.97274  0.28974  1.0000
  C   C169      1.0  0.33270  0.99651  0.29153  1.0000
  C   C170      1.0  0.33239  0.04350  0.26723  1.0000
  C   C171      1.0  0.34475  0.06709  0.26649  1.0000
  H   H125      1.0  0.32331  0.03529  0.21164  1.0000
  H   H126      1.0  0.34395  0.07529  0.21080  1.0000
  H   H127      1.0  0.32901  0.96489  0.26044  1.0000
  C   C172      1.0  0.35534  0.00946  0.24973  1.0000
  H   H128      1.0  0.36113  0.99865  0.22099  1.0000
  H   H129      1.0  0.36762  0.02012  0.29969  1.0000
  H   H130      1.0  0.35494  0.02002  0.19619  1.0000
  C   C173      1.0  0.97858  0.69821  0.33040  1.0000
  C   C174      1.0  0.99183  0.69019  0.28978  1.0000
  C   C175      1.0  0.01560  0.70259  0.29137  1.0000
  C   C176      1.0  0.06258  0.74987  0.26680  1.0000
  C   C177      1.0  0.08618  0.76112  0.26593  1.0000
  H   H131      1.0  0.05435  0.75077  0.21130  1.0000
  H   H132      1.0  0.09436  0.77015  0.21024  1.0000
  H   H133      1.0  0.98396  0.67465  0.26048  1.0000
  C   C178      1.0  0.02853  0.69289  0.24943  1.0000
  H   H134      1.0  0.01770  0.67628  0.22076  1.0000
  H   H135      1.0  0.03921  0.69127  0.29930  1.0000
  H   H136      1.0  0.03907  0.70385  0.19582  1.0000
  C   C179      1.0  0.36832  0.30222  0.29022  1.0000
  C   C180      1.0  0.35592  0.31360  0.29180  1.0000
  C   C181      1.0  0.30864  0.31329  0.26722  1.0000
  C   C182      1.0  0.29738  0.32563  0.26637  1.0000
  H   H137      1.0  0.30776  0.30417  0.21172  1.0000
  H   H138      1.0  0.28837  0.32479  0.21068  1.0000
  H   H139      1.0  0.38386  0.30989  0.26088  1.0000
  C   C183      1.0  0.36562  0.33621  0.24985  1.0000
  H   H140      1.0  0.38223  0.34200  0.22119  1.0000
  H   H141      1.0  0.36723  0.34851  0.29972  1.0000
  H   H142      1.0  0.35467  0.33579  0.19624  1.0000
  C   C184      1.0  0.75626  0.06666  0.29026  1.0000
  C   C185      1.0  0.74489  0.04289  0.29190  1.0000
  C   C186      1.0  0.74522  0.99592  0.26735  1.0000
  C   C187      1.0  0.73287  0.97232  0.26653  1.0000
  H   H143      1.0  0.75431  0.00415  0.21177  1.0000
  H   H144      1.0  0.73369  0.96414  0.21080  1.0000
  H   H145      1.0  0.74859  0.07453  0.26093  1.0000
  C   C188      1.0  0.72227  0.02996  0.25005  1.0000
  H   H146      1.0  0.71648  0.04079  0.22139  1.0000
  H   H147      1.0  0.70997  0.01928  0.29997  1.0000
  H   H148      1.0  0.72269  0.01942  0.19644  1.0000
  C   C189      1.0  0.29561  0.51265  0.31551  1.0000
  C   C190      1.0  0.25818  0.49065  0.32969  1.0000
  C   C191      1.0  0.30245  0.46129  0.34042  1.0000
  C   C192      1.0  0.24281  0.39427  0.32893  1.0000
  C   C193      1.0  0.20530  0.37226  0.31658  1.0000
  C   C194      1.0  0.19361  0.40114  0.33498  1.0000
  C   C195      1.0  0.19859  0.42380  0.34101  1.0000
  N   N13       1.0  0.21893  0.44260  0.33547  1.0000
  C   C196      1.0  0.19459  0.45421  0.35245  1.0000
  C   C197      1.0  0.18300  0.43103  0.35146  1.0000
  C   C198      1.0  0.22999  0.53295  0.41761  1.0000
  C   C199      1.0  0.23370  0.51459  0.41730  1.0000
  C   C200      1.0  0.17045  0.38427  0.33222  1.0000
  C   C201      1.0  0.12300  0.35452  0.33015  1.0000
  C   C202      1.0  0.13553  0.35854  0.40993  1.0000
  C   C203      1.0  0.15892  0.37329  0.41114  1.0000
  C   C204      1.0  0.26970  0.37113  0.41015  1.0000
  C   C205      1.0  0.27780  0.35594  0.41154  1.0000
  C   C206      1.0  0.33970  0.51287  0.41885  1.0000
  C   C207      1.0  0.36160  0.53148  0.42016  1.0000
  H   H149      1.0  0.36778  0.53972  0.47940  1.0000
  H   H150      1.0  0.33042  0.50829  0.47648  1.0000
  H   H151      1.0  0.31100  0.52667  0.30730  1.0000
  H   H152      1.0  0.26251  0.37317  0.46667  1.0000
  H   H153      1.0  0.27584  0.34704  0.46889  1.0000
  H   H154      1.0  0.18986  0.35826  0.30913  1.0000
  H   H155      1.0  0.18734  0.46398  0.35922  1.0000
  H   H156      1.0  0.16597  0.42128  0.35776  1.0000
  H   H157      1.0  0.16734  0.37660  0.47061  1.0000
  H   H158      1.0  0.12757  0.35160  0.46901  1.0000
  H   H159      1.0  0.24022  0.51139  0.47318  1.0000
  H   H160      1.0  0.23422  0.54271  0.47378  1.0000
  C   C208      1.0  0.54591  0.78357  0.31443  1.0000
  C   C209      1.0  0.56788  0.76814  0.32931  1.0000
  N   N14       1.0  0.58049  0.79081  0.33546  1.0000
  C   C210      1.0  0.57460  0.82404  0.33589  1.0000
  C   C211      1.0  0.59721  0.84173  0.34104  1.0000
  C   C212      1.0  0.66423  0.84912  0.32932  1.0000
  N   N15       1.0  0.65166  0.82644  0.33619  1.0000
  C   C213      1.0  0.68624  0.83362  0.31708  1.0000
  C   C214      1.0  0.65735  0.79305  0.33540  1.0000
  C   C215      1.0  0.63469  0.77538  0.34141  1.0000
  N   N16       1.0  0.61589  0.77691  0.33572  1.0000
  C   C216      1.0  0.60428  0.74098  0.35318  1.0000
  C   C217      1.0  0.62746  0.75256  0.35218  1.0000
  C   C218      1.0  0.57448  0.75164  0.33753  1.0000
  C   C219      1.0  0.55718  0.72864  0.34019  1.0000
  C   C220      1.0  0.51987  0.68385  0.34112  1.0000
  C   C221      1.0  0.52547  0.69770  0.41788  1.0000
  C   C222      1.0  0.54385  0.71974  0.41757  1.0000
  C   C223      1.0  0.67422  0.78676  0.33263  1.0000
  C   C224      1.0  0.70399  0.76907  0.33054  1.0000
  C   C225      1.0  0.69998  0.77762  0.41029  1.0000
  C   C226      1.0  0.68520  0.78622  0.41153  1.0000
  C   C227      1.0  0.68737  0.89915  0.41044  1.0000
  C   C228      1.0  0.70256  0.92245  0.41178  1.0000
  C   C229      1.0  0.70528  0.93612  0.33657  1.0000
  C   C230      1.0  0.55732  0.82972  0.33877  1.0000
  C   C231      1.0  0.54557  0.82732  0.41914  1.0000
  C   C232      1.0  0.51956  0.83636  0.34172  1.0000
  C   C233      1.0  0.52696  0.83061  0.42048  1.0000
  H   H161      1.0  0.51870  0.82853  0.47970  1.0000
  H   H162      1.0  0.55012  0.82260  0.47673  1.0000
  H   H163      1.0  0.53188  0.78494  0.30648  1.0000
  H   H164      1.0  0.59608  0.79863  0.35240  1.0000
  H   H165      1.0  0.63588  0.81856  0.34987  1.0000
  H   H166      1.0  0.68534  0.88993  0.46692  1.0000
  H   H167      1.0  0.71146  0.92939  0.46908  1.0000
  H   H168      1.0  0.70025  0.83218  0.30960  1.0000
  H   H169      1.0  0.59450  0.72397  0.36017  1.0000
  H   H170      1.0  0.63720  0.74529  0.35868  1.0000
  H   H171      1.0  0.68189  0.79135  0.47100  1.0000
  H   H172      1.0  0.70689  0.77658  0.46939  1.0000
  H   H173      1.0  0.54699  0.72951  0.47332  1.0000
  H   H174      1.0  0.51567  0.69218  0.47399  1.0000
  C   C234      1.0  0.21676  0.75605  0.34015  1.0000
  C   C235      1.0  0.28313  0.85992  0.34050  1.0000
  C   C236      1.0  0.31754  0.86391  0.35210  1.0000
  C   C237      1.0  0.30595  0.87550  0.35105  1.0000
  C   C238      1.0  0.36080  0.82842  0.41764  1.0000
  C   C239      1.0  0.33875  0.82475  0.41724  1.0000
  C   C240      1.0  0.28088  0.92295  0.40963  1.0000
  C   C241      1.0  0.27224  0.89956  0.41081  1.0000
  C   C242      1.0  0.15932  0.78875  0.40977  1.0000
  C   C243      1.0  0.13603  0.78065  0.41112  1.0000
  C   C244      1.0  0.23109  0.71880  0.41847  1.0000
  C   C245      1.0  0.22780  0.69690  0.41979  1.0000
  H   H175      1.0  0.22983  0.69070  0.47904  1.0000
  H   H176      1.0  0.23577  0.72806  0.47610  1.0000
  H   H177      1.0  0.27360  0.74752  0.30667  1.0000
  H   H178      1.0  0.16853  0.79593  0.46628  1.0000
  H   H179      1.0  0.12907  0.78258  0.46849  1.0000
  H   H180      1.0  0.22631  0.86867  0.30944  1.0000
  H   H181      1.0  0.33455  0.87115  0.35903  1.0000
  H   H182      1.0  0.31323  0.89253  0.35742  1.0000
  H   H183      1.0  0.26714  0.89113  0.47029  1.0000
  H   H184      1.0  0.28190  0.93090  0.46871  1.0000
  H   H185      1.0  0.32899  0.81819  0.47304  1.0000
  H   H186      1.0  0.36631  0.82419  0.47387  1.0000
  C   C246      1.0  0.78200  0.52673  0.31634  1.0000
  C   C247      1.0  0.80204  0.52671  0.31664  1.0000
  C   C248      1.0  0.81942  0.54873  0.33041  1.0000
  N   N17       1.0  0.80934  0.56133  0.33656  1.0000
  C   C249      1.0  0.77024  0.55549  0.33623  1.0000
  C   C250      1.0  0.77515  0.57810  0.34101  1.0000
  C   C251      1.0  0.83481  0.64513  0.32970  1.0000
  N   N18       1.0  0.84493  0.63257  0.33652  1.0000
  C   C252      1.0  0.87233  0.66716  0.31777  1.0000
  C   C253      1.0  0.88400  0.63824  0.33538  1.0000
  C   C254      1.0  0.87902  0.61558  0.34127  1.0000
  N   N19       1.0  0.85868  0.59678  0.33589  1.0000
  C   C255      1.0  0.88302  0.58517  0.35253  1.0000
  C   C256      1.0  0.89461  0.60835  0.35150  1.0000
  C   C257      1.0  0.84254  0.55536  0.33781  1.0000
  C   C258      1.0  0.84825  0.53807  0.34039  1.0000
  C   C259      1.0  0.85575  0.50076  0.34126  1.0000
  C   C260      1.0  0.84759  0.50643  0.41816  1.0000
  C   C261      1.0  0.84391  0.52480  0.41788  1.0000
  C   C262      1.0  0.90716  0.65512  0.33253  1.0000
  C   C263      1.0  0.95461  0.68488  0.33019  1.0000
  C   C264      1.0  0.94209  0.68084  0.41005  1.0000
  C   C265      1.0  0.91870  0.66609  0.41140  1.0000
  C   C266      1.0  0.80786  0.66824  0.41066  1.0000
  C   C267      1.0  0.79976  0.68343  0.41201  1.0000
  C   C268      1.0  0.78885  0.68618  0.33674  1.0000
  C   C269      1.0  0.74727  0.53822  0.33907  1.0000
  C   C270      1.0  0.73787  0.52653  0.41951  1.0000
  C   C271      1.0  0.70286  0.50047  0.34197  1.0000
  C   C272      1.0  0.71598  0.50791  0.42081  1.0000
  H   H187      1.0  0.70976  0.49968  0.48006  1.0000
  H   H188      1.0  0.74713  0.53110  0.47715  1.0000
  H   H189      1.0  0.76660  0.51271  0.30828  1.0000
  H   H190      1.0  0.81718  0.57704  0.35146  1.0000
  H   H191      1.0  0.83700  0.61675  0.34949  1.0000
  H   H192      1.0  0.81501  0.66618  0.46722  1.0000
  H   H193      1.0  0.80168  0.69230  0.46939  1.0000
  H   H194      1.0  0.88778  0.68116  0.31035  1.0000
  H   H195      1.0  0.89026  0.57540  0.35931  1.0000
  H   H196      1.0  0.91164  0.61810  0.35774  1.0000
  H   H197      1.0  0.91029  0.66277  0.47092  1.0000
  H   H198      1.0  0.95006  0.68778  0.46909  1.0000
  H   H199      1.0  0.83738  0.52800  0.47377  1.0000
  H   H200      1.0  0.84339  0.49668  0.47440  1.0000
  C   C273      1.0  0.53176  0.25585  0.31654  1.0000
  C   C274      1.0  0.53179  0.27592  0.31685  1.0000
  C   C275      1.0  0.50976  0.27127  0.33068  1.0000
  N   N20       1.0  0.49717  0.24860  0.33692  1.0000
  C   C276      1.0  0.50971  0.23849  0.32987  1.0000
  C   C277      1.0  0.50302  0.21534  0.33654  1.0000
  C   C278      1.0  0.48040  0.19764  0.34131  1.0000
  N   N21       1.0  0.46160  0.19916  0.33464  1.0000
  C   C279      1.0  0.42012  0.17380  0.33498  1.0000
  C   C280      1.0  0.41339  0.19027  0.32959  1.0000
  N   N22       1.0  0.42595  0.21295  0.33641  1.0000
  C   C281      1.0  0.41344  0.22313  0.32983  1.0000
  C   C282      1.0  0.39138  0.20577  0.31716  1.0000
  C   C283      1.0  0.39135  0.18566  0.31690  1.0000
  C   C284      1.0  0.42025  0.24634  0.33566  1.0000
  C   C285      1.0  0.44291  0.26401  0.34178  1.0000
  N   N23       1.0  0.46171  0.26248  0.33631  1.0000
  C   C286      1.0  0.48050  0.28282  0.34300  1.0000
  C   C287      1.0  0.47331  0.29842  0.35331  1.0000
  C   C288      1.0  0.45013  0.28683  0.35224  1.0000
  C   C289      1.0  0.50313  0.28776  0.33823  1.0000
  C   C290      1.0  0.52042  0.31076  0.34084  1.0000
  C   C291      1.0  0.55772  0.35556  0.34169  1.0000
  C   C292      1.0  0.55204  0.34175  0.41861  1.0000
  C   C293      1.0  0.53369  0.31969  0.41829  1.0000
  C   C294      1.0  0.40338  0.25262  0.33281  1.0000
  C   C295      1.0  0.37363  0.27032  0.33056  1.0000
  C   C296      1.0  0.37763  0.26181  0.41039  1.0000
  C   C297      1.0  0.39238  0.25317  0.41169  1.0000
  C   C298      1.0  0.40315  0.15063  0.33362  1.0000
  C   C299      1.0  0.39022  0.14021  0.41064  1.0000
  C   C300      1.0  0.37503  0.11691  0.41191  1.0000
  C   C301      1.0  0.37232  0.10326  0.33663  1.0000
  C   C302      1.0  0.52029  0.20965  0.33937  1.0000
  C   C303      1.0  0.53199  0.21197  0.41978  1.0000
  C   C304      1.0  0.55804  0.20300  0.34225  1.0000
  C   C305      1.0  0.55059  0.20868  0.42107  1.0000
  H   H201      1.0  0.55883  0.21073  0.48030  1.0000
  H   H202      1.0  0.52741  0.21666  0.47741  1.0000
  H   H203      1.0  0.54579  0.25448  0.30835  1.0000
  H   H204      1.0  0.48145  0.24072  0.35191  1.0000
  H   H205      1.0  0.44170  0.22082  0.35063  1.0000
  H   H206      1.0  0.44038  0.14627  0.35883  1.0000
  H   H207      1.0  0.39224  0.14941  0.46719  1.0000
  H   H208      1.0  0.36611  0.10995  0.46921  1.0000
  H   H209      1.0  0.37737  0.20721  0.30966  1.0000
  H   H210      1.0  0.48308  0.31543  0.36009  1.0000
  H   H211      1.0  0.44038  0.29411  0.35848  1.0000
  H   H212      1.0  0.39568  0.24806  0.47120  1.0000
  H   H213      1.0  0.37068  0.26283  0.46944  1.0000
  H   H214      1.0  0.53048  0.30995  0.47417  1.0000
  H   H215      1.0  0.56180  0.34727  0.47478  1.0000
  C   C306      1.0  0.80268  0.27646  0.31443  1.0000
  C   C307      1.0  0.78725  0.23906  0.32933  1.0000
  C   C308      1.0  0.84314  0.28823  0.33578  1.0000
  C   C309      1.0  0.86084  0.28332  0.34090  1.0000
  C   C310      1.0  0.86823  0.22369  0.32916  1.0000
  C   C311      1.0  0.85273  0.18617  0.31690  1.0000
  C   C312      1.0  0.81216  0.17449  0.33528  1.0000
  C   C313      1.0  0.79449  0.17948  0.34135  1.0000
  N   N24       1.0  0.79602  0.19982  0.33567  1.0000
  C   C314      1.0  0.76009  0.17549  0.35322  1.0000
  C   C315      1.0  0.77167  0.16390  0.35216  1.0000
  C   C316      1.0  0.74775  0.21026  0.34035  1.0000
  C   C317      1.0  0.71682  0.21102  0.41819  1.0000
  C   C318      1.0  0.73887  0.21469  0.41778  1.0000
  C   C319      1.0  0.80587  0.15134  0.33249  1.0000
  C   C320      1.0  0.78817  0.10388  0.33040  1.0000
  C   C321      1.0  0.79672  0.11642  0.41014  1.0000
  C   C322      1.0  0.80533  0.13981  0.41138  1.0000
  C   C323      1.0  0.91826  0.25058  0.41025  1.0000
  C   C324      1.0  0.94155  0.25868  0.41158  1.0000
  C   C325      1.0  0.84643  0.32054  0.41907  1.0000
  C   C326      1.0  0.85546  0.35560  0.34166  1.0000
  C   C327      1.0  0.84972  0.34244  0.42042  1.0000
  H   H216      1.0  0.84765  0.34861  0.47966  1.0000
  H   H217      1.0  0.84172  0.31126  0.47666  1.0000
  H   H218      1.0  0.80404  0.29186  0.30649  1.0000
  H   H219      1.0  0.83767  0.22148  0.34974  1.0000
  H   H220      1.0  0.90903  0.24337  0.46674  1.0000
  H   H221      1.0  0.94850  0.25672  0.46889  1.0000
  H   H222      1.0  0.85129  0.17073  0.30942  1.0000
  H   H223      1.0  0.74308  0.16826  0.36025  1.0000
  H   H224      1.0  0.76440  0.14688  0.35866  1.0000
  H   H225      1.0  0.81047  0.14823  0.47084  1.0000
  H   H226      1.0  0.79568  0.10846  0.46923  1.0000
  H   H227      1.0  0.74864  0.22130  0.47349  1.0000
  H   H228      1.0  0.71132  0.21530  0.47433  1.0000
  C   C328      1.0  0.21714  0.61915  0.34056  1.0000
  C   C329      1.0  0.23537  0.63774  0.38234  1.0000
  C   C330      1.0  0.23684  0.65885  0.38300  1.0000
  H   H229      1.0  0.25051  0.67198  0.41266  1.0000
  C   C331      1.0  0.21682  0.59829  0.34166  1.0000
  C   C332      1.0  0.21942  0.55811  0.33987  1.0000
  C   C333      1.0  0.21010  0.56355  0.41360  1.0000
  C   C334      1.0  0.20873  0.58343  0.41606  1.0000
  H   H230      1.0  0.20416  0.55276  0.46680  1.0000
  H   H231      1.0  0.24785  0.63609  0.41248  1.0000
  C   C335      1.0  0.19903  0.58838  0.49595  1.0000
  H   H232      1.0  0.18470  0.59011  0.47616  1.0000
  H   H233      1.0  0.21165  0.60403  0.52685  1.0000
  H   H234      1.0  0.19325  0.57520  0.54652  1.0000
  C   C336      1.0  0.39639  0.55871  0.34177  1.0000
  C   C337      1.0  0.43935  0.59859  0.34096  1.0000
  C   C338      1.0  0.42074  0.59823  0.38271  1.0000
  C   C339      1.0  0.39963  0.57858  0.38334  1.0000
  H   H235      1.0  0.38649  0.57911  0.41296  1.0000
  C   C340      1.0  0.46019  0.61913  0.34208  1.0000
  C   C341      1.0  0.50037  0.66192  0.34030  1.0000
  C   C342      1.0  0.49490  0.64719  0.41410  1.0000
  C   C343      1.0  0.47503  0.62593  0.41654  1.0000
  H   H236      1.0  0.50567  0.65205  0.46734  1.0000
  H   H237      1.0  0.42237  0.61235  0.41281  1.0000
  C   C344      1.0  0.47005  0.61129  0.49648  1.0000
  H   H238      1.0  0.46834  0.59523  0.47676  1.0000
  H   H239      1.0  0.45438  0.60826  0.52731  1.0000
  H   H240      1.0  0.48321  0.61871  0.54708  1.0000
  C   C345      1.0  0.49979  0.83825  0.34215  1.0000
  C   C346      1.0  0.45991  0.84133  0.34121  1.0000
  C   C347      1.0  0.46025  0.82308  0.38293  1.0000
  C   C348      1.0  0.47990  0.82162  0.38361  1.0000
  H   H241      1.0  0.47935  0.80794  0.41321  1.0000
  C   C349      1.0  0.43937  0.84164  0.34221  1.0000
  C   C350      1.0  0.39659  0.83905  0.34015  1.0000
  C   C351      1.0  0.41130  0.84833  0.41398  1.0000
  C   C352      1.0  0.43255  0.84970  0.41656  1.0000
  H   H242      1.0  0.40642  0.85426  0.46714  1.0000
  H   H243      1.0  0.44612  0.81059  0.41297  1.0000
  C   C353      1.0  0.44716  0.85937  0.49654  1.0000
  H   H244      1.0  0.46323  0.87372  0.47683  1.0000
  H   H245      1.0  0.45017  0.84674  0.52745  1.0000
  H   H246      1.0  0.43972  0.86513  0.54706  1.0000
  C   C354      1.0  0.85736  0.37726  0.34212  1.0000
  C   C355      1.0  0.86045  0.42023  0.34127  1.0000
  C   C356      1.0  0.84220  0.40163  0.38302  1.0000
  C   C357      1.0  0.84074  0.38052  0.38370  1.0000
  H   H247      1.0  0.82705  0.36737  0.41327  1.0000
  C   C358      1.0  0.86077  0.44108  0.34233  1.0000
  C   C359      1.0  0.85818  0.48127  0.34044  1.0000
  C   C360      1.0  0.86748  0.47583  0.41418  1.0000
  C   C361      1.0  0.86885  0.45595  0.41669  1.0000
  H   H248      1.0  0.87342  0.48662  0.46736  1.0000
  H   H249      1.0  0.82971  0.40327  0.41311  1.0000
  C   C362      1.0  0.87853  0.45099  0.49659  1.0000
  H   H250      1.0  0.89287  0.44926  0.47680  1.0000
  H   H251      1.0  0.86590  0.43535  0.52753  1.0000
  H   H252      1.0  0.88430  0.46418  0.54712  1.0000
  C   C363      1.0  0.68121  0.48069  0.34239  1.0000
  C   C364      1.0  0.63825  0.44081  0.34154  1.0000
  C   C365      1.0  0.65684  0.44117  0.38334  1.0000
  C   C366      1.0  0.67795  0.46082  0.38400  1.0000
  H   H253      1.0  0.69108  0.46029  0.41367  1.0000
  C   C367      1.0  0.61740  0.42028  0.34265  1.0000
  C   C368      1.0  0.57722  0.37749  0.34086  1.0000
  C   C369      1.0  0.58265  0.39224  0.41458  1.0000
  C   C370      1.0  0.60253  0.41349  0.41704  1.0000
  H   H254      1.0  0.57186  0.38738  0.46778  1.0000
  H   H255      1.0  0.65520  0.42705  0.41349  1.0000
  C   C371      1.0  0.60747  0.42813  0.49692  1.0000
  H   H256      1.0  0.60920  0.44420  0.47712  1.0000
  H   H257      1.0  0.62312  0.43116  0.52783  1.0000
  H   H258      1.0  0.59428  0.42072  0.54748  1.0000
  C   C372      1.0  0.57782  0.20112  0.34265  1.0000
  C   C373      1.0  0.61770  0.19804  0.34172  1.0000
  C   C374      1.0  0.61734  0.21628  0.38347  1.0000
  C   C375      1.0  0.59769  0.21774  0.38416  1.0000
  H   H259      1.0  0.59822  0.23141  0.41378  1.0000
  C   C376      1.0  0.63824  0.19774  0.34275  1.0000
  C   C377      1.0  0.68103  0.20035  0.34077  1.0000
  C   C378      1.0  0.66631  0.19108  0.41463  1.0000
  C   C379      1.0  0.64506  0.18970  0.41718  1.0000
  H   H260      1.0  0.67119  0.18518  0.46785  1.0000
  H   H261      1.0  0.63146  0.22877  0.41353  1.0000
  C   C380      1.0  0.63043  0.18004  0.49717  1.0000
  H   H262      1.0  0.61437  0.16568  0.47751  1.0000
  H   H263      1.0  0.62740  0.19266  0.52802  1.0000
  H   H264      1.0  0.63786  0.17429  0.54775  1.0000
  C   C381      1.0  0.09903  0.34119  0.33050  1.0000
  C   C382      1.0  0.05109  0.31553  0.33496  1.0000
  C   C383      1.0  0.06419  0.30735  0.37517  1.0000
  C   C384      1.0  0.08779  0.32005  0.37340  1.0000
  H   H265      1.0  0.09673  0.31359  0.40317  1.0000
  C   C385      1.0  0.02724  0.30252  0.34159  1.0000
  C   C386      1.0  0.97919  0.27957  0.33981  1.0000
  C   C387      1.0  0.99156  0.29211  0.41522  1.0000
  C   C388      1.0  0.01535  0.30364  0.41750  1.0000
  H   H266      1.0  0.98309  0.29376  0.46828  1.0000
  H   H267      1.0  0.05663  0.29213  0.40699  1.0000
  C   C389      1.0  0.02735  0.31710  0.49777  1.0000
  H   H268      1.0  0.03814  0.33467  0.47914  1.0000
  H   H269      1.0  0.03770  0.31075  0.52638  1.0000
  H   H270      1.0  0.01590  0.31643  0.54984  1.0000
  C   C390      1.0  0.71732  0.75843  0.33091  1.0000
  C   C391      1.0  0.74298  0.73616  0.33537  1.0000
  C   C392      1.0  0.75115  0.75744  0.37556  1.0000
  C   C393      1.0  0.73845  0.76834  0.37380  1.0000
  H   H271      1.0  0.74491  0.78375  0.40352  1.0000
  C   C394      1.0  0.75598  0.72531  0.34201  1.0000
  C   C395      1.0  0.77892  0.70021  0.34020  1.0000
  C   C396      1.0  0.76635  0.70002  0.41559  1.0000
  C   C397      1.0  0.75483  0.71230  0.41789  1.0000
  H   H272      1.0  0.76468  0.68990  0.46862  1.0000
  H   H273      1.0  0.76637  0.76511  0.40735  1.0000
  C   C398      1.0  0.74134  0.71082  0.49812  1.0000
  H   H274      1.0  0.72378  0.70405  0.47945  1.0000
  H   H275      1.0  0.74768  0.72752  0.52677  1.0000
  H   H276      1.0  0.74199  0.70003  0.55017  1.0000
  C   C399      1.0  0.32232  0.00742  0.33490  1.0000
  C   C400      1.0  0.30102  0.99429  0.37505  1.0000
  C   C401      1.0  0.29013  0.97069  0.37319  1.0000
  H   H277      1.0  0.27471  0.96174  0.40292  1.0000
  C   C402      1.0  0.33316  0.03126  0.34165  1.0000
  C   C403      1.0  0.35828  0.07931  0.34002  1.0000
  C   C404      1.0  0.35844  0.06690  0.41535  1.0000
  C   C405      1.0  0.34615  0.04311  0.41758  1.0000
  H   H278      1.0  0.36853  0.07534  0.46844  1.0000
  H   H279      1.0  0.29334  0.00184  0.40688  1.0000
  C   C406      1.0  0.34758  0.03107  0.49778  1.0000
  H   H280      1.0  0.35435  0.02028  0.47910  1.0000
  H   H281      1.0  0.33088  0.02072  0.52639  1.0000
  H   H282      1.0  0.35836  0.04249  0.54988  1.0000
  C   C407      1.0  0.02652  0.72387  0.33469  1.0000
  C   C408      1.0  0.01341  0.73205  0.37495  1.0000
  C   C409      1.0  0.98982  0.71934  0.37329  1.0000
  H   H283      1.0  0.98087  0.72580  0.40313  1.0000
  C   C410      1.0  0.05037  0.73687  0.34129  1.0000
  C   C411      1.0  0.09842  0.75979  0.33935  1.0000
  C   C412      1.0  0.08603  0.74721  0.41472  1.0000
  C   C413      1.0  0.06224  0.73572  0.41711  1.0000
  H   H284      1.0  0.09449  0.74557  0.46778  1.0000
  H   H285      1.0  0.02098  0.74727  0.40679  1.0000
  C   C414      1.0  0.05023  0.72224  0.49738  1.0000
  H   H286      1.0  0.03942  0.70468  0.47875  1.0000
  H   H287      1.0  0.03989  0.72861  0.52608  1.0000
  H   H288      1.0  0.06167  0.72289  0.54939  1.0000
  C   C415      1.0  0.36029  0.28095  0.33082  1.0000
  C   C416      1.0  0.33462  0.30323  0.33512  1.0000
  C   C417      1.0  0.32645  0.28195  0.37540  1.0000
  C   C418      1.0  0.33915  0.27105  0.37370  1.0000
  H   H289      1.0  0.33269  0.25565  0.40352  1.0000
  C   C419      1.0  0.32162  0.31408  0.34170  1.0000
  C   C420      1.0  0.29868  0.33918  0.33983  1.0000
  C   C421      1.0  0.31122  0.33936  0.41524  1.0000
  C   C422      1.0  0.32274  0.32708  0.41757  1.0000
  H   H290      1.0  0.31287  0.34947  0.46826  1.0000
  H   H291      1.0  0.31122  0.27429  0.40721  1.0000
  C   C423      1.0  0.33620  0.32855  0.49783  1.0000
  H   H292      1.0  0.35377  0.33532  0.47920  1.0000
  H   H293      1.0  0.32985  0.31185  0.52650  1.0000
  H   H294      1.0  0.33554  0.33933  0.54986  1.0000
  C   C424      1.0  0.77753  0.07991  0.33075  1.0000
  C   C425      1.0  0.75526  0.03197  0.33518  1.0000
  C   C426      1.0  0.77654  0.04508  0.37535  1.0000
  C   C427      1.0  0.78743  0.06868  0.37360  1.0000
  H   H295      1.0  0.80284  0.07762  0.40331  1.0000
  C   C428      1.0  0.74442  0.00812  0.34181  1.0000
  C   C429      1.0  0.71932  0.96008  0.34002  1.0000
  C   C430      1.0  0.71914  0.97245  0.41544  1.0000
  C   C431      1.0  0.73141  0.99624  0.41773  1.0000
  H   H296      1.0  0.70902  0.96399  0.46849  1.0000
  H   H297      1.0  0.78421  0.03752  0.40712  1.0000
  C   C432      1.0  0.72994  0.00826  0.49799  1.0000
  H   H298      1.0  0.72317  0.01904  0.47936  1.0000
  H   H299      1.0  0.74664  0.01861  0.52660  1.0000
  H   H300      1.0  0.71916  0.99681  0.55006  1.0000
