data_image0
_chemical_formula_structural       C2HC5H3C2HC5H3C2NC3NHCH3C2NC3NHCH3C2NC3NHCH3C2NC3NHCH3C2HC5H3C2HC5H3C2HC5H3C2HC5H3C2NC3NHCH3C2NC3NHCH3C2NC3NHCH3C2NC3NHCH3C2HC5H3C2HC5H3C2HC5H3C2HC5H3C6H3C6H3C6H3C6H3C6H3C6H3C6H3C6H3C6H3C6H3C6H3C6H3C2NC3NHCH3C2NC3NHCH3C2HC5H3C2HC5H3C2HC5H3C2HC5H3C2NC3NHCH3C2NC3NHCH3C2NC3NHCH3C2NC3NHCH3C2HC5H3C2HC5H3C2HC5H3C2HC5H3C2NC3NHCH3C2NC3NHCH3C2NC3NHCH3C2NC3NHCH3
_chemical_formula_sum              "C306 H180 N36"
_cell_length_a       51.3307
_cell_length_b       51.1723
_cell_length_c       14.9243
_cell_angle_alpha    90
_cell_angle_beta     90
_cell_angle_gamma    90.1804

_space_group_name_H-M_alt    "P 1"
_space_group_IT_number       1

loop_
  _space_group_symop_operation_xyz
  'x, y, z'

loop_
  _atom_site_type_symbol
  _atom_site_label
  _atom_site_symmetry_multiplicity
  _atom_site_fract_x
  _atom_site_fract_y
  _atom_site_fract_z
  _atom_site_occupancy
  C   C1        1.0  0.02073  0.48253  0.25544  1.0000
  C   C2        1.0  0.04010  0.46298  0.25837  1.0000
  H   H1        1.0  0.04741  0.45569  0.19957  1.0000
  C   C3        1.0  0.95230  0.55084  0.33709  1.0000
  C   C4        1.0  0.96221  0.54127  0.25516  1.0000
  C   C5        1.0  0.98169  0.52176  0.25391  1.0000
  C   C6        1.0  0.99180  0.51184  0.17282  1.0000
  C   C7        1.0  0.01111  0.49240  0.17358  1.0000
  H   H2        1.0  0.98516  0.51866  0.11255  1.0000
  H   H3        1.0  0.01808  0.48552  0.11384  1.0000
  H   H4        1.0  0.95515  0.54854  0.19602  1.0000
  C   C8        1.0  0.52009  0.01960  0.25537  1.0000
  C   C9        1.0  0.53958  0.03916  0.25833  1.0000
  H   H5        1.0  0.54687  0.04653  0.19955  1.0000
  C   C10       1.0  0.45186  0.95069  0.33703  1.0000
  C   C11       1.0  0.46147  0.96062  0.25507  1.0000
  C   C12       1.0  0.48096  0.98023  0.25381  1.0000
  C   C13       1.0  0.49089  0.99039  0.17272  1.0000
  C   C14       1.0  0.51028  0.00987  0.17349  1.0000
  H   H6        1.0  0.48410  0.98367  0.11245  1.0000
  H   H7        1.0  0.51716  0.01688  0.11376  1.0000
  H   H8        1.0  0.45421  0.95349  0.19595  1.0000
  C   C15       1.0  0.07433  0.36034  0.33646  1.0000
  C   C16       1.0  0.07132  0.34575  0.25603  1.0000
  N   N1        1.0  0.06580  0.31975  0.26169  1.0000
  C   C17       1.0  0.06291  0.30632  0.33964  1.0000
  C   C18       1.0  0.05733  0.27921  0.33998  1.0000
  C   C19       1.0  0.04919  0.23963  0.25889  1.0000
  N   N2        1.0  0.05453  0.26563  0.26215  1.0000
  H   H9        1.0  0.04734  0.23080  0.19776  1.0000
  C   C20       1.0  0.07393  0.35648  0.16432  1.0000
  H   H10       1.0  0.07824  0.37735  0.16353  1.0000
  H   H11       1.0  0.05579  0.35334  0.12767  1.0000
  H   H12       1.0  0.08963  0.34640  0.12933  1.0000
  C   C21       1.0  0.92759  0.64376  0.33636  1.0000
  C   C22       1.0  0.93072  0.65833  0.25593  1.0000
  N   N3        1.0  0.93637  0.68430  0.26159  1.0000
  C   C23       1.0  0.93936  0.69771  0.33955  1.0000
  C   C24       1.0  0.94499  0.72481  0.33990  1.0000
  C   C25       1.0  0.95289  0.76445  0.25883  1.0000
  N   N4        1.0  0.94760  0.73844  0.26208  1.0000
  H   H13       1.0  0.95461  0.77331  0.19771  1.0000
  C   C26       1.0  0.92816  0.64759  0.16421  1.0000
  H   H14       1.0  0.92371  0.62675  0.16342  1.0000
  H   H15       1.0  0.94637  0.65060  0.12784  1.0000
  H   H16       1.0  0.91258  0.65778  0.12894  1.0000
  C   C27       1.0  0.64192  0.07387  0.33632  1.0000
  C   C28       1.0  0.65644  0.07085  0.25588  1.0000
  N   N5        1.0  0.68232  0.06529  0.26149  1.0000
  C   C29       1.0  0.69570  0.06231  0.33940  1.0000
  C   C30       1.0  0.72272  0.05681  0.33974  1.0000
  C   C31       1.0  0.76228  0.04925  0.25875  1.0000
  N   N6        1.0  0.73634  0.05433  0.26196  1.0000
  H   H17       1.0  0.77114  0.04772  0.19763  1.0000
  C   C32       1.0  0.64573  0.07343  0.16418  1.0000
  H   H18       1.0  0.62496  0.07776  0.16344  1.0000
  H   H19       1.0  0.64872  0.05521  0.12764  1.0000
  H   H20       1.0  0.65589  0.08915  0.12906  1.0000
  C   C33       1.0  0.35916  0.92587  0.33658  1.0000
  C   C34       1.0  0.34480  0.92959  0.25615  1.0000
  N   N7        1.0  0.31907  0.93574  0.26183  1.0000
  C   C35       1.0  0.30570  0.93864  0.33979  1.0000
  C   C36       1.0  0.27888  0.94494  0.34011  1.0000
  C   C37       1.0  0.23977  0.95431  0.25893  1.0000
  N   N8        1.0  0.26552  0.94838  0.26225  1.0000
  H   H21       1.0  0.23105  0.95645  0.19778  1.0000
  C   C38       1.0  0.35551  0.92712  0.16442  1.0000
  H   H22       1.0  0.37615  0.92216  0.16362  1.0000
  H   H23       1.0  0.35308  0.94559  0.12884  1.0000
  H   H24       1.0  0.34493  0.91187  0.12837  1.0000
  C   C39       1.0  0.43495  0.81768  0.25570  1.0000
  C   C40       1.0  0.42903  0.84461  0.25867  1.0000
  H   H25       1.0  0.42652  0.85466  0.19991  1.0000
  C   C41       1.0  0.45556  0.72316  0.33800  1.0000
  C   C42       1.0  0.45245  0.73650  0.25587  1.0000
  C   C43       1.0  0.44666  0.76350  0.25437  1.0000
  C   C44       1.0  0.44343  0.77727  0.17319  1.0000
  C   C45       1.0  0.43763  0.80412  0.17385  1.0000
  H   H26       1.0  0.44525  0.76788  0.11298  1.0000
  H   H27       1.0  0.43535  0.81366  0.11410  1.0000
  H   H28       1.0  0.45436  0.72646  0.19685  1.0000
  C   C46       1.0  0.56590  0.18191  0.25567  1.0000
  C   C47       1.0  0.57170  0.15495  0.25850  1.0000
  H   H29       1.0  0.57409  0.14489  0.19968  1.0000
  C   C48       1.0  0.54662  0.27675  0.33812  1.0000
  C   C49       1.0  0.54925  0.26329  0.25601  1.0000
  C   C50       1.0  0.55472  0.23622  0.25449  1.0000
  C   C51       1.0  0.55754  0.22237  0.17329  1.0000
  C   C52       1.0  0.56311  0.19548  0.17387  1.0000
  H   H30       1.0  0.55565  0.23176  0.11309  1.0000
  H   H31       1.0  0.56516  0.18590  0.11408  1.0000
  H   H32       1.0  0.54719  0.27330  0.19698  1.0000
  C   C53       1.0  0.81957  0.56725  0.25593  1.0000
  C   C54       1.0  0.84646  0.57319  0.25879  1.0000
  H   H33       1.0  0.85649  0.57564  0.19997  1.0000
  C   C55       1.0  0.72508  0.54685  0.33821  1.0000
  C   C56       1.0  0.73848  0.54979  0.25614  1.0000
  C   C57       1.0  0.76544  0.55558  0.25468  1.0000
  C   C58       1.0  0.77923  0.55866  0.17350  1.0000
  C   C59       1.0  0.80603  0.56445  0.17412  1.0000
  H   H34       1.0  0.76987  0.55674  0.11329  1.0000
  H   H35       1.0  0.81557  0.56663  0.11434  1.0000
  H   H36       1.0  0.72850  0.54772  0.19709  1.0000
  C   C60       1.0  0.18230  0.43623  0.25542  1.0000
  C   C61       1.0  0.15531  0.43082  0.25831  1.0000
  H   H37       1.0  0.14521  0.42865  0.19952  1.0000
  C   C62       1.0  0.27724  0.45377  0.33799  1.0000
  C   C63       1.0  0.26377  0.45159  0.25582  1.0000
  C   C64       1.0  0.23667  0.44654  0.25424  1.0000
  C   C65       1.0  0.22277  0.44414  0.17302  1.0000
  C   C66       1.0  0.19584  0.43899  0.17360  1.0000
  H   H38       1.0  0.23215  0.44603  0.11284  1.0000
  H   H39       1.0  0.18622  0.43724  0.11382  1.0000
  H   H40       1.0  0.27377  0.45370  0.19683  1.0000
  C   C67       1.0  0.07544  0.13350  0.33472  1.0000
  C   C68       1.0  0.08493  0.12194  0.25457  1.0000
  N   N9        1.0  0.10096  0.10089  0.26080  1.0000
  C   C69       1.0  0.10883  0.08990  0.33906  1.0000
  C   C70       1.0  0.12438  0.06714  0.33967  1.0000
  C   C71       1.0  0.14562  0.03297  0.25851  1.0000
  N   N10       1.0  0.13187  0.05556  0.26181  1.0000
  H   H41       1.0  0.14965  0.02494  0.19735  1.0000
  C   C72       1.0  0.07806  0.13034  0.16262  1.0000
  H   H42       1.0  0.06544  0.14743  0.16143  1.0000
  H   H43       1.0  0.06807  0.11441  0.12802  1.0000
  H   H44       1.0  0.09582  0.13517  0.12587  1.0000
  C   C73       1.0  0.92737  0.87079  0.33461  1.0000
  C   C74       1.0  0.91797  0.88248  0.25454  1.0000
  N   N11       1.0  0.90206  0.90362  0.26089  1.0000
  C   C75       1.0  0.89431  0.91467  0.33920  1.0000
  C   C76       1.0  0.87877  0.93743  0.33997  1.0000
  C   C77       1.0  0.85713  0.97141  0.25905  1.0000
  N   N12       1.0  0.87103  0.94890  0.26220  1.0000
  H   H45       1.0  0.85289  0.97935  0.19792  1.0000
  C   C78       1.0  0.92480  0.87409  0.16255  1.0000
  H   H46       1.0  0.93732  0.85693  0.16127  1.0000
  H   H47       1.0  0.93490  0.88998  0.12810  1.0000
  H   H48       1.0  0.90703  0.86939  0.12573  1.0000
  C   C79       1.0  0.86761  0.07771  0.33464  1.0000
  C   C80       1.0  0.87944  0.08695  0.25452  1.0000
  N   N13       1.0  0.90073  0.10274  0.26078  1.0000
  C   C81       1.0  0.91175  0.11061  0.33908  1.0000
  C   C82       1.0  0.93487  0.12568  0.33975  1.0000
  C   C83       1.0  0.96972  0.14592  0.25867  1.0000
  N   N14       1.0  0.94677  0.13273  0.26191  1.0000
  H   H49       1.0  0.97792  0.14969  0.19756  1.0000
  C   C84       1.0  0.87110  0.07996  0.16257  1.0000
  H   H50       1.0  0.85375  0.06763  0.16137  1.0000
  H   H51       1.0  0.88680  0.06954  0.12874  1.0000
  H   H52       1.0  0.86681  0.09774  0.12511  1.0000
  C   C85       1.0  0.13428  0.92682  0.33453  1.0000
  C   C86       1.0  0.12254  0.91745  0.25446  1.0000
  N   N15       1.0  0.10141  0.90146  0.26085  1.0000
  C   C87       1.0  0.09052  0.89351  0.33924  1.0000
  C   C88       1.0  0.06755  0.87822  0.33999  1.0000
  C   C89       1.0  0.03284  0.85777  0.25891  1.0000
  N   N16       1.0  0.05571  0.87111  0.26214  1.0000
  H   H53       1.0  0.02464  0.85401  0.19781  1.0000
  C   C90       1.0  0.13084  0.92443  0.16246  1.0000
  H   H54       1.0  0.14804  0.93697  0.16115  1.0000
  H   H55       1.0  0.11503  0.93460  0.12837  1.0000
  H   H56       1.0  0.13537  0.90664  0.12529  1.0000
  C   C91       1.0  0.40097  0.59890  0.25564  1.0000
  C   C92       1.0  0.41753  0.62096  0.25907  1.0000
  H   H57       1.0  0.42471  0.62862  0.20057  1.0000
  C   C93       1.0  0.34977  0.51692  0.33799  1.0000
  C   C94       1.0  0.35664  0.52869  0.25570  1.0000
  C   C95       1.0  0.37042  0.55264  0.25402  1.0000
  C   C96       1.0  0.37848  0.56430  0.17287  1.0000
  C   C97       1.0  0.39363  0.58725  0.17367  1.0000
  H   H58       1.0  0.37393  0.55585  0.11268  1.0000
  H   H59       1.0  0.39977  0.59500  0.11404  1.0000
  H   H60       1.0  0.35258  0.51921  0.19683  1.0000
  C   C98       1.0  0.60058  0.40151  0.25566  1.0000
  C   C99       1.0  0.58400  0.37946  0.25907  1.0000
  H   H61       1.0  0.57676  0.37185  0.20057  1.0000
  C   C100      1.0  0.65289  0.48293  0.33772  1.0000
  C   C101      1.0  0.64557  0.47134  0.25554  1.0000
  C   C102      1.0  0.63150  0.44755  0.25395  1.0000
  C   C103      1.0  0.62310  0.43610  0.17286  1.0000
  C   C104      1.0  0.60779  0.41325  0.17370  1.0000
  H   H62       1.0  0.62759  0.44458  0.11268  1.0000
  H   H63       1.0  0.60150  0.40562  0.11410  1.0000
  H   H64       1.0  0.64951  0.48088  0.19669  1.0000
  C   C105      1.0  0.60041  0.59983  0.25586  1.0000
  C   C106      1.0  0.62263  0.58367  0.25919  1.0000
  H   H65       1.0  0.63031  0.57658  0.20065  1.0000
  C   C107      1.0  0.51851  0.65057  0.33822  1.0000
  C   C108      1.0  0.53018  0.64354  0.25598  1.0000
  C   C109      1.0  0.55405  0.62985  0.25434  1.0000
  C   C110      1.0  0.56564  0.62179  0.17318  1.0000
  C   C111      1.0  0.58864  0.60693  0.17394  1.0000
  H   H66       1.0  0.55717  0.62622  0.11301  1.0000
  H   H67       1.0  0.59639  0.60086  0.11430  1.0000
  H   H68       1.0  0.52071  0.64752  0.19712  1.0000
  C   C112      1.0  0.40129  0.39951  0.25613  1.0000
  C   C113      1.0  0.37920  0.41584  0.25956  1.0000
  H   H69       1.0  0.37153  0.42296  0.20105  1.0000
  C   C114      1.0  0.48329  0.34894  0.33814  1.0000
  C   C115      1.0  0.47151  0.35580  0.25593  1.0000
  C   C116      1.0  0.44759  0.36939  0.25437  1.0000
  C   C117      1.0  0.43592  0.37738  0.17326  1.0000
  C   C118      1.0  0.41296  0.39230  0.17413  1.0000
  H   H70       1.0  0.44435  0.37292  0.11304  1.0000
  H   H71       1.0  0.40519  0.39837  0.11452  1.0000
  H   H72       1.0  0.48095  0.35181  0.19701  1.0000
  C   C119      1.0  0.08130  0.38722  0.33760  1.0000
  C   C120      1.0  0.10786  0.39454  0.33846  1.0000
  C   C121      1.0  0.11529  0.42114  0.33998  1.0000
  C   C122      1.0  0.09577  0.44058  0.34052  1.0000
  C   C123      1.0  0.06907  0.43365  0.34002  1.0000
  C   C124      1.0  0.06204  0.40690  0.33851  1.0000
  H   H73       1.0  0.10105  0.45990  0.34170  1.0000
  H   H74       1.0  0.04274  0.40171  0.33813  1.0000
  H   H75       1.0  0.12193  0.38036  0.33805  1.0000
  C   C125      1.0  0.92055  0.61689  0.33751  1.0000
  C   C126      1.0  0.89398  0.60955  0.33910  1.0000
  C   C127      1.0  0.88654  0.58295  0.34034  1.0000
  C   C128      1.0  0.90609  0.56353  0.33994  1.0000
  C   C129      1.0  0.93280  0.57045  0.33862  1.0000
  C   C130      1.0  0.93981  0.59720  0.33733  1.0000
  H   H76       1.0  0.90082  0.54420  0.34048  1.0000
  H   H77       1.0  0.95910  0.60240  0.33601  1.0000
  H   H78       1.0  0.87992  0.62374  0.33924  1.0000
  C   C131      1.0  0.61514  0.08084  0.33752  1.0000
  C   C132      1.0  0.60788  0.10745  0.33841  1.0000
  C   C133      1.0  0.58137  0.11481  0.34006  1.0000
  C   C134      1.0  0.56197  0.09514  0.34065  1.0000
  C   C135      1.0  0.56882  0.06839  0.34005  1.0000
  C   C136      1.0  0.59546  0.06144  0.33847  1.0000
  H   H79       1.0  0.54271  0.10034  0.34189  1.0000
  H   H80       1.0  0.60059  0.04210  0.33803  1.0000
  H   H81       1.0  0.62205  0.12162  0.33799  1.0000
  C   C137      1.0  0.38588  0.91878  0.33769  1.0000
  C   C138      1.0  0.39304  0.89215  0.33934  1.0000
  C   C139      1.0  0.41952  0.88473  0.34044  1.0000
  C   C140      1.0  0.43899  0.90434  0.33993  1.0000
  C   C141      1.0  0.43223  0.93112  0.33860  1.0000
  C   C142      1.0  0.40560  0.93813  0.33734  1.0000
  H   H82       1.0  0.45824  0.89908  0.34040  1.0000
  H   H83       1.0  0.40052  0.95748  0.33601  1.0000
  H   H84       1.0  0.37883  0.87802  0.33953  1.0000
  C   C143      1.0  0.05541  0.15252  0.33491  1.0000
  C   C144      1.0  0.02921  0.14408  0.33529  1.0000
  C   C145      1.0  0.00859  0.16226  0.33656  1.0000
  C   C146      1.0  0.01439  0.18926  0.33751  1.0000
  C   C147      1.0  0.04054  0.19809  0.33684  1.0000
  C   C148      1.0  0.06096  0.17958  0.33585  1.0000
  H   H85       1.0  0.99949  0.20253  0.33898  1.0000
  H   H86       1.0  0.07995  0.18579  0.33595  1.0000
  H   H87       1.0  0.02510  0.12445  0.33510  1.0000
  C   C149      1.0  0.94725  0.85161  0.33476  1.0000
  C   C150      1.0  0.97350  0.85986  0.33535  1.0000
  C   C151      1.0  0.99398  0.84153  0.33678  1.0000
  C   C152      1.0  0.98802  0.81458  0.33772  1.0000
  C   C153      1.0  0.96181  0.80592  0.33681  1.0000
  C   C154      1.0  0.94152  0.82458  0.33561  1.0000
  H   H88       1.0  0.00283  0.80121  0.33929  1.0000
  H   H89       1.0  0.92249  0.81849  0.33560  1.0000
  H   H90       1.0  0.97775  0.87946  0.33518  1.0000
  C   C155      1.0  0.84894  0.05723  0.33488  1.0000
  C   C156      1.0  0.85783  0.03117  0.33539  1.0000
  C   C157      1.0  0.84013  0.01003  0.33673  1.0000
  C   C158      1.0  0.81310  0.01516  0.33757  1.0000
  C   C159      1.0  0.80378  0.04117  0.33676  1.0000
  C   C160      1.0  0.82186  0.06211  0.33573  1.0000
  H   H91       1.0  0.80015  0.99988  0.33908  1.0000
  H   H92       1.0  0.81532  0.08101  0.33575  1.0000
  H   H93       1.0  0.87748  0.02754  0.33524  1.0000
  C   C161      1.0  0.15306  0.94716  0.33466  1.0000
  C   C162      1.0  0.14444  0.97332  0.33486  1.0000
  C   C163      1.0  0.16240  0.99425  0.33614  1.0000
  C   C164      1.0  0.18937  0.98881  0.33717  1.0000
  C   C165      1.0  0.19836  0.96269  0.33672  1.0000
  C   C166      1.0  0.18006  0.94196  0.33583  1.0000
  H   H94       1.0  0.20249  0.00393  0.33868  1.0000
  H   H95       1.0  0.18638  0.92299  0.33608  1.0000
  H   H96       1.0  0.12484  0.97716  0.33460  1.0000
  C   C167      1.0  0.44577  0.65055  0.34179  1.0000
  C   C168      1.0  0.47188  0.64202  0.34157  1.0000
  C   C169      1.0  0.49268  0.66011  0.34036  1.0000
  C   C170      1.0  0.48713  0.68714  0.33939  1.0000
  C   C171      1.0  0.46106  0.69606  0.33990  1.0000
  C   C172      1.0  0.44047  0.67761  0.34075  1.0000
  H   H97       1.0  0.50216  0.70037  0.33801  1.0000
  H   H98       1.0  0.42153  0.68389  0.34059  1.0000
  H   H99       1.0  0.47580  0.62237  0.34182  1.0000
  C   C173      1.0  0.55604  0.34951  0.34181  1.0000
  C   C174      1.0  0.52986  0.35784  0.34140  1.0000
  C   C175      1.0  0.50919  0.33960  0.34016  1.0000
  C   C176      1.0  0.51492  0.31261  0.33928  1.0000
  C   C177      1.0  0.54105  0.30386  0.34000  1.0000
  C   C178      1.0  0.56151  0.32247  0.34095  1.0000
  H   H100      1.0  0.49998  0.29929  0.33788  1.0000
  H   H101      1.0  0.58049  0.31632  0.34089  1.0000
  H   H102      1.0  0.52580  0.37746  0.34158  1.0000
  C   C179      1.0  0.65255  0.55588  0.34182  1.0000
  C   C180      1.0  0.64421  0.52958  0.34132  1.0000
  C   C181      1.0  0.66236  0.50893  0.34004  1.0000
  C   C182      1.0  0.68927  0.51481  0.33927  1.0000
  C   C183      1.0  0.69804  0.54107  0.34003  1.0000
  C   C184      1.0  0.67952  0.56150  0.34098  1.0000
  H   H103      1.0  0.70252  0.49988  0.33780  1.0000
  H   H104      1.0  0.68566  0.58057  0.34098  1.0000
  H   H105      1.0  0.62464  0.52541  0.34142  1.0000
  C   C185      1.0  0.34964  0.44396  0.34230  1.0000
  C   C186      1.0  0.35822  0.47019  0.34183  1.0000
  C   C187      1.0  0.34023  0.49098  0.34025  1.0000
  C   C188      1.0  0.31329  0.48536  0.33911  1.0000
  C   C189      1.0  0.30431  0.45918  0.33998  1.0000
  C   C190      1.0  0.32262  0.43857  0.34124  1.0000
  H   H106      1.0  0.30016  0.50039  0.33747  1.0000
  H   H107      1.0  0.31630  0.41956  0.34121  1.0000
  H   H108      1.0  0.37781  0.47420  0.34207  1.0000
  C   C191      1.0  0.04957  0.45333  0.34094  1.0000
  C   C192      1.0  0.03905  0.46391  0.42124  1.0000
  N   N17       1.0  0.02037  0.48269  0.41542  1.0000
  C   C193      1.0  0.01075  0.49242  0.33742  1.0000
  C   C194      1.0  0.99125  0.51196  0.33679  1.0000
  C   C195      1.0  0.96251  0.54038  0.41722  1.0000
  N   N18       1.0  0.98125  0.52169  0.41436  1.0000
  H   H109      1.0  0.95601  0.54669  0.47822  1.0000
  C   C196      1.0  0.04679  0.45614  0.51302  1.0000
  H   H110      1.0  0.06175  0.44108  0.51393  1.0000
  H   H111      1.0  0.02980  0.44867  0.54886  1.0000
  H   H112      1.0  0.05433  0.47317  0.54875  1.0000
  C   C197      1.0  0.54917  0.04873  0.34093  1.0000
  C   C198      1.0  0.53862  0.03811  0.42121  1.0000
  N   N19       1.0  0.51990  0.01925  0.41535  1.0000
  C   C199      1.0  0.51021  0.00955  0.33733  1.0000
  C   C200      1.0  0.49072  0.98989  0.33669  1.0000
  C   C201      1.0  0.46230  0.96099  0.41716  1.0000
  N   N20       1.0  0.48097  0.97986  0.41428  1.0000
  H   H113      1.0  0.45595  0.95448  0.47817  1.0000
  C   C202      1.0  0.54637  0.04589  0.51301  1.0000
  H   H114      1.0  0.56138  0.06100  0.51397  1.0000
  H   H115      1.0  0.55383  0.02888  0.54877  1.0000
  H   H116      1.0  0.52939  0.05333  0.54879  1.0000
  C   C203      1.0  0.06580  0.32004  0.42175  1.0000
  C   C204      1.0  0.07152  0.34705  0.41900  1.0000
  H   H117      1.0  0.07389  0.35711  0.47784  1.0000
  C   C205      1.0  0.04622  0.22521  0.33886  1.0000
  C   C206      1.0  0.04900  0.23860  0.42106  1.0000
  C   C207      1.0  0.05458  0.26568  0.42271  1.0000
  C   C208      1.0  0.05749  0.27950  0.50398  1.0000
  C   C209      1.0  0.06306  0.30643  0.50351  1.0000
  H   H118      1.0  0.05561  0.27008  0.56413  1.0000
  H   H119      1.0  0.06512  0.31599  0.56333  1.0000
  H   H120      1.0  0.04694  0.22855  0.48003  1.0000
  C   C210      1.0  0.93652  0.68398  0.42165  1.0000
  C   C211      1.0  0.93059  0.65701  0.41889  1.0000
  H   H121      1.0  0.92823  0.64694  0.47774  1.0000
  C   C212      1.0  0.95601  0.77884  0.33881  1.0000
  C   C213      1.0  0.95350  0.76538  0.42100  1.0000
  C   C214      1.0  0.94792  0.73830  0.42263  1.0000
  C   C215      1.0  0.94518  0.72445  0.50390  1.0000
  C   C216      1.0  0.93949  0.69754  0.50341  1.0000
  H   H122      1.0  0.94720  0.73384  0.56405  1.0000
  H   H123      1.0  0.93749  0.68796  0.56323  1.0000
  H   H124      1.0  0.95571  0.77539  0.47998  1.0000
  C   C217      1.0  0.68201  0.06507  0.42151  1.0000
  C   C218      1.0  0.65513  0.07088  0.41881  1.0000
  H   H125      1.0  0.64511  0.07317  0.47768  1.0000
  C   C219      1.0  0.77664  0.04623  0.33872  1.0000
  C   C220      1.0  0.76320  0.04864  0.42087  1.0000
  C   C221      1.0  0.73618  0.05397  0.42248  1.0000
  C   C222      1.0  0.72236  0.05664  0.50374  1.0000
  C   C223      1.0  0.69554  0.06216  0.50326  1.0000
  H   H126      1.0  0.73173  0.05470  0.56389  1.0000
  H   H127      1.0  0.68600  0.06411  0.56309  1.0000
  H   H128      1.0  0.77320  0.04661  0.47986  1.0000
  C   C224      1.0  0.31919  0.93504  0.42190  1.0000
  C   C225      1.0  0.34593  0.92864  0.41913  1.0000
  H   H129      1.0  0.35585  0.92587  0.47796  1.0000
  C   C226      1.0  0.22538  0.95721  0.33886  1.0000
  C   C227      1.0  0.23854  0.95377  0.42110  1.0000
  C   C228      1.0  0.26538  0.94764  0.42281  1.0000
  C   C229      1.0  0.27896  0.94403  0.50409  1.0000
  C   C230      1.0  0.30563  0.93780  0.50364  1.0000
  H   H130      1.0  0.26956  0.94586  0.56422  1.0000
  H   H131      1.0  0.31503  0.93523  0.56346  1.0000
  H   H132      1.0  0.22847  0.95562  0.48002  1.0000
  C   C231      1.0  0.42631  0.85784  0.34132  1.0000
  C   C232      1.0  0.42962  0.84328  0.42163  1.0000
  N   N21       1.0  0.43534  0.81738  0.41576  1.0000
  C   C233      1.0  0.43816  0.80400  0.33771  1.0000
  C   C234      1.0  0.44400  0.77699  0.33719  1.0000
  C   C235      1.0  0.45267  0.73754  0.41805  1.0000
  N   N22       1.0  0.44711  0.76345  0.41494  1.0000
  H   H133      1.0  0.45466  0.72872  0.47913  1.0000
  C   C236      1.0  0.42717  0.85398  0.51344  1.0000
  H   H134      1.0  0.42264  0.87477  0.51439  1.0000
  H   H135      1.0  0.44545  0.85114  0.54945  1.0000
  H   H136      1.0  0.41169  0.84362  0.54896  1.0000
  C   C237      1.0  0.57452  0.14170  0.34106  1.0000
  C   C238      1.0  0.57134  0.15626  0.42144  1.0000
  N   N23       1.0  0.56581  0.18222  0.41571  1.0000
  C   C239      1.0  0.56300  0.19564  0.33773  1.0000
  C   C240      1.0  0.55746  0.22273  0.33728  1.0000
  C   C241      1.0  0.54956  0.26236  0.41814  1.0000
  N   N24       1.0  0.55477  0.23637  0.41502  1.0000
  H   H137      1.0  0.54780  0.27122  0.47923  1.0000
  C   C242      1.0  0.57373  0.14550  0.51319  1.0000
  H   H138      1.0  0.57809  0.12467  0.51403  1.0000
  H   H139      1.0  0.55548  0.14847  0.54927  1.0000
  H   H140      1.0  0.58930  0.15572  0.54872  1.0000
  C   C243      1.0  0.85970  0.57602  0.34134  1.0000
  C   C244      1.0  0.84515  0.57280  0.42169  1.0000
  N   N25       1.0  0.81927  0.56709  0.41595  1.0000
  C   C245      1.0  0.80589  0.56419  0.33797  1.0000
  C   C246      1.0  0.77889  0.55838  0.33748  1.0000
  C   C247      1.0  0.73942  0.54988  0.41825  1.0000
  N   N26       1.0  0.76531  0.55542  0.41518  1.0000
  H   H141      1.0  0.73060  0.54795  0.47933  1.0000
  C   C248      1.0  0.85585  0.57533  0.51345  1.0000
  H   H142      1.0  0.87662  0.57983  0.51431  1.0000
  H   H143      1.0  0.85287  0.55703  0.54969  1.0000
  H   H144      1.0  0.84566  0.59092  0.54880  1.0000
  C   C249      1.0  0.14211  0.42799  0.34093  1.0000
  C   C250      1.0  0.15673  0.43075  0.42131  1.0000
  N   N27       1.0  0.18272  0.43591  0.41550  1.0000
  C   C251      1.0  0.19608  0.43872  0.33747  1.0000
  C   C252      1.0  0.22320  0.44380  0.33702  1.0000
  C   C253      1.0  0.26288  0.45085  0.41800  1.0000
  N   N28       1.0  0.23686  0.44607  0.41482  1.0000
  H   H145      1.0  0.27176  0.45236  0.47911  1.0000
  C   C254      1.0  0.14604  0.42824  0.51307  1.0000
  H   H146      1.0  0.12517  0.42423  0.51397  1.0000
  H   H147      1.0  0.14946  0.44636  0.54983  1.0000
  H   H148      1.0  0.15588  0.41232  0.54788  1.0000
  C   C255      1.0  0.10004  0.10090  0.42094  1.0000
  C   C256      1.0  0.08336  0.12276  0.41762  1.0000
  H   H149      1.0  0.07606  0.13025  0.47613  1.0000
  C   C257      1.0  0.15272  0.02010  0.33845  1.0000
  C   C258      1.0  0.14535  0.03157  0.42071  1.0000
  C   C259      1.0  0.13117  0.05519  0.42243  1.0000
  C   C260      1.0  0.12270  0.06651  0.50359  1.0000
  C   C261      1.0  0.10729  0.08919  0.50286  1.0000
  H   H150      1.0  0.12721  0.05804  0.56372  1.0000
  H   H151      1.0  0.10093  0.09671  0.56248  1.0000
  H   H152      1.0  0.14933  0.02204  0.47951  1.0000
  C   C262      1.0  0.90317  0.90368  0.42100  1.0000
  C   C263      1.0  0.91968  0.88169  0.41754  1.0000
  H   H153      1.0  0.92699  0.87416  0.47601  1.0000
  C   C264      1.0  0.85011  0.98429  0.33904  1.0000
  C   C265      1.0  0.85779  0.97297  0.42121  1.0000
  C   C266      1.0  0.87210  0.94943  0.42278  1.0000
  C   C267      1.0  0.88074  0.93818  0.50384  1.0000
  C   C268      1.0  0.89611  0.91547  0.50296  1.0000
  H   H154      1.0  0.87632  0.94667  0.56400  1.0000
  H   H155      1.0  0.90254  0.90796  0.56252  1.0000
  H   H156      1.0  0.85385  0.98250  0.48002  1.0000
  C   C269      1.0  0.90045  0.10214  0.42094  1.0000
  C   C270      1.0  0.87835  0.08568  0.41756  1.0000
  H   H157      1.0  0.87072  0.07847  0.47608  1.0000
  C   C271      1.0  0.98266  0.15283  0.33870  1.0000
  C   C272      1.0  0.97088  0.14595  0.42094  1.0000
  C   C273      1.0  0.94687  0.13235  0.42257  1.0000
  C   C274      1.0  0.93519  0.12433  0.50371  1.0000
  C   C275      1.0  0.91217  0.10935  0.50290  1.0000
  H   H158      1.0  0.94371  0.12873  0.56389  1.0000
  H   H159      1.0  0.90445  0.10319  0.56253  1.0000
  H   H160      1.0  0.98036  0.14993  0.47983  1.0000
  C   C276      1.0  0.10174  0.90209  0.42106  1.0000
  C   C277      1.0  0.12367  0.91877  0.41753  1.0000
  H   H161      1.0  0.13129  0.92601  0.47601  1.0000
  C   C278      1.0  0.01996  0.85078  0.33895  1.0000
  C   C279      1.0  0.03170  0.85771  0.42121  1.0000
  C   C280      1.0  0.05562  0.87145  0.42283  1.0000
  C   C281      1.0  0.06724  0.87958  0.50395  1.0000
  C   C282      1.0  0.09013  0.89476  0.50308  1.0000
  H   H162      1.0  0.05879  0.87509  0.56415  1.0000
  H   H163      1.0  0.09781  0.90100  0.56266  1.0000
  H   H164      1.0  0.02221  0.85373  0.48008  1.0000
  C   C283      1.0  0.42557  0.63162  0.34204  1.0000
  C   C284      1.0  0.41630  0.61981  0.42216  1.0000
  N   N29       1.0  0.40042  0.59857  0.41585  1.0000
  C   C285      1.0  0.39248  0.58762  0.33751  1.0000
  C   C286      1.0  0.37725  0.56457  0.33684  1.0000
  C   C287      1.0  0.35684  0.52979  0.41802  1.0000
  N   N30       1.0  0.37019  0.55269  0.41473  1.0000
  H   H165      1.0  0.35307  0.52158  0.47913  1.0000
  C   C288      1.0  0.42326  0.62817  0.51412  1.0000
  H   H166      1.0  0.43570  0.64546  0.51536  1.0000
  H   H167      1.0  0.43346  0.61235  0.54821  1.0000
  H   H168      1.0  0.40552  0.63265  0.55134  1.0000
  C   C289      1.0  0.57610  0.36864  0.34197  1.0000
  C   C290      1.0  0.58545  0.38042  0.42206  1.0000
  N   N31       1.0  0.60140  0.40163  0.41578  1.0000
  C   C291      1.0  0.60929  0.41265  0.33749  1.0000
  C   C292      1.0  0.62474  0.43558  0.33677  1.0000
  C   C293      1.0  0.64586  0.47001  0.41774  1.0000
  N   N32       1.0  0.63219  0.44728  0.41455  1.0000
  H   H169      1.0  0.64981  0.47814  0.47885  1.0000
  C   C294      1.0  0.57854  0.37204  0.51404  1.0000
  H   H170      1.0  0.56602  0.35480  0.51530  1.0000
  H   H171      1.0  0.56842  0.38788  0.54830  1.0000
  H   H172      1.0  0.59628  0.36746  0.55107  1.0000
  C   C295      1.0  0.63346  0.57585  0.34206  1.0000
  C   C296      1.0  0.62156  0.58490  0.42222  1.0000
  N   N33       1.0  0.60018  0.60045  0.41601  1.0000
  C   C297      1.0  0.58912  0.60821  0.33775  1.0000
  C   C298      1.0  0.56602  0.62320  0.33713  1.0000
  C   C299      1.0  0.53138  0.64357  0.41821  1.0000
  N   N34       1.0  0.55422  0.63031  0.41497  1.0000
  H   H173      1.0  0.52326  0.64744  0.47933  1.0000
  C   C300      1.0  0.62993  0.57800  0.51415  1.0000
  H   H174      1.0  0.64733  0.56585  0.51536  1.0000
  H   H175      1.0  0.61428  0.56741  0.54799  1.0000
  H   H176      1.0  0.63415  0.59583  0.55163  1.0000
  C   C301      1.0  0.36853  0.42381  0.34249  1.0000
  C   C302      1.0  0.38039  0.41468  0.42261  1.0000
  N   N35       1.0  0.40166  0.39899  0.41629  1.0000
  C   C303      1.0  0.41262  0.39114  0.33796  1.0000
  C   C304      1.0  0.43568  0.37611  0.33722  1.0000
  C   C305      1.0  0.47044  0.35590  0.41819  1.0000
  N   N36       1.0  0.44756  0.36909  0.41503  1.0000
  H   H177      1.0  0.47864  0.35216  0.47927  1.0000
  C   C306      1.0  0.37210  0.42165  0.51457  1.0000
  H   H178      1.0  0.35478  0.43392  0.51584  1.0000
  H   H179      1.0  0.38784  0.43211  0.54835  1.0000
  H   H180      1.0  0.36776  0.40384  0.55205  1.0000
