data_image0
_chemical_formula_structural       C3H2NCHNCHC3NH2CNC2OCNC2ONH2C3H2NCHNCHC3NH2CNC2OCNC2ONH2C4H2C3HC3HNCHNC5NH2C3NH2CNH2C2NH2C3NC2ONH2C4H2C3HC3HNCHNC5NH2C3NH2CNH2C2NH2C3NC2ONH2C2H6C2NH2C3NH2NC2OCNH2C3H6C2NH2C3NH2NC2OCNH2C4H2NCHNC4NH2CNC2OCNC2ONH2C3H2NCHNC4NH2CNC2OCNC2ONH2C3HC3H3C3HC3H3C3HC3H3NCHNCHNCHNCHNCHNCHC3NC3NH4C3NC3NH4C3NC3NH4C2NC2ONH2C2NC2ONH2C2NC2ONH2C2NC2ONH2C2NC2ONH2C2NC2ONH2C3HC3H3C3HC3H3C3HC3H3NCHNCHNCHNCHNCHNCHC3NC3NH4C3NC3NH4C3NC3NH4C2NC2ONH2C2NC2ONH2C2NC2ONH2C2NC2ONH2C2NC2ONH2C2NC2ONH2
_chemical_formula_sum              "C264 H168 N96 O24"
_cell_length_a       46.2388
_cell_length_b       46.2387
_cell_length_c       14.7729
_cell_angle_alpha    90
_cell_angle_beta     90
_cell_angle_gamma    120

_space_group_name_H-M_alt    "P 1"
_space_group_IT_number       1

loop_
  _space_group_symop_operation_xyz
  'x, y, z'

loop_
  _atom_site_type_symbol
  _atom_site_label
  _atom_site_symmetry_multiplicity
  _atom_site_fract_x
  _atom_site_fract_y
  _atom_site_fract_z
  _atom_site_occupancy
  C   C1        1.0  0.02983  0.26729  0.34235  1.0000
  C   C2        1.0  0.08382  0.32231  0.35577  1.0000
  C   C3        1.0  0.04897  0.30307  0.33914  1.0000
  H   H1        1.0  0.03755  0.31656  0.32633  1.0000
  H   H2        1.0  0.14676  0.31072  0.40721  1.0000
  N   N1        1.0  0.15652  0.26180  0.29511  1.0000
  C   C4        1.0  0.12696  0.26079  0.28091  1.0000
  H   H3        1.0  0.12426  0.27120  0.22277  1.0000
  N   N2        1.0  0.11348  0.36828  0.26080  1.0000
  C   C5        1.0  0.14109  0.39799  0.24021  1.0000
  H   H4        1.0  0.15007  0.40151  0.17552  1.0000
  C   C6        1.0  0.04996  0.25179  0.34872  1.0000
  C   C7        1.0  0.08526  0.26958  0.35950  1.0000
  C   C8        1.0  0.10184  0.30506  0.36995  1.0000
  N   N3        1.0  0.13489  0.32210  0.39289  1.0000
  H   H5        1.0  0.14666  0.34539  0.40855  1.0000
  H   H6        1.0  0.03914  0.22654  0.34283  1.0000
  C   C9        1.0  0.10419  0.25295  0.35341  1.0000
  N   N4        1.0  0.11434  0.24540  0.43230  1.0000
  C   C10       1.0  0.14239  0.24286  0.44509  1.0000
  C   C11       1.0  0.14875  0.23631  0.53451  1.0000
  O   O1        1.0  0.13360  0.24246  0.60428  1.0000
  C   C12       1.0  0.10085  0.35780  0.34557  1.0000
  N   N5        1.0  0.14953  0.40724  0.39647  1.0000
  C   C13       1.0  0.11913  0.38024  0.41734  1.0000
  C   C14       1.0  0.11152  0.37266  0.51053  1.0000
  O   O2        1.0  0.13646  0.38724  0.57207  1.0000
  N   N6        1.0  0.08023  0.35310  0.54281  1.0000
  H   H7        1.0  0.06083  0.34426  0.50347  1.0000
  H   H8        1.0  0.07641  0.34983  0.60767  1.0000
  C   C15       1.0  0.02983  0.76729  0.34235  1.0000
  C   C16       1.0  0.08382  0.82231  0.35577  1.0000
  C   C17       1.0  0.04897  0.80307  0.33914  1.0000
  H   H9        1.0  0.03754  0.81656  0.32633  1.0000
  H   H10       1.0  0.14677  0.81072  0.40721  1.0000
  N   N7        1.0  0.15653  0.76180  0.29511  1.0000
  C   C18       1.0  0.12696  0.76079  0.28091  1.0000
  H   H11       1.0  0.12426  0.77120  0.22277  1.0000
  N   N8        1.0  0.11348  0.86828  0.26080  1.0000
  C   C19       1.0  0.14109  0.89799  0.24021  1.0000
  H   H12       1.0  0.15007  0.90151  0.17552  1.0000
  C   C20       1.0  0.04996  0.75179  0.34872  1.0000
  C   C21       1.0  0.08526  0.76958  0.35950  1.0000
  C   C22       1.0  0.10184  0.80506  0.36995  1.0000
  N   N9        1.0  0.13489  0.82211  0.39289  1.0000
  H   H13       1.0  0.14666  0.84539  0.40855  1.0000
  H   H14       1.0  0.03914  0.72654  0.34283  1.0000
  C   C23       1.0  0.10419  0.75295  0.35341  1.0000
  N   N10       1.0  0.11434  0.74540  0.43230  1.0000
  C   C24       1.0  0.14239  0.74286  0.44509  1.0000
  C   C25       1.0  0.14875  0.73631  0.53451  1.0000
  O   O3        1.0  0.13360  0.74246  0.60428  1.0000
  C   C26       1.0  0.10086  0.85780  0.34557  1.0000
  N   N11       1.0  0.14953  0.90724  0.39647  1.0000
  C   C27       1.0  0.11913  0.88024  0.41734  1.0000
  C   C28       1.0  0.11152  0.87266  0.51053  1.0000
  O   O4        1.0  0.13646  0.88724  0.57207  1.0000
  N   N12       1.0  0.08023  0.85310  0.54281  1.0000
  H   H15       1.0  0.06083  0.84427  0.50347  1.0000
  H   H16       1.0  0.07641  0.84983  0.60767  1.0000
  C   C29       1.0  0.27204  0.24873  0.34341  1.0000
  C   C30       1.0  0.25364  0.26663  0.34602  1.0000
  C   C31       1.0  0.20116  0.26781  0.38324  1.0000
  C   C32       1.0  0.21818  0.25070  0.35674  1.0000
  H   H17       1.0  0.20380  0.22552  0.34849  1.0000
  H   H18       1.0  0.18655  0.30595  0.47875  1.0000
  C   C33       1.0  0.27072  0.02435  0.34257  1.0000
  C   C34       1.0  0.25546  0.04450  0.35233  1.0000
  C   C35       1.0  0.27269  0.07814  0.38267  1.0000
  H   H19       1.0  0.23062  0.03461  0.33982  1.0000
  C   C36       1.0  0.25192  0.48838  0.32906  1.0000
  C   C37       1.0  0.25035  0.43329  0.31568  1.0000
  C   C38       1.0  0.26743  0.46831  0.33075  1.0000
  H   H20       1.0  0.20674  0.36800  0.30410  1.0000
  N   N13       1.0  0.26427  0.39404  0.25533  1.0000
  C   C39       1.0  0.26744  0.36646  0.26306  1.0000
  H   H21       1.0  0.26092  0.35073  0.20868  1.0000
  N   N14       1.0  0.26790  0.11739  0.29380  1.0000
  C   C40       1.0  0.26661  0.14577  0.27935  1.0000
  C   C41       1.0  0.25640  0.21308  0.34733  1.0000
  C   C42       1.0  0.26953  0.30221  0.34031  1.0000
  C   C43       1.0  0.25426  0.32086  0.36731  1.0000
  C   C44       1.0  0.22049  0.30301  0.39841  1.0000
  N   N15       1.0  0.20589  0.31868  0.44085  1.0000
  H   H22       1.0  0.21749  0.34230  0.45299  1.0000
  H   H23       1.0  0.23113  0.19876  0.34121  1.0000
  C   C45       1.0  0.21631  0.46951  0.32091  1.0000
  C   C46       1.0  0.19765  0.43459  0.30356  1.0000
  C   C47       1.0  0.21505  0.41624  0.29989  1.0000
  N   N16       1.0  0.19758  0.38218  0.29009  1.0000
  H   H24       1.0  0.17470  0.37011  0.27066  1.0000
  H   H25       1.0  0.20275  0.48127  0.32619  1.0000
  C   C48       1.0  0.16575  0.25236  0.37241  1.0000
  N   N17       1.0  0.16739  0.22212  0.55472  1.0000
  H   H26       1.0  0.17612  0.21389  0.50782  1.0000
  H   H27       1.0  0.16960  0.21693  0.61723  1.0000
  C   C49       1.0  0.26760  0.41508  0.32446  1.0000
  C   C50       1.0  0.27065  0.35582  0.35024  1.0000
  N   N18       1.0  0.25450  0.42906  0.52646  1.0000
  H   H28       1.0  0.23329  0.42075  0.49542  1.0000
  H   H29       1.0  0.25626  0.43733  0.58790  1.0000
  C   C51       1.0  0.16213  0.41759  0.31173  1.0000
  C   C52       1.0  0.25787  0.09858  0.37067  1.0000
  C   C53       1.0  0.25768  0.16009  0.35103  1.0000
  N   N19       1.0  0.24937  0.14208  0.42948  1.0000
  C   C54       1.0  0.24714  0.11166  0.44243  1.0000
  C   C55       1.0  0.23951  0.09816  0.53118  1.0000
  O   O5        1.0  0.24447  0.11895  0.60142  1.0000
  N   N20       1.0  0.22532  0.06522  0.55007  1.0000
  H   H30       1.0  0.21783  0.04857  0.50245  1.0000
  H   H31       1.0  0.21932  0.05740  0.61203  1.0000
  C   C56       1.0  0.27204  0.74873  0.34341  1.0000
  C   C57       1.0  0.25364  0.76663  0.34602  1.0000
  C   C58       1.0  0.20116  0.76781  0.38324  1.0000
  C   C59       1.0  0.21818  0.75070  0.35674  1.0000
  H   H32       1.0  0.20380  0.72552  0.34849  1.0000
  H   H33       1.0  0.18655  0.80595  0.47875  1.0000
  C   C60       1.0  0.27072  0.52435  0.34257  1.0000
  C   C61       1.0  0.25546  0.54450  0.35233  1.0000
  C   C62       1.0  0.27269  0.57814  0.38267  1.0000
  H   H34       1.0  0.23062  0.53461  0.33982  1.0000
  C   C63       1.0  0.25192  0.98838  0.32906  1.0000
  C   C64       1.0  0.25035  0.93329  0.31568  1.0000
  C   C65       1.0  0.26743  0.96831  0.33075  1.0000
  H   H35       1.0  0.20674  0.86800  0.30410  1.0000
  N   N21       1.0  0.26428  0.89404  0.25533  1.0000
  C   C66       1.0  0.26744  0.86646  0.26306  1.0000
  H   H36       1.0  0.26092  0.85073  0.20868  1.0000
  N   N22       1.0  0.26790  0.61739  0.29380  1.0000
  C   C67       1.0  0.26661  0.64577  0.27935  1.0000
  C   C68       1.0  0.25640  0.71308  0.34733  1.0000
  C   C69       1.0  0.26953  0.80222  0.34031  1.0000
  C   C70       1.0  0.25426  0.82086  0.36731  1.0000
  C   C71       1.0  0.22049  0.80301  0.39841  1.0000
  N   N23       1.0  0.20589  0.81868  0.44085  1.0000
  H   H37       1.0  0.21749  0.84230  0.45299  1.0000
  H   H38       1.0  0.23113  0.69876  0.34121  1.0000
  C   C72       1.0  0.21631  0.96951  0.32091  1.0000
  C   C73       1.0  0.19765  0.93459  0.30356  1.0000
  C   C74       1.0  0.21505  0.91624  0.29989  1.0000
  N   N24       1.0  0.19758  0.88218  0.29009  1.0000
  H   H39       1.0  0.17470  0.87011  0.27066  1.0000
  H   H40       1.0  0.20275  0.98128  0.32619  1.0000
  C   C75       1.0  0.16575  0.75236  0.37241  1.0000
  N   N25       1.0  0.16740  0.72213  0.55472  1.0000
  H   H41       1.0  0.17612  0.71389  0.50782  1.0000
  H   H42       1.0  0.16960  0.71693  0.61723  1.0000
  C   C76       1.0  0.26760  0.91508  0.32446  1.0000
  C   C77       1.0  0.27065  0.85582  0.35024  1.0000
  N   N26       1.0  0.25450  0.92906  0.52646  1.0000
  H   H43       1.0  0.23329  0.92075  0.49542  1.0000
  H   H44       1.0  0.25626  0.93734  0.58790  1.0000
  C   C78       1.0  0.16213  0.91759  0.31173  1.0000
  C   C79       1.0  0.25787  0.59858  0.37067  1.0000
  C   C80       1.0  0.25768  0.66010  0.35103  1.0000
  N   N27       1.0  0.24937  0.64208  0.42948  1.0000
  C   C81       1.0  0.24714  0.61166  0.44243  1.0000
  C   C82       1.0  0.23951  0.59816  0.53118  1.0000
  O   O6        1.0  0.24447  0.61896  0.60142  1.0000
  N   N28       1.0  0.22532  0.56522  0.55007  1.0000
  H   H45       1.0  0.21783  0.54857  0.50245  1.0000
  H   H46       1.0  0.21932  0.55740  0.61203  1.0000
  C   C83       1.0  0.30778  0.26556  0.34270  1.0000
  C   C84       1.0  0.32675  0.24973  0.35960  1.0000
  H   H47       1.0  0.32133  0.29081  0.33560  1.0000
  H   H48       1.0  0.31465  0.17503  0.41193  1.0000
  H   H49       1.0  0.29229  0.47911  0.34474  1.0000
  H   H50       1.0  0.31012  0.13005  0.48136  1.0000
  H   H51       1.0  0.27754  0.15921  0.22199  1.0000
  H   H52       1.0  0.35590  0.10221  0.21366  1.0000
  C   C85       1.0  0.30943  0.21440  0.37228  1.0000
  C   C86       1.0  0.27415  0.19557  0.35824  1.0000
  N   N29       1.0  0.32618  0.19843  0.39852  1.0000
  H   H53       1.0  0.34898  0.21004  0.41870  1.0000
  H   H54       1.0  0.29365  0.31583  0.31904  1.0000
  C   C87       1.0  0.30762  0.09327  0.40112  1.0000
  C   C88       1.0  0.32543  0.07715  0.37106  1.0000
  C   C89       1.0  0.30647  0.04340  0.34183  1.0000
  N   N30       1.0  0.32314  0.12308  0.44593  1.0000
  H   H55       1.0  0.34639  0.13416  0.46247  1.0000
  H   H56       1.0  0.31978  0.03259  0.31995  1.0000
  N   N31       1.0  0.27543  0.37763  0.41842  1.0000
  C   C90       1.0  0.27618  0.40741  0.41029  1.0000
  C   C91       1.0  0.27884  0.42407  0.49278  1.0000
  O   O7        1.0  0.30390  0.42894  0.54938  1.0000
  C   C92       1.0  0.36217  0.26803  0.34967  1.0000
  N   N32       1.0  0.35731  0.28554  0.54541  1.0000
  H   H57       1.0  0.34911  0.29634  0.50481  1.0000
  H   H58       1.0  0.35445  0.28710  0.61010  1.0000
  C   C93       1.0  0.36052  0.09598  0.35455  1.0000
  C   C94       1.0  0.30778  0.76556  0.34270  1.0000
  C   C95       1.0  0.32675  0.74973  0.35960  1.0000
  H   H59       1.0  0.32133  0.79081  0.33560  1.0000
  H   H60       1.0  0.31465  0.67503  0.41193  1.0000
  H   H61       1.0  0.29229  0.97911  0.34474  1.0000
  H   H62       1.0  0.31012  0.63005  0.48136  1.0000
  H   H63       1.0  0.27754  0.65921  0.22199  1.0000
  H   H64       1.0  0.35590  0.60221  0.21366  1.0000
  C   C96       1.0  0.30943  0.71440  0.37228  1.0000
  C   C97       1.0  0.27415  0.69557  0.35824  1.0000
  N   N33       1.0  0.32618  0.69843  0.39852  1.0000
  H   H65       1.0  0.34898  0.71004  0.41871  1.0000
  H   H66       1.0  0.29365  0.81583  0.31904  1.0000
  C   C98       1.0  0.30762  0.59328  0.40112  1.0000
  C   C99       1.0  0.32543  0.57715  0.37106  1.0000
  C   C100      1.0  0.30647  0.54340  0.34183  1.0000
  N   N34       1.0  0.32314  0.62309  0.44593  1.0000
  H   H67       1.0  0.34639  0.63416  0.46247  1.0000
  H   H68       1.0  0.31978  0.53259  0.31995  1.0000
  N   N35       1.0  0.27543  0.87763  0.41842  1.0000
  C   C101      1.0  0.27618  0.90741  0.41029  1.0000
  C   C102      1.0  0.27885  0.92408  0.49278  1.0000
  O   O8        1.0  0.30390  0.92894  0.54938  1.0000
  C   C103      1.0  0.36217  0.76803  0.34967  1.0000
  N   N36       1.0  0.35732  0.78555  0.54541  1.0000
  H   H69       1.0  0.34911  0.79634  0.50481  1.0000
  H   H70       1.0  0.35445  0.78710  0.61010  1.0000
  C   C104      1.0  0.36052  0.59598  0.35455  1.0000
  C   C105      1.0  0.49350  0.24859  0.33492  1.0000
  C   C106      1.0  0.47387  0.21285  0.33760  1.0000
  C   C107      1.0  0.43859  0.19422  0.32533  1.0000
  H   H71       1.0  0.48526  0.19913  0.34783  1.0000
  H   H72       1.0  0.37297  0.17191  0.31960  1.0000
  N   N37       1.0  0.37271  0.26530  0.26557  1.0000
  C   C108      1.0  0.40225  0.26691  0.24642  1.0000
  H   H73       1.0  0.40605  0.26133  0.18211  1.0000
  N   N38       1.0  0.39935  0.14149  0.26245  1.0000
  C   C109      1.0  0.37149  0.11080  0.26844  1.0000
  C   C110      1.0  0.42097  0.21201  0.31106  1.0000
  C   C111      1.0  0.43890  0.24773  0.31288  1.0000
  C   C112      1.0  0.47387  0.26455  0.32801  1.0000
  N   N39       1.0  0.38684  0.19513  0.30382  1.0000
  H   H74       1.0  0.37447  0.20566  0.28453  1.0000
  H   H75       1.0  0.48497  0.28980  0.33360  1.0000
  C   C113      1.0  0.42180  0.26614  0.31889  1.0000
  N   N40       1.0  0.41139  0.26895  0.40306  1.0000
  C   C114      1.0  0.38440  0.27252  0.42233  1.0000
  C   C115      1.0  0.37673  0.27336  0.51511  1.0000
  O   O9        1.0  0.39118  0.26342  0.57823  1.0000
  C   C116      1.0  0.42055  0.15860  0.33205  1.0000
  N   N41       1.0  0.38233  0.11250  0.42328  1.0000
  C   C117      1.0  0.41226  0.14158  0.41687  1.0000
  C   C118      1.0  0.42914  0.15431  0.49994  1.0000
  O   O10       1.0  0.43227  0.13268  0.55519  1.0000
  N   N42       1.0  0.43696  0.18440  0.53477  1.0000
  H   H76       1.0  0.43001  0.19868  0.50526  1.0000
  H   H77       1.0  0.44544  0.19002  0.59629  1.0000
  C   C119      1.0  0.49350  0.74859  0.33492  1.0000
  C   C120      1.0  0.47387  0.71285  0.33760  1.0000
  C   C121      1.0  0.43859  0.69423  0.32533  1.0000
  H   H78       1.0  0.48526  0.69913  0.34783  1.0000
  H   H79       1.0  0.37297  0.67191  0.31960  1.0000
  N   N43       1.0  0.37271  0.76530  0.26557  1.0000
  C   C122      1.0  0.40225  0.76691  0.24642  1.0000
  H   H80       1.0  0.40605  0.76133  0.18211  1.0000
  N   N44       1.0  0.39935  0.64149  0.26245  1.0000
  C   C123      1.0  0.37149  0.61080  0.26844  1.0000
  C   C124      1.0  0.42098  0.71201  0.31106  1.0000
  C   C125      1.0  0.43890  0.74773  0.31288  1.0000
  C   C126      1.0  0.47387  0.76455  0.32801  1.0000
  N   N45       1.0  0.38684  0.69514  0.30382  1.0000
  H   H81       1.0  0.37447  0.70566  0.28454  1.0000
  H   H82       1.0  0.48497  0.78980  0.33360  1.0000
  C   C127      1.0  0.42180  0.76614  0.31889  1.0000
  N   N46       1.0  0.41140  0.76895  0.40306  1.0000
  C   C128      1.0  0.38440  0.77252  0.42233  1.0000
  C   C129      1.0  0.37674  0.77336  0.51511  1.0000
  O   O11       1.0  0.39118  0.76342  0.57823  1.0000
  C   C130      1.0  0.42054  0.65860  0.33205  1.0000
  N   N47       1.0  0.38233  0.61250  0.42328  1.0000
  C   C131      1.0  0.41226  0.64158  0.41687  1.0000
  C   C132      1.0  0.42914  0.65431  0.49994  1.0000
  O   O12       1.0  0.43227  0.63268  0.55519  1.0000
  N   N48       1.0  0.43696  0.68440  0.53477  1.0000
  H   H83       1.0  0.43002  0.69868  0.50526  1.0000
  H   H84       1.0  0.44544  0.69002  0.59629  1.0000
  C   C133      1.0  0.99350  0.24859  0.33492  1.0000
  C   C134      1.0  0.97387  0.21285  0.33760  1.0000
  C   C135      1.0  0.93859  0.19422  0.32533  1.0000
  H   H85       1.0  0.98526  0.19913  0.34783  1.0000
  C   C136      1.0  0.52983  0.26729  0.34235  1.0000
  C   C137      1.0  0.58382  0.32231  0.35577  1.0000
  C   C138      1.0  0.54897  0.30307  0.33914  1.0000
  H   H86       1.0  0.53755  0.31656  0.32633  1.0000
  H   H87       1.0  0.64676  0.31072  0.40721  1.0000
  H   H88       1.0  0.87297  0.17191  0.31960  1.0000
  C   C139      1.0  0.77204  0.24873  0.34341  1.0000
  C   C140      1.0  0.80778  0.26556  0.34270  1.0000
  C   C141      1.0  0.82675  0.24973  0.35960  1.0000
  H   H89       1.0  0.82132  0.29081  0.33560  1.0000
  C   C142      1.0  0.75364  0.26663  0.34602  1.0000
  C   C143      1.0  0.70116  0.26781  0.38324  1.0000
  C   C144      1.0  0.71818  0.25070  0.35674  1.0000
  H   H90       1.0  0.70380  0.22552  0.34849  1.0000
  H   H91       1.0  0.68655  0.30595  0.47875  1.0000
  H   H92       1.0  0.81465  0.17503  0.41193  1.0000
  C   C145      1.0  0.77072  0.02435  0.34257  1.0000
  C   C146      1.0  0.75546  0.04450  0.35233  1.0000
  C   C147      1.0  0.77269  0.07814  0.38267  1.0000
  H   H93       1.0  0.73062  0.03461  0.33982  1.0000
  C   C148      1.0  0.75192  0.48838  0.32906  1.0000
  C   C149      1.0  0.75035  0.43329  0.31568  1.0000
  C   C150      1.0  0.76743  0.46831  0.33075  1.0000
  H   H94       1.0  0.79229  0.47911  0.34474  1.0000
  H   H95       1.0  0.70674  0.36800  0.30410  1.0000
  H   H96       1.0  0.81012  0.13005  0.48136  1.0000
  N   N49       1.0  0.65652  0.26180  0.29511  1.0000
  C   C151      1.0  0.62695  0.26079  0.28091  1.0000
  H   H97       1.0  0.62426  0.27120  0.22277  1.0000
  N   N50       1.0  0.76427  0.39404  0.25533  1.0000
  C   C152      1.0  0.76744  0.36646  0.26306  1.0000
  H   H98       1.0  0.76092  0.35073  0.20868  1.0000
  N   N51       1.0  0.61348  0.36828  0.26080  1.0000
  C   C153      1.0  0.64110  0.39799  0.24021  1.0000
  H   H99       1.0  0.65007  0.40151  0.17552  1.0000
  N   N52       1.0  0.87271  0.26530  0.26557  1.0000
  C   C154      1.0  0.90225  0.26691  0.24642  1.0000
  H   H100      1.0  0.90605  0.26133  0.18211  1.0000
  N   N53       1.0  0.76790  0.11739  0.29380  1.0000
  C   C155      1.0  0.76661  0.14577  0.27935  1.0000
  H   H101      1.0  0.77754  0.15921  0.22199  1.0000
  N   N54       1.0  0.89935  0.14149  0.26245  1.0000
  C   C156      1.0  0.87149  0.11080  0.26844  1.0000
  H   H102      1.0  0.85590  0.10221  0.21366  1.0000
  C   C157      1.0  0.92097  0.21201  0.31106  1.0000
  C   C158      1.0  0.93890  0.24773  0.31288  1.0000
  C   C159      1.0  0.97387  0.26455  0.32801  1.0000
  N   N55       1.0  0.88684  0.19513  0.30382  1.0000
  C   C160      1.0  0.54996  0.25179  0.34872  1.0000
  C   C161      1.0  0.58526  0.26958  0.35950  1.0000
  C   C162      1.0  0.60184  0.30506  0.36995  1.0000
  N   N56       1.0  0.63489  0.32210  0.39289  1.0000
  H   H103      1.0  0.64666  0.34539  0.40855  1.0000
  H   H104      1.0  0.87447  0.20566  0.28453  1.0000
  H   H105      1.0  0.98497  0.28980  0.33360  1.0000
  H   H106      1.0  0.53914  0.22654  0.34283  1.0000
  C   C163      1.0  0.80943  0.21440  0.37228  1.0000
  C   C164      1.0  0.77415  0.19557  0.35824  1.0000
  C   C165      1.0  0.75640  0.21308  0.34733  1.0000
  N   N57       1.0  0.82618  0.19843  0.39852  1.0000
  C   C166      1.0  0.76953  0.30221  0.34031  1.0000
  C   C167      1.0  0.75426  0.32086  0.36731  1.0000
  C   C168      1.0  0.72049  0.30301  0.39841  1.0000
  N   N58       1.0  0.70589  0.31868  0.44085  1.0000
  H   H107      1.0  0.71749  0.34230  0.45299  1.0000
  H   H108      1.0  0.84898  0.21004  0.41870  1.0000
  H   H109      1.0  0.73113  0.19876  0.34121  1.0000
  H   H110      1.0  0.79365  0.31583  0.31904  1.0000
  C   C169      1.0  0.80762  0.09327  0.40112  1.0000
  C   C170      1.0  0.82542  0.07715  0.37106  1.0000
  C   C171      1.0  0.80647  0.04340  0.34183  1.0000
  N   N59       1.0  0.82314  0.12308  0.44593  1.0000
  C   C172      1.0  0.71631  0.46951  0.32091  1.0000
  C   C173      1.0  0.69765  0.43459  0.30356  1.0000
  C   C174      1.0  0.71505  0.41624  0.29989  1.0000
  N   N60       1.0  0.69758  0.38218  0.29009  1.0000
  H   H111      1.0  0.67470  0.37011  0.27066  1.0000
  H   H112      1.0  0.84639  0.13416  0.46247  1.0000
  H   H113      1.0  0.81978  0.03259  0.31995  1.0000
  H   H114      1.0  0.70275  0.48127  0.32619  1.0000
  C   C175      1.0  0.66575  0.25236  0.37241  1.0000
  C   C176      1.0  0.60419  0.25295  0.35341  1.0000
  N   N61       1.0  0.61434  0.24540  0.43230  1.0000
  C   C177      1.0  0.64239  0.24286  0.44509  1.0000
  C   C178      1.0  0.64875  0.23631  0.53451  1.0000
  O   O13       1.0  0.63360  0.24246  0.60428  1.0000
  N   N62       1.0  0.66739  0.22212  0.55472  1.0000
  H   H115      1.0  0.67612  0.21389  0.50782  1.0000
  H   H116      1.0  0.66960  0.21693  0.61723  1.0000
  C   C179      1.0  0.76760  0.41508  0.32446  1.0000
  C   C180      1.0  0.77065  0.35582  0.35024  1.0000
  N   N63       1.0  0.77543  0.37763  0.41842  1.0000
  C   C181      1.0  0.77618  0.40741  0.41029  1.0000
  C   C182      1.0  0.77884  0.42407  0.49278  1.0000
  O   O14       1.0  0.80390  0.42894  0.54938  1.0000
  N   N64       1.0  0.75450  0.42906  0.52646  1.0000
  H   H117      1.0  0.73329  0.42075  0.49542  1.0000
  H   H118      1.0  0.75626  0.43733  0.58790  1.0000
  C   C183      1.0  0.60085  0.35780  0.34557  1.0000
  C   C184      1.0  0.66213  0.41759  0.31173  1.0000
  N   N65       1.0  0.64953  0.40724  0.39647  1.0000
  C   C185      1.0  0.61913  0.38024  0.41734  1.0000
  C   C186      1.0  0.61152  0.37266  0.51053  1.0000
  O   O15       1.0  0.63646  0.38724  0.57207  1.0000
  N   N66       1.0  0.58023  0.35310  0.54281  1.0000
  H   H119      1.0  0.56083  0.34426  0.50347  1.0000
  H   H120      1.0  0.57641  0.34983  0.60767  1.0000
  C   C187      1.0  0.86217  0.26803  0.34967  1.0000
  C   C188      1.0  0.92180  0.26614  0.31889  1.0000
  N   N67       1.0  0.91139  0.26895  0.40306  1.0000
  C   C189      1.0  0.88440  0.27252  0.42233  1.0000
  C   C190      1.0  0.87674  0.27336  0.51511  1.0000
  O   O16       1.0  0.89118  0.26342  0.57823  1.0000
  N   N68       1.0  0.85732  0.28554  0.54541  1.0000
  H   H121      1.0  0.84911  0.29634  0.50481  1.0000
  H   H122      1.0  0.85445  0.28710  0.61010  1.0000
  C   C191      1.0  0.75787  0.09858  0.37067  1.0000
  C   C192      1.0  0.75768  0.16009  0.35103  1.0000
  N   N69       1.0  0.74937  0.14208  0.42948  1.0000
  C   C193      1.0  0.74714  0.11166  0.44243  1.0000
  C   C194      1.0  0.73950  0.09816  0.53118  1.0000
  O   O17       1.0  0.74447  0.11895  0.60142  1.0000
  N   N70       1.0  0.72532  0.06522  0.55007  1.0000
  H   H123      1.0  0.71783  0.04857  0.50245  1.0000
  H   H124      1.0  0.71932  0.05740  0.61203  1.0000
  C   C195      1.0  0.92054  0.15860  0.33205  1.0000
  C   C196      1.0  0.86052  0.09598  0.35455  1.0000
  N   N71       1.0  0.88233  0.11250  0.42328  1.0000
  C   C197      1.0  0.91226  0.14158  0.41687  1.0000
  C   C198      1.0  0.92914  0.15431  0.49994  1.0000
  O   O18       1.0  0.93227  0.13268  0.55519  1.0000
  N   N72       1.0  0.93696  0.18440  0.53477  1.0000
  H   H125      1.0  0.93001  0.19868  0.50526  1.0000
  H   H126      1.0  0.94544  0.19002  0.59629  1.0000
  C   C199      1.0  0.99350  0.74859  0.33492  1.0000
  C   C200      1.0  0.97387  0.71285  0.33760  1.0000
  C   C201      1.0  0.93859  0.69423  0.32533  1.0000
  H   H127      1.0  0.98526  0.69913  0.34783  1.0000
  C   C202      1.0  0.52983  0.76729  0.34235  1.0000
  C   C203      1.0  0.58382  0.82231  0.35577  1.0000
  C   C204      1.0  0.54897  0.80307  0.33914  1.0000
  H   H128      1.0  0.53754  0.81656  0.32633  1.0000
  H   H129      1.0  0.64676  0.81072  0.40721  1.0000
  H   H130      1.0  0.87297  0.67191  0.31960  1.0000
  C   C205      1.0  0.77204  0.74873  0.34341  1.0000
  C   C206      1.0  0.80778  0.76556  0.34270  1.0000
  C   C207      1.0  0.82675  0.74973  0.35960  1.0000
  H   H131      1.0  0.82132  0.79081  0.33560  1.0000
  C   C208      1.0  0.75364  0.76663  0.34602  1.0000
  C   C209      1.0  0.70116  0.76781  0.38324  1.0000
  C   C210      1.0  0.71818  0.75070  0.35674  1.0000
  H   H132      1.0  0.70380  0.72552  0.34849  1.0000
  H   H133      1.0  0.68655  0.80595  0.47875  1.0000
  H   H134      1.0  0.81465  0.67503  0.41193  1.0000
  C   C211      1.0  0.77072  0.52435  0.34257  1.0000
  C   C212      1.0  0.75546  0.54450  0.35233  1.0000
  C   C213      1.0  0.77269  0.57814  0.38267  1.0000
  H   H135      1.0  0.73062  0.53461  0.33982  1.0000
  C   C214      1.0  0.75192  0.98838  0.32906  1.0000
  C   C215      1.0  0.75035  0.93329  0.31568  1.0000
  C   C216      1.0  0.76743  0.96831  0.33075  1.0000
  H   H136      1.0  0.79229  0.97911  0.34474  1.0000
  H   H137      1.0  0.70674  0.86800  0.30410  1.0000
  H   H138      1.0  0.81012  0.63005  0.48136  1.0000
  N   N73       1.0  0.65652  0.76180  0.29511  1.0000
  C   C217      1.0  0.62696  0.76079  0.28091  1.0000
  H   H139      1.0  0.62426  0.77120  0.22277  1.0000
  N   N74       1.0  0.76427  0.89404  0.25533  1.0000
  C   C218      1.0  0.76743  0.86646  0.26306  1.0000
  H   H140      1.0  0.76092  0.85073  0.20868  1.0000
  N   N75       1.0  0.61348  0.86828  0.26080  1.0000
  C   C219      1.0  0.64110  0.89799  0.24021  1.0000
  H   H141      1.0  0.65007  0.90151  0.17552  1.0000
  N   N76       1.0  0.87271  0.76530  0.26557  1.0000
  C   C220      1.0  0.90225  0.76691  0.24642  1.0000
  H   H142      1.0  0.90605  0.76133  0.18211  1.0000
  N   N77       1.0  0.76790  0.61739  0.29380  1.0000
  C   C221      1.0  0.76661  0.64577  0.27935  1.0000
  H   H143      1.0  0.77754  0.65921  0.22199  1.0000
  N   N78       1.0  0.89935  0.64149  0.26245  1.0000
  C   C222      1.0  0.87149  0.61080  0.26844  1.0000
  H   H144      1.0  0.85590  0.60221  0.21366  1.0000
  C   C223      1.0  0.92097  0.71201  0.31106  1.0000
  C   C224      1.0  0.93890  0.74773  0.31288  1.0000
  C   C225      1.0  0.97387  0.76455  0.32801  1.0000
  N   N79       1.0  0.88684  0.69514  0.30382  1.0000
  C   C226      1.0  0.54996  0.75179  0.34872  1.0000
  C   C227      1.0  0.58526  0.76958  0.35950  1.0000
  C   C228      1.0  0.60184  0.80506  0.36995  1.0000
  N   N80       1.0  0.63489  0.82211  0.39289  1.0000
  H   H145      1.0  0.64666  0.84539  0.40855  1.0000
  H   H146      1.0  0.87447  0.70566  0.28454  1.0000
  H   H147      1.0  0.98497  0.78980  0.33360  1.0000
  H   H148      1.0  0.53914  0.72654  0.34283  1.0000
  C   C229      1.0  0.80943  0.71440  0.37228  1.0000
  C   C230      1.0  0.77415  0.69557  0.35824  1.0000
  C   C231      1.0  0.75640  0.71308  0.34733  1.0000
  N   N81       1.0  0.82618  0.69843  0.39852  1.0000
  C   C232      1.0  0.76953  0.80222  0.34031  1.0000
  C   C233      1.0  0.75426  0.82086  0.36731  1.0000
  C   C234      1.0  0.72049  0.80301  0.39841  1.0000
  N   N82       1.0  0.70588  0.81868  0.44085  1.0000
  H   H149      1.0  0.71749  0.84230  0.45299  1.0000
  H   H150      1.0  0.84898  0.71004  0.41871  1.0000
  H   H151      1.0  0.73113  0.69876  0.34121  1.0000
  H   H152      1.0  0.79365  0.81583  0.31904  1.0000
  C   C235      1.0  0.80762  0.59328  0.40112  1.0000
  C   C236      1.0  0.82542  0.57715  0.37106  1.0000
  C   C237      1.0  0.80647  0.54340  0.34183  1.0000
  N   N83       1.0  0.82314  0.62309  0.44593  1.0000
  C   C238      1.0  0.71631  0.96951  0.32091  1.0000
  C   C239      1.0  0.69765  0.93459  0.30356  1.0000
  C   C240      1.0  0.71505  0.91624  0.29989  1.0000
  N   N84       1.0  0.69758  0.88218  0.29009  1.0000
  H   H153      1.0  0.67470  0.87011  0.27066  1.0000
  H   H154      1.0  0.84639  0.63416  0.46247  1.0000
  H   H155      1.0  0.81978  0.53259  0.31995  1.0000
  H   H156      1.0  0.70275  0.98128  0.32619  1.0000
  C   C241      1.0  0.66575  0.75236  0.37241  1.0000
  C   C242      1.0  0.60419  0.75295  0.35341  1.0000
  N   N85       1.0  0.61434  0.74540  0.43230  1.0000
  C   C243      1.0  0.64239  0.74286  0.44509  1.0000
  C   C244      1.0  0.64875  0.73631  0.53451  1.0000
  O   O19       1.0  0.63360  0.74246  0.60428  1.0000
  N   N86       1.0  0.66739  0.72213  0.55472  1.0000
  H   H157      1.0  0.67612  0.71389  0.50782  1.0000
  H   H158      1.0  0.66960  0.71693  0.61723  1.0000
  C   C245      1.0  0.76760  0.91508  0.32446  1.0000
  C   C246      1.0  0.77065  0.85582  0.35024  1.0000
  N   N87       1.0  0.77544  0.87763  0.41842  1.0000
  C   C247      1.0  0.77618  0.90741  0.41029  1.0000
  C   C248      1.0  0.77884  0.92408  0.49278  1.0000
  O   O20       1.0  0.80390  0.92894  0.54938  1.0000
  N   N88       1.0  0.75450  0.92906  0.52646  1.0000
  H   H159      1.0  0.73329  0.92075  0.49542  1.0000
  H   H160      1.0  0.75626  0.93734  0.58790  1.0000
  C   C249      1.0  0.60085  0.85780  0.34557  1.0000
  C   C250      1.0  0.66213  0.91759  0.31173  1.0000
  N   N89       1.0  0.64953  0.90724  0.39647  1.0000
  C   C251      1.0  0.61913  0.88024  0.41734  1.0000
  C   C252      1.0  0.61152  0.87266  0.51053  1.0000
  O   O21       1.0  0.63646  0.88724  0.57207  1.0000
  N   N90       1.0  0.58023  0.85310  0.54281  1.0000
  H   H161      1.0  0.56083  0.84427  0.50347  1.0000
  H   H162      1.0  0.57641  0.84983  0.60767  1.0000
  C   C253      1.0  0.86217  0.76803  0.34967  1.0000
  C   C254      1.0  0.92180  0.76614  0.31889  1.0000
  N   N91       1.0  0.91139  0.76895  0.40306  1.0000
  C   C255      1.0  0.88440  0.77252  0.42233  1.0000
  C   C256      1.0  0.87674  0.77336  0.51511  1.0000
  O   O22       1.0  0.89118  0.76342  0.57823  1.0000
  N   N92       1.0  0.85732  0.78555  0.54541  1.0000
  H   H163      1.0  0.84911  0.79634  0.50481  1.0000
  H   H164      1.0  0.85445  0.78710  0.61010  1.0000
  C   C257      1.0  0.75787  0.59858  0.37067  1.0000
  C   C258      1.0  0.75768  0.66010  0.35103  1.0000
  N   N93       1.0  0.74937  0.64208  0.42948  1.0000
  C   C259      1.0  0.74714  0.61166  0.44243  1.0000
  C   C260      1.0  0.73950  0.59816  0.53118  1.0000
  O   O23       1.0  0.74447  0.61896  0.60142  1.0000
  N   N94       1.0  0.72532  0.56522  0.55007  1.0000
  H   H165      1.0  0.71783  0.54857  0.50245  1.0000
  H   H166      1.0  0.71932  0.55740  0.61203  1.0000
  C   C261      1.0  0.92054  0.65860  0.33205  1.0000
  C   C262      1.0  0.86052  0.59598  0.35455  1.0000
  N   N95       1.0  0.88233  0.61250  0.42328  1.0000
  C   C263      1.0  0.91226  0.64158  0.41687  1.0000
  C   C264      1.0  0.92914  0.65431  0.49994  1.0000
  O   O24       1.0  0.93227  0.63268  0.55519  1.0000
  N   N96       1.0  0.93696  0.68440  0.53477  1.0000
  H   H167      1.0  0.93001  0.69868  0.50526  1.0000
  H   H168      1.0  0.94544  0.69002  0.59629  1.0000
