data_image0
_chemical_formula_structural       C4HC2H3OC4HC2H3OC4HC2H3OC4HC2H3OC4HC2H3OC4HC2H3ON24C4HC2H3OC4HC2H3OC4HC2H3OC4HC2H3OC4HC2H3OC4HC2H3ON24C6H3C6H3C6H3C6H3C6H3C6H3C6H3C6H3C6H3C6H3C6H3C6H3C6H3C6H3C6H3C6H3C6H3C6H3C6H3C6H3C6H3C6H3C6H3C6H3N12C4HC2H3OC4HC2H3OC4HC2H3OC4HC2H3OC4HC2H3OC4HC2H3OC4HC2H3OC4HC2H3OC4HC2H3OC4HC2H3OC4HC2H3OC4HC2H3ON12C4HC2H3OC4HC2H3OC4HC2H3OC4HC2H3OC4HC2H3OC4HC2H3OC4HC2H3OC4HC2H3OC4HC2H3OC4HC2H3OC4HC2H3OC4HC2H3O
_chemical_formula_sum              "C360 H216 O36 N72"
_cell_length_a       54.2347
_cell_length_b       54.2346
_cell_length_c       14.8972
_cell_angle_alpha    90
_cell_angle_beta     90
_cell_angle_gamma    120

_space_group_name_H-M_alt    "P 1"
_space_group_IT_number       1

loop_
  _space_group_symop_operation_xyz
  'x, y, z'

loop_
  _atom_site_type_symbol
  _atom_site_label
  _atom_site_symmetry_multiplicity
  _atom_site_fract_x
  _atom_site_fract_y
  _atom_site_fract_z
  _atom_site_occupancy
  C   C1        1.0  0.14206  0.45699  0.35895  1.0000
  C   C2        1.0  0.12094  0.44229  0.29334  1.0000
  C   C3        1.0  0.10649  0.41205  0.28987  1.0000
  C   C4        1.0  0.11394  0.39729  0.35362  1.0000
  H   H1        1.0  0.11771  0.45359  0.24419  1.0000
  C   C5        1.0  0.08804  0.39770  0.21944  1.0000
  C   C6        1.0  0.09982  0.39483  0.13539  1.0000
  H   H2        1.0  0.11077  0.41523  0.10027  1.0000
  H   H3        1.0  0.08286  0.37930  0.09228  1.0000
  H   H4        1.0  0.11490  0.38737  0.14703  1.0000
  O   O1        1.0  0.06757  0.40135  0.21317  1.0000
  C   C7        1.0  0.55163  0.68700  0.35909  1.0000
  C   C8        1.0  0.56630  0.68033  0.29399  1.0000
  C   C9        1.0  0.59653  0.69612  0.29033  1.0000
  C   C10       1.0  0.61133  0.71846  0.35368  1.0000
  H   H5        1.0  0.55496  0.66573  0.24505  1.0000
  C   C11       1.0  0.61084  0.69179  0.22028  1.0000
  C   C12       1.0  0.61385  0.70664  0.13640  1.0000
  H   H6        1.0  0.59345  0.69744  0.10131  1.0000
  H   H7        1.0  0.62925  0.70509  0.09299  1.0000
  H   H8        1.0  0.62155  0.72922  0.14833  1.0000
  O   O2        1.0  0.60684  0.66758  0.21244  1.0000
  C   C13       1.0  0.32169  0.86648  0.35903  1.0000
  C   C14       1.0  0.32831  0.88776  0.29383  1.0000
  C   C15       1.0  0.31247  0.90216  0.29018  1.0000
  C   C16       1.0  0.29014  0.89461  0.35356  1.0000
  H   H9        1.0  0.34283  0.89098  0.24469  1.0000
  C   C17       1.0  0.31666  0.92069  0.21987  1.0000
  C   C18       1.0  0.30211  0.90899  0.13563  1.0000
  H   H10       1.0  0.31161  0.89807  0.10055  1.0000
  H   H11       1.0  0.30360  0.92599  0.09260  1.0000
  H   H12       1.0  0.27956  0.89389  0.14696  1.0000
  O   O3        1.0  0.34079  0.94116  0.21394  1.0000
  C   C19       1.0  0.86815  0.54992  0.35885  1.0000
  C   C20       1.0  0.88936  0.56460  0.29349  1.0000
  C   C21       1.0  0.90381  0.59484  0.29003  1.0000
  C   C22       1.0  0.89632  0.60962  0.35362  1.0000
  H   H13       1.0  0.89264  0.55330  0.24446  1.0000
  C   C23       1.0  0.92238  0.60920  0.21983  1.0000
  C   C24       1.0  0.91072  0.61211  0.13558  1.0000
  H   H14       1.0  0.89980  0.59171  0.10038  1.0000
  H   H15       1.0  0.92775  0.62763  0.09265  1.0000
  H   H16       1.0  0.89564  0.61959  0.14691  1.0000
  O   O4        1.0  0.94284  0.60552  0.21394  1.0000
  C   C25       1.0  0.45865  0.31987  0.35921  1.0000
  C   C26       1.0  0.44399  0.32657  0.29420  1.0000
  C   C27       1.0  0.41375  0.31073  0.29048  1.0000
  C   C28       1.0  0.39896  0.28837  0.35378  1.0000
  H   H17       1.0  0.45531  0.34115  0.24521  1.0000
  C   C29       1.0  0.39941  0.31507  0.22038  1.0000
  C   C30       1.0  0.39670  0.30032  0.13654  1.0000
  H   H18       1.0  0.41720  0.30963  0.10203  1.0000
  H   H19       1.0  0.38141  0.30191  0.09273  1.0000
  H   H20       1.0  0.38901  0.27774  0.14828  1.0000
  O   O5        1.0  0.40327  0.33924  0.21399  1.0000
  C   C31       1.0  0.68854  0.14032  0.35904  1.0000
  C   C32       1.0  0.68210  0.11917  0.29349  1.0000
  C   C33       1.0  0.69794  0.10477  0.28989  1.0000
  C   C34       1.0  0.72013  0.11219  0.35370  1.0000
  H   H21       1.0  0.66767  0.11603  0.24411  1.0000
  C   C35       1.0  0.69388  0.08636  0.21935  1.0000
  C   C36       1.0  0.70856  0.09821  0.13539  1.0000
  H   H22       1.0  0.69911  0.10916  0.10032  1.0000
  H   H23       1.0  0.70716  0.08128  0.09218  1.0000
  H   H24       1.0  0.73109  0.11330  0.14714  1.0000
  O   O6        1.0  0.66977  0.06589  0.21293  1.0000
  N   N1        1.0  0.41495  0.13164  0.27623  1.0000
  N   N2        1.0  0.44266  0.14503  0.27232  1.0000
  N   N3        1.0  0.72356  0.59367  0.27608  1.0000
  N   N4        1.0  0.70925  0.56597  0.27209  1.0000
  N   N5        1.0  0.87707  0.28509  0.27627  1.0000
  N   N6        1.0  0.86368  0.29941  0.27235  1.0000
  N   N7        1.0  0.59547  0.87528  0.27625  1.0000
  N   N8        1.0  0.56776  0.86188  0.27233  1.0000
  N   N9        1.0  0.28680  0.41320  0.27610  1.0000
  N   N10       1.0  0.30112  0.44091  0.27210  1.0000
  N   N11       1.0  0.13336  0.72190  0.27632  1.0000
  N   N12       1.0  0.14678  0.70761  0.27240  1.0000
  N   N13       1.0  0.27270  0.51462  0.27972  1.0000
  N   N14       1.0  0.24861  0.51441  0.27847  1.0000
  N   N15       1.0  0.49381  0.75977  0.27961  1.0000
  N   N16       1.0  0.49401  0.73588  0.27835  1.0000
  N   N17       1.0  0.24890  0.73589  0.27972  1.0000
  N   N18       1.0  0.27279  0.75998  0.27847  1.0000
  N   N19       1.0  0.73752  0.49212  0.27938  1.0000
  N   N20       1.0  0.76161  0.49235  0.27813  1.0000
  N   N21       1.0  0.51651  0.24714  0.27968  1.0000
  N   N22       1.0  0.51632  0.27104  0.27843  1.0000
  N   N23       1.0  0.76158  0.27101  0.27975  1.0000
  N   N24       1.0  0.73772  0.24690  0.27852  1.0000
  C   C37       1.0  0.17188  0.61267  0.35561  1.0000
  C   C38       1.0  0.15286  0.59054  0.29827  1.0000
  C   C39       1.0  0.15251  0.56415  0.29623  1.0000
  C   C40       1.0  0.17144  0.56057  0.35381  1.0000
  H   H25       1.0  0.14097  0.59441  0.25305  1.0000
  C   C41       1.0  0.13629  0.54377  0.23238  1.0000
  C   C42       1.0  0.14782  0.54644  0.14288  1.0000
  H   H26       1.0  0.14774  0.56394  0.10681  1.0000
  H   H27       1.0  0.13509  0.52677  0.10525  1.0000
  H   H28       1.0  0.16964  0.55041  0.14574  1.0000
  O   O7        1.0  0.11062  0.53469  0.23678  1.0000
  C   C43       1.0  0.39599  0.56098  0.35532  1.0000
  C   C44       1.0  0.41812  0.56413  0.29790  1.0000
  C   C45       1.0  0.44451  0.59015  0.29605  1.0000
  C   C46       1.0  0.44809  0.61262  0.35379  1.0000
  H   H29       1.0  0.41429  0.54834  0.25284  1.0000
  C   C47       1.0  0.46494  0.59433  0.23235  1.0000
  C   C48       1.0  0.46232  0.60320  0.14281  1.0000
  H   H30       1.0  0.44485  0.58562  0.10665  1.0000
  H   H31       1.0  0.48202  0.61014  0.10532  1.0000
  H   H32       1.0  0.45835  0.62105  0.14560  1.0000
  O   O8        1.0  0.47401  0.57773  0.23686  1.0000
  C   C49       1.0  0.44770  0.83684  0.35566  1.0000
  C   C50       1.0  0.44460  0.85588  0.29837  1.0000
  C   C51       1.0  0.41855  0.85620  0.29624  1.0000
  C   C52       1.0  0.39606  0.83728  0.35389  1.0000
  H   H33       1.0  0.46037  0.86777  0.25317  1.0000
  C   C53       1.0  0.41440  0.87248  0.23247  1.0000
  C   C54       1.0  0.40544  0.86051  0.14340  1.0000
  H   H34       1.0  0.42292  0.86027  0.10775  1.0000
  H   H35       1.0  0.39865  0.87321  0.10483  1.0000
  H   H36       1.0  0.38745  0.83879  0.14699  1.0000
  O   O9        1.0  0.43114  0.89812  0.23604  1.0000
  C   C55       1.0  0.83850  0.39428  0.35554  1.0000
  C   C56       1.0  0.85750  0.41642  0.29816  1.0000
  C   C57       1.0  0.85783  0.44279  0.29616  1.0000
  C   C58       1.0  0.83894  0.44639  0.35391  1.0000
  H   H37       1.0  0.86937  0.41255  0.25289  1.0000
  C   C59       1.0  0.87402  0.46318  0.23229  1.0000
  C   C60       1.0  0.86247  0.46048  0.14281  1.0000
  H   H38       1.0  0.86257  0.44299  0.10673  1.0000
  H   H39       1.0  0.87518  0.48016  0.10515  1.0000
  H   H40       1.0  0.84065  0.45649  0.14571  1.0000
  O   O10       1.0  0.89970  0.47228  0.23664  1.0000
  C   C61       1.0  0.61429  0.44591  0.35546  1.0000
  C   C62       1.0  0.59215  0.44277  0.29814  1.0000
  C   C63       1.0  0.56577  0.41673  0.29618  1.0000
  C   C64       1.0  0.56219  0.39426  0.35395  1.0000
  H   H41       1.0  0.59600  0.45855  0.25300  1.0000
  C   C65       1.0  0.54533  0.41258  0.23260  1.0000
  C   C66       1.0  0.54802  0.40340  0.14345  1.0000
  H   H42       1.0  0.56564  0.42079  0.10715  1.0000
  H   H43       1.0  0.52842  0.39650  0.10543  1.0000
  H   H44       1.0  0.55178  0.38542  0.14714  1.0000
  O   O11       1.0  0.53652  0.42941  0.23488  1.0000
  C   C67       1.0  0.56273  0.17016  0.35546  1.0000
  C   C68       1.0  0.56582  0.15111  0.29820  1.0000
  C   C69       1.0  0.59186  0.15079  0.29606  1.0000
  C   C70       1.0  0.61437  0.16972  0.35367  1.0000
  H   H45       1.0  0.55005  0.13921  0.25305  1.0000
  C   C71       1.0  0.59601  0.13450  0.23233  1.0000
  C   C72       1.0  0.60498  0.14646  0.14325  1.0000
  H   H46       1.0  0.58750  0.14670  0.10759  1.0000
  H   H47       1.0  0.61176  0.13376  0.10469  1.0000
  H   H48       1.0  0.62297  0.16818  0.14683  1.0000
  O   O12       1.0  0.57927  0.10886  0.23592  1.0000
  N   N25       1.0  0.01992  0.30490  0.29762  1.0000
  N   N26       1.0  0.99217  0.29149  0.29628  1.0000
  N   N27       1.0  0.70364  0.71665  0.29785  1.0000
  N   N28       1.0  0.71703  0.70229  0.29654  1.0000
  N   N29       1.0  0.29191  0.98871  0.29773  1.0000
  N   N30       1.0  0.30628  0.01646  0.29644  1.0000
  N   N31       1.0  0.99043  0.70193  0.29801  1.0000
  N   N32       1.0  0.01818  0.71535  0.29663  1.0000
  N   N33       1.0  0.30669  0.29023  0.29807  1.0000
  N   N34       1.0  0.29330  0.30459  0.29673  1.0000
  N   N35       1.0  0.71850  0.01820  0.29762  1.0000
  N   N36       1.0  0.70416  0.99044  0.29625  1.0000
  N   N37       1.0  0.16027  0.33725  0.28552  1.0000
  N   N38       1.0  0.18445  0.33751  0.28381  1.0000
  N   N39       1.0  0.67148  0.82480  0.28519  1.0000
  N   N40       1.0  0.67120  0.84871  0.28354  1.0000
  N   N41       1.0  0.18378  0.84844  0.28518  1.0000
  N   N42       1.0  0.15986  0.82424  0.28353  1.0000
  N   N43       1.0  0.85013  0.66975  0.28522  1.0000
  N   N44       1.0  0.82591  0.66943  0.28360  1.0000
  N   N45       1.0  0.33881  0.18206  0.28513  1.0000
  N   N46       1.0  0.33915  0.15817  0.28354  1.0000
  N   N47       1.0  0.82649  0.15856  0.28554  1.0000
  N   N48       1.0  0.85041  0.18275  0.28385  1.0000
  C   C73       1.0  0.21338  0.52272  0.34335  1.0000
  C   C74       1.0  0.19140  0.49409  0.34633  1.0000
  C   C75       1.0  0.16248  0.48648  0.35299  1.0000
  C   C76       1.0  0.15559  0.50847  0.35323  1.0000
  C   C77       1.0  0.17724  0.53759  0.35139  1.0000
  C   C78       1.0  0.20606  0.54421  0.34764  1.0000
  H   H49       1.0  0.13472  0.50321  0.35894  1.0000
  H   H50       1.0  0.22208  0.56502  0.34453  1.0000
  H   H51       1.0  0.19669  0.47838  0.34478  1.0000
  C   C79       1.0  0.48582  0.69242  0.34337  1.0000
  C   C80       1.0  0.51447  0.69913  0.34645  1.0000
  C   C81       1.0  0.52213  0.67784  0.35304  1.0000
  C   C82       1.0  0.50017  0.64894  0.35313  1.0000
  C   C83       1.0  0.47104  0.64143  0.35138  1.0000
  C   C84       1.0  0.46437  0.66360  0.34764  1.0000
  H   H52       1.0  0.50546  0.63336  0.35899  1.0000
  H   H53       1.0  0.44354  0.65876  0.34454  1.0000
  H   H54       1.0  0.53015  0.72013  0.34498  1.0000
  C   C85       1.0  0.31627  0.79524  0.34338  1.0000
  C   C86       1.0  0.30956  0.81718  0.34640  1.0000
  C   C87       1.0  0.33085  0.84613  0.35303  1.0000
  C   C88       1.0  0.35974  0.85307  0.35315  1.0000
  C   C89       1.0  0.36725  0.83144  0.35144  1.0000
  C   C90       1.0  0.34509  0.80261  0.34769  1.0000
  H   H55       1.0  0.37533  0.87394  0.35901  1.0000
  H   H56       1.0  0.34992  0.78662  0.34463  1.0000
  H   H57       1.0  0.28856  0.81186  0.34494  1.0000
  C   C91       1.0  0.79688  0.48412  0.34315  1.0000
  C   C92       1.0  0.81883  0.51277  0.34614  1.0000
  C   C93       1.0  0.84777  0.52042  0.35286  1.0000
  C   C94       1.0  0.85470  0.49846  0.35313  1.0000
  C   C95       1.0  0.83307  0.46932  0.35137  1.0000
  C   C96       1.0  0.80424  0.46266  0.34753  1.0000
  H   H58       1.0  0.87558  0.50375  0.35898  1.0000
  H   H59       1.0  0.78825  0.44184  0.34451  1.0000
  H   H60       1.0  0.81352  0.52846  0.34460  1.0000
  C   C97       1.0  0.52448  0.31448  0.34347  1.0000
  C   C98       1.0  0.49583  0.30776  0.34654  1.0000
  C   C99       1.0  0.48816  0.32904  0.35319  1.0000
  C   C100      1.0  0.51011  0.35794  0.35334  1.0000
  C   C101      1.0  0.53924  0.36546  0.35154  1.0000
  C   C102      1.0  0.54592  0.34330  0.34776  1.0000
  H   H61       1.0  0.50481  0.37352  0.35914  1.0000
  H   H62       1.0  0.56675  0.34813  0.34471  1.0000
  H   H63       1.0  0.48015  0.28675  0.34507  1.0000
  C   C103      1.0  0.69417  0.21165  0.34335  1.0000
  C   C104      1.0  0.70082  0.18966  0.34637  1.0000
  C   C105      1.0  0.67949  0.16073  0.35299  1.0000
  C   C106      1.0  0.65061  0.15385  0.35318  1.0000
  C   C107      1.0  0.64316  0.17552  0.35130  1.0000
  C   C108      1.0  0.66536  0.20434  0.34756  1.0000
  H   H64       1.0  0.63499  0.13299  0.35889  1.0000
  H   H65       1.0  0.66057  0.22036  0.34448  1.0000
  H   H66       1.0  0.72181  0.19494  0.34491  1.0000
  C   C109      1.0  0.52472  0.21187  0.34199  1.0000
  C   C110      1.0  0.49627  0.18965  0.33419  1.0000
  C   C111      1.0  0.48875  0.16067  0.33394  1.0000
  C   C112      1.0  0.51081  0.15401  0.34245  1.0000
  C   C113      1.0  0.53975  0.17580  0.35008  1.0000
  C   C114      1.0  0.54617  0.20457  0.34976  1.0000
  H   H67       1.0  0.50573  0.13312  0.34304  1.0000
  H   H68       1.0  0.56695  0.22066  0.35207  1.0000
  H   H69       1.0  0.48047  0.19480  0.33179  1.0000
  C   C115      1.0  0.69401  0.48386  0.34168  1.0000
  C   C116      1.0  0.70025  0.51231  0.33396  1.0000
  C   C117      1.0  0.67879  0.51985  0.33384  1.0000
  C   C118      1.0  0.65007  0.49780  0.34241  1.0000
  C   C119      1.0  0.64292  0.46886  0.34997  1.0000
  C   C120      1.0  0.66525  0.46242  0.34947  1.0000
  H   H70       1.0  0.63428  0.50290  0.34310  1.0000
  H   H71       1.0  0.66054  0.44164  0.35179  1.0000
  H   H72       1.0  0.72120  0.52811  0.33150  1.0000
  C   C121      1.0  0.79677  0.31455  0.34191  1.0000
  C   C122      1.0  0.81900  0.30833  0.33427  1.0000
  C   C123      1.0  0.84799  0.32982  0.33404  1.0000
  C   C124      1.0  0.85463  0.35852  0.34257  1.0000
  C   C125      1.0  0.83283  0.36566  0.35011  1.0000
  C   C126      1.0  0.80407  0.34331  0.34970  1.0000
  H   H73       1.0  0.87552  0.37433  0.34322  1.0000
  H   H74       1.0  0.78798  0.34800  0.35189  1.0000
  H   H75       1.0  0.81387  0.28740  0.33183  1.0000
  C   C127      1.0  0.48563  0.79506  0.34199  1.0000
  C   C128      1.0  0.51409  0.81725  0.33425  1.0000
  C   C129      1.0  0.52164  0.84625  0.33409  1.0000
  C   C130      1.0  0.49961  0.85294  0.34264  1.0000
  C   C131      1.0  0.47066  0.83117  0.35025  1.0000
  C   C132      1.0  0.46421  0.80240  0.34986  1.0000
  H   H76       1.0  0.50472  0.87384  0.34325  1.0000
  H   H77       1.0  0.44342  0.78633  0.35211  1.0000
  H   H78       1.0  0.52987  0.81208  0.33171  1.0000
  C   C133      1.0  0.31626  0.52296  0.34184  1.0000
  C   C134      1.0  0.31005  0.49451  0.33409  1.0000
  C   C135      1.0  0.33153  0.48701  0.33390  1.0000
  C   C136      1.0  0.36024  0.50907  0.34240  1.0000
  C   C137      1.0  0.36737  0.53801  0.34992  1.0000
  C   C138      1.0  0.34502  0.54442  0.34958  1.0000
  H   H79       1.0  0.37604  0.50399  0.34303  1.0000
  H   H80       1.0  0.34971  0.56520  0.35177  1.0000
  H   H81       1.0  0.28911  0.47871  0.33175  1.0000
  C   C139      1.0  0.21365  0.69239  0.34193  1.0000
  C   C140      1.0  0.19143  0.69863  0.33418  1.0000
  C   C141      1.0  0.16244  0.67717  0.33405  1.0000
  C   C142      1.0  0.15577  0.64846  0.34261  1.0000
  C   C143      1.0  0.17755  0.64129  0.35013  1.0000
  C   C144      1.0  0.20633  0.66363  0.34972  1.0000
  H   H82       1.0  0.13488  0.63266  0.34329  1.0000
  H   H83       1.0  0.22240  0.65892  0.35201  1.0000
  H   H84       1.0  0.19659  0.71957  0.33183  1.0000
  C   C145      1.0  0.10454  0.36754  0.35260  1.0000
  C   C146      1.0  0.12469  0.35831  0.35159  1.0000
  C   C147      1.0  0.11668  0.32913  0.34939  1.0000
  C   C148      1.0  0.08711  0.30876  0.35011  1.0000
  C   C149      1.0  0.06599  0.31705  0.35117  1.0000
  C   C150      1.0  0.07543  0.34665  0.35240  1.0000
  H   H85       1.0  0.08094  0.28764  0.34575  1.0000
  H   H86       1.0  0.06081  0.35332  0.35558  1.0000
  H   H87       1.0  0.14590  0.37340  0.35158  1.0000
  C   C151      1.0  0.64109  0.73876  0.35258  1.0000
  C   C152      1.0  0.65037  0.76816  0.35141  1.0000
  C   C153      1.0  0.67955  0.78930  0.34915  1.0000
  C   C154      1.0  0.69989  0.78007  0.34987  1.0000
  C   C155      1.0  0.69158  0.75065  0.35112  1.0000
  C   C156      1.0  0.66197  0.73052  0.35246  1.0000
  H   H88       1.0  0.72102  0.79500  0.34553  1.0000
  H   H89       1.0  0.65527  0.70922  0.35579  1.0000
  H   H90       1.0  0.63530  0.77430  0.35136  1.0000
  C   C157      1.0  0.26983  0.90406  0.35251  1.0000
  C   C158      1.0  0.24044  0.88393  0.35141  1.0000
  C   C159      1.0  0.21929  0.89197  0.34919  1.0000
  C   C160      1.0  0.22853  0.92154  0.34995  1.0000
  C   C161      1.0  0.25794  0.94264  0.35114  1.0000
  C   C162      1.0  0.27808  0.93317  0.35240  1.0000
  H   H91       1.0  0.21359  0.92774  0.34564  1.0000
  H   H92       1.0  0.29938  0.94778  0.35568  1.0000
  H   H93       1.0  0.23430  0.86272  0.35136  1.0000
  C   C163      1.0  0.90576  0.63937  0.35259  1.0000
  C   C164      1.0  0.88563  0.64864  0.35144  1.0000
  C   C165      1.0  0.89367  0.67782  0.34921  1.0000
  C   C166      1.0  0.92325  0.69816  0.35003  1.0000
  C   C167      1.0  0.94435  0.68985  0.35131  1.0000
  C   C168      1.0  0.93487  0.66024  0.35259  1.0000
  H   H94       1.0  0.92945  0.71929  0.34573  1.0000
  H   H95       1.0  0.94947  0.65354  0.35588  1.0000
  H   H96       1.0  0.86442  0.63356  0.35134  1.0000
  C   C169      1.0  0.36920  0.26807  0.35265  1.0000
  C   C170      1.0  0.35992  0.23867  0.35141  1.0000
  C   C171      1.0  0.33073  0.21754  0.34913  1.0000
  C   C172      1.0  0.31040  0.22678  0.34994  1.0000
  C   C173      1.0  0.31873  0.25620  0.35129  1.0000
  C   C174      1.0  0.34834  0.27632  0.35262  1.0000
  H   H97       1.0  0.28927  0.21186  0.34559  1.0000
  H   H98       1.0  0.35504  0.29762  0.35607  1.0000
  H   H99       1.0  0.37499  0.23253  0.35133  1.0000
  C   C175      1.0  0.74047  0.10280  0.35264  1.0000
  C   C176      1.0  0.76986  0.12295  0.35162  1.0000
  C   C177      1.0  0.79104  0.11495  0.34943  1.0000
  C   C178      1.0  0.78183  0.08538  0.35018  1.0000
  C   C179      1.0  0.75243  0.06426  0.35120  1.0000
  C   C180      1.0  0.73227  0.07370  0.35241  1.0000
  H   H100      1.0  0.79678  0.07921  0.34577  1.0000
  H   H101      1.0  0.71097  0.05907  0.35561  1.0000
  H   H102      1.0  0.77597  0.14416  0.35164  1.0000
  C   C181      1.0  0.36973  0.10187  0.34170  1.0000
  C   C182      1.0  0.36041  0.12196  0.34080  1.0000
  C   C183      1.0  0.33126  0.11398  0.34506  1.0000
  C   C184      1.0  0.31095  0.08445  0.35115  1.0000
  C   C185      1.0  0.31929  0.06337  0.34803  1.0000
  C   C186      1.0  0.34886  0.07278  0.34425  1.0000
  H   H103      1.0  0.28975  0.07819  0.35200  1.0000
  H   H104      1.0  0.35553  0.05814  0.34276  1.0000
  H   H105      1.0  0.37550  0.14316  0.33965  1.0000
  C   C187      1.0  0.73903  0.63887  0.34176  1.0000
  C   C188      1.0  0.76843  0.64819  0.34084  1.0000
  C   C189      1.0  0.78962  0.67735  0.34504  1.0000
  C   C190      1.0  0.78039  0.69766  0.35106  1.0000
  C   C191      1.0  0.75097  0.68931  0.34803  1.0000
  C   C192      1.0  0.73081  0.65974  0.34431  1.0000
  H   H106      1.0  0.79533  0.71885  0.35195  1.0000
  H   H107      1.0  0.70949  0.65306  0.34285  1.0000
  H   H108      1.0  0.77456  0.63311  0.33972  1.0000
  C   C193      1.0  0.90679  0.26960  0.34183  1.0000
  C   C194      1.0  0.88669  0.24020  0.34096  1.0000
  C   C195      1.0  0.89465  0.21900  0.34515  1.0000
  C   C196      1.0  0.92418  0.22822  0.35111  1.0000
  C   C197      1.0  0.94527  0.25763  0.34806  1.0000
  C   C198      1.0  0.93588  0.27781  0.34432  1.0000
  H   H109      1.0  0.93042  0.21326  0.35199  1.0000
  H   H110      1.0  0.95053  0.29911  0.34283  1.0000
  H   H111      1.0  0.86549  0.23409  0.33989  1.0000
  C   C199      1.0  0.64068  0.90505  0.34175  1.0000
  C   C200      1.0  0.64999  0.88496  0.34086  1.0000
  C   C201      1.0  0.67915  0.89293  0.34499  1.0000
  C   C202      1.0  0.69947  0.92246  0.35089  1.0000
  C   C203      1.0  0.69113  0.94355  0.34795  1.0000
  C   C204      1.0  0.66156  0.93415  0.34425  1.0000
  H   H112      1.0  0.72066  0.92871  0.35182  1.0000
  H   H113      1.0  0.65489  0.94879  0.34280  1.0000
  H   H114      1.0  0.63490  0.86376  0.33975  1.0000
  C   C205      1.0  0.27130  0.36801  0.34186  1.0000
  C   C206      1.0  0.24189  0.35869  0.34092  1.0000
  C   C207      1.0  0.22071  0.32953  0.34507  1.0000
  C   C208      1.0  0.22994  0.30922  0.35103  1.0000
  C   C209      1.0  0.25936  0.31756  0.34813  1.0000
  C   C210      1.0  0.27952  0.34714  0.34444  1.0000
  H   H115      1.0  0.21500  0.28803  0.35201  1.0000
  H   H116      1.0  0.30083  0.35382  0.34304  1.0000
  H   H117      1.0  0.23578  0.37378  0.33980  1.0000
  C   C211      1.0  0.10360  0.73736  0.34186  1.0000
  C   C212      1.0  0.12368  0.76677  0.34094  1.0000
  C   C213      1.0  0.11569  0.78794  0.34509  1.0000
  C   C214      1.0  0.08615  0.77870  0.35103  1.0000
  C   C215      1.0  0.06508  0.74928  0.34812  1.0000
  C   C216      1.0  0.07451  0.72913  0.34439  1.0000
  H   H118      1.0  0.07989  0.79364  0.35199  1.0000
  H   H119      1.0  0.05988  0.70781  0.34296  1.0000
  H   H120      1.0  0.14489  0.77290  0.33979  1.0000
  N   N49       1.0  0.13428  0.41324  0.41493  1.0000
  N   N50       1.0  0.14746  0.44096  0.41710  1.0000
  N   N51       1.0  0.59542  0.72298  0.41479  1.0000
  N   N52       1.0  0.56770  0.70848  0.41699  1.0000
  N   N53       1.0  0.28570  0.87424  0.41483  1.0000
  N   N54       1.0  0.30024  0.86105  0.41707  1.0000
  N   N55       1.0  0.87592  0.59367  0.41476  1.0000
  N   N56       1.0  0.86271  0.56594  0.41691  1.0000
  N   N57       1.0  0.41488  0.28386  0.41485  1.0000
  N   N58       1.0  0.44261  0.29837  0.41707  1.0000
  N   N59       1.0  0.72450  0.13251  0.41507  1.0000
  N   N60       1.0  0.70995  0.14569  0.41722  1.0000
  C   C217      1.0  0.45924  0.13999  0.32920  1.0000
  C   C218      1.0  0.44504  0.11867  0.39471  1.0000
  C   C219      1.0  0.41483  0.10403  0.40019  1.0000
  C   C220      1.0  0.39950  0.11133  0.33823  1.0000
  H   H121      1.0  0.45670  0.11559  0.44290  1.0000
  C   C221      1.0  0.40107  0.08533  0.47057  1.0000
  C   C222      1.0  0.39865  0.09708  0.55545  1.0000
  H   H122      1.0  0.41929  0.10825  0.58914  1.0000
  H   H123      1.0  0.38357  0.08006  0.59934  1.0000
  H   H124      1.0  0.39086  0.11195  0.54521  1.0000
  O   O13       1.0  0.40513  0.06513  0.47665  1.0000
  C   C223      1.0  0.68768  0.54937  0.32908  1.0000
  C   C224      1.0  0.68052  0.56354  0.39458  1.0000
  C   C225      1.0  0.69610  0.59376  0.40019  1.0000
  C   C226      1.0  0.71875  0.60910  0.33831  1.0000
  H   H125      1.0  0.66581  0.55188  0.44288  1.0000
  C   C227      1.0  0.69120  0.60752  0.47079  1.0000
  C   C228      1.0  0.70532  0.60964  0.55545  1.0000
  H   H126      1.0  0.69580  0.58890  0.58851  1.0000
  H   H127      1.0  0.70337  0.62459  0.59990  1.0000
  H   H128      1.0  0.72799  0.61745  0.54521  1.0000
  O   O14       1.0  0.66696  0.60358  0.47571  1.0000
  C   C229      1.0  0.86867  0.32099  0.32935  1.0000
  C   C230      1.0  0.88992  0.32803  0.39505  1.0000
  C   C231      1.0  0.90463  0.31253  0.40038  1.0000
  C   C232      1.0  0.89734  0.28991  0.33835  1.0000
  H   H129      1.0  0.89302  0.34279  0.44326  1.0000
  C   C233      1.0  0.92323  0.31736  0.47098  1.0000
  C   C234      1.0  0.91167  0.30352  0.55624  1.0000
  H   H130      1.0  0.90077  0.31327  0.58991  1.0000
  H   H131      1.0  0.92875  0.30542  0.59972  1.0000
  H   H132      1.0  0.89660  0.28087  0.54664  1.0000
  O   O15       1.0  0.94368  0.34156  0.47512  1.0000
  C   C235      1.0  0.55117  0.86687  0.32928  1.0000
  C   C236      1.0  0.56536  0.88823  0.39472  1.0000
  C   C237      1.0  0.59558  0.90290  0.40018  1.0000
  C   C238      1.0  0.61091  0.89557  0.33830  1.0000
  H   H133      1.0  0.55369  0.89132  0.44288  1.0000
  C   C239      1.0  0.60932  0.92159  0.47059  1.0000
  C   C240      1.0  0.61174  0.90984  0.55546  1.0000
  H   H134      1.0  0.59110  0.89866  0.58914  1.0000
  H   H135      1.0  0.62681  0.92685  0.59937  1.0000
  H   H136      1.0  0.61955  0.89498  0.54521  1.0000
  O   O16       1.0  0.60524  0.94178  0.47668  1.0000
  C   C241      1.0  0.32266  0.45749  0.32920  1.0000
  C   C242      1.0  0.32979  0.44332  0.39481  1.0000
  C   C243      1.0  0.31423  0.41311  0.40034  1.0000
  C   C244      1.0  0.29158  0.39778  0.33840  1.0000
  H   H137      1.0  0.34446  0.45499  0.44318  1.0000
  C   C245      1.0  0.31904  0.39937  0.47106  1.0000
  C   C246      1.0  0.30518  0.39713  0.55625  1.0000
  H   H138      1.0  0.31493  0.41780  0.58984  1.0000
  H   H139      1.0  0.30706  0.38196  0.59986  1.0000
  H   H140      1.0  0.28253  0.38955  0.54659  1.0000
  O   O17       1.0  0.34323  0.40310  0.47530  1.0000
  C   C247      1.0  0.14179  0.68604  0.32942  1.0000
  C   C248      1.0  0.12051  0.67894  0.39505  1.0000
  C   C249      1.0  0.10581  0.69445  0.40040  1.0000
  C   C250      1.0  0.11308  0.71707  0.33840  1.0000
  H   H141      1.0  0.11740  0.66417  0.44321  1.0000
  C   C251      1.0  0.08716  0.68957  0.47092  1.0000
  C   C252      1.0  0.09868  0.70338  0.55625  1.0000
  H   H142      1.0  0.10958  0.69363  0.58994  1.0000
  H   H143      1.0  0.08157  0.70145  0.59967  1.0000
  H   H144      1.0  0.11373  0.72604  0.54677  1.0000
  O   O18       1.0  0.06673  0.66536  0.47492  1.0000
  C   C253      1.0  0.24195  0.52883  0.33895  1.0000
  C   C254      1.0  0.26242  0.54490  0.40493  1.0000
  C   C255      1.0  0.28860  0.54495  0.40767  1.0000
  C   C256      1.0  0.29345  0.52885  0.34176  1.0000
  H   H145      1.0  0.25732  0.55451  0.45507  1.0000
  C   C257      1.0  0.30727  0.55780  0.47896  1.0000
  C   C258      1.0  0.30203  0.54148  0.56092  1.0000
  H   H146      1.0  0.28339  0.53947  0.59583  1.0000
  H   H147      1.0  0.32042  0.55205  0.60550  1.0000
  H   H148      1.0  0.29850  0.52021  0.54653  1.0000
  O   O19       1.0  0.31615  0.58331  0.48831  1.0000
  C   C259      1.0  0.47966  0.71483  0.33903  1.0000
  C   C260      1.0  0.46374  0.71932  0.40537  1.0000
  C   C261      1.0  0.46369  0.74544  0.40804  1.0000
  C   C262      1.0  0.47966  0.76634  0.34181  1.0000
  H   H149      1.0  0.45425  0.70467  0.45572  1.0000
  C   C263      1.0  0.45107  0.75138  0.47965  1.0000
  C   C264      1.0  0.46717  0.76243  0.56190  1.0000
  H   H150      1.0  0.46893  0.74574  0.59737  1.0000
  H   H151      1.0  0.45663  0.77046  0.60580  1.0000
  H   H152      1.0  0.48855  0.78003  0.54775  1.0000
  O   O20       1.0  0.42551  0.73491  0.48872  1.0000
  C   C265      1.0  0.29385  0.76666  0.33907  1.0000
  C   C266      1.0  0.28939  0.74624  0.40531  1.0000
  C   C267      1.0  0.26326  0.72007  0.40801  1.0000
  C   C268      1.0  0.24236  0.71517  0.34186  1.0000
  H   H153      1.0  0.30409  0.75137  0.45547  1.0000
  C   C269      1.0  0.25741  0.70143  0.47929  1.0000
  C   C270      1.0  0.24610  0.70644  0.56121  1.0000
  H   H154      1.0  0.26260  0.72501  0.59670  1.0000
  H   H155      1.0  0.23815  0.68794  0.60542  1.0000
  H   H156      1.0  0.22837  0.70998  0.54652  1.0000
  O   O21       1.0  0.27409  0.69268  0.49019  1.0000
  C   C271      1.0  0.76831  0.47799  0.33877  1.0000
  C   C272      1.0  0.74787  0.46197  0.40489  1.0000
  C   C273      1.0  0.72170  0.46191  0.40763  1.0000
  C   C274      1.0  0.71679  0.47793  0.34154  1.0000
  H   H157      1.0  0.75301  0.45242  0.45513  1.0000
  C   C275      1.0  0.70305  0.44913  0.47904  1.0000
  C   C276      1.0  0.70835  0.46554  0.56084  1.0000
  H   H158      1.0  0.72700  0.46758  0.59573  1.0000
  H   H159      1.0  0.68998  0.45503  0.60552  1.0000
  H   H160      1.0  0.71188  0.48681  0.54625  1.0000
  O   O22       1.0  0.69417  0.42364  0.48864  1.0000
  C   C277      1.0  0.53065  0.29207  0.33918  1.0000
  C   C278      1.0  0.54650  0.28755  0.40565  1.0000
  C   C279      1.0  0.54662  0.26146  0.40820  1.0000
  C   C280      1.0  0.53065  0.24058  0.34195  1.0000
  H   H161      1.0  0.55607  0.30224  0.45586  1.0000
  C   C281      1.0  0.55925  0.25553  0.47975  1.0000
  C   C282      1.0  0.54317  0.24444  0.56201  1.0000
  H   H162      1.0  0.54138  0.26110  0.59753  1.0000
  H   H163      1.0  0.55373  0.23642  0.60585  1.0000
  H   H164      1.0  0.52180  0.22683  0.54783  1.0000
  O   O23       1.0  0.58481  0.27202  0.48883  1.0000
  C   C283      1.0  0.71664  0.24021  0.33906  1.0000
  C   C284      1.0  0.72103  0.26065  0.40514  1.0000
  C   C285      1.0  0.74713  0.28685  0.40781  1.0000
  C   C286      1.0  0.76807  0.29177  0.34176  1.0000
  H   H165      1.0  0.70630  0.25552  0.45521  1.0000
  C   C287      1.0  0.75293  0.30548  0.47906  1.0000
  C   C288      1.0  0.76423  0.30051  0.56107  1.0000
  H   H166      1.0  0.74772  0.28192  0.59652  1.0000
  H   H167      1.0  0.77214  0.31900  0.60524  1.0000
  H   H168      1.0  0.78197  0.29699  0.54648  1.0000
  O   O24       1.0  0.73623  0.31421  0.48984  1.0000
  N   N61       1.0  0.18838  0.58281  0.40832  1.0000
  N   N62       1.0  0.18869  0.60697  0.40909  1.0000
  N   N63       1.0  0.42584  0.60732  0.40822  1.0000
  N   N64       1.0  0.40166  0.58346  0.40892  1.0000
  N   N65       1.0  0.40136  0.82036  0.40846  1.0000
  N   N66       1.0  0.42521  0.82005  0.40923  1.0000
  N   N67       1.0  0.82198  0.42412  0.40829  1.0000
  N   N68       1.0  0.82167  0.39996  0.40902  1.0000
  N   N69       1.0  0.58445  0.39958  0.40837  1.0000
  N   N70       1.0  0.60862  0.42343  0.40904  1.0000
  N   N71       1.0  0.60908  0.18666  0.40818  1.0000
  N   N72       1.0  0.58523  0.18698  0.40896  1.0000
  C   C289      1.0  0.97538  0.26802  0.34638  1.0000
  C   C290      1.0  0.98985  0.25791  0.40065  1.0000
  C   C291      1.0  0.02020  0.27249  0.40310  1.0000
  C   C292      1.0  0.03577  0.29732  0.34926  1.0000
  H   H169      1.0  0.97831  0.24104  0.44269  1.0000
  C   C293      1.0  0.03410  0.26416  0.46362  1.0000
  C   C294      1.0  0.03817  0.27474  0.55484  1.0000
  H   H170      1.0  0.04714  0.29781  0.55545  1.0000
  H   H171      1.0  0.05294  0.27000  0.59031  1.0000
  H   H172      1.0  0.01792  0.26480  0.59096  1.0000
  O   O25       1.0  0.02921  0.23966  0.45480  1.0000
  C   C295      1.0  0.74055  0.70901  0.34644  1.0000
  C   C296      1.0  0.75076  0.73367  0.40035  1.0000
  C   C297      1.0  0.73615  0.74943  0.40292  1.0000
  C   C298      1.0  0.71128  0.74013  0.34927  1.0000
  H   H173      1.0  0.76766  0.73902  0.44227  1.0000
  C   C299      1.0  0.74462  0.77177  0.46305  1.0000
  C   C300      1.0  0.73371  0.76513  0.55407  1.0000
  H   H174      1.0  0.71062  0.75119  0.55401  1.0000
  H   H175      1.0  0.73847  0.78461  0.58979  1.0000
  H   H176      1.0  0.74339  0.75462  0.59049  1.0000
  O   O26       1.0  0.76926  0.79120  0.45619  1.0000
  C   C301      1.0  0.29960  0.03325  0.34650  1.0000
  C   C302      1.0  0.27493  0.01880  0.40041  1.0000
  C   C303      1.0  0.25917  0.98845  0.40295  1.0000
  C   C304      1.0  0.26846  0.97287  0.34925  1.0000
  H   H177      1.0  0.26962  0.03035  0.44251  1.0000
  C   C305      1.0  0.23690  0.97456  0.46335  1.0000
  C   C306      1.0  0.24336  0.97048  0.55463  1.0000
  H   H178      1.0  0.25744  0.96149  0.55536  1.0000
  H   H179      1.0  0.22383  0.95571  0.58999  1.0000
  H   H180      1.0  0.25365  0.99071  0.59078  1.0000
  O   O27       1.0  0.21731  0.97947  0.45439  1.0000
  C   C307      1.0  0.03497  0.73886  0.34654  1.0000
  C   C308      1.0  0.02050  0.74903  0.40057  1.0000
  C   C309      1.0  0.99015  0.73444  0.40305  1.0000
  C   C310      1.0  0.97458  0.70953  0.34958  1.0000
  H   H181      1.0  0.03205  0.76596  0.44239  1.0000
  C   C311      1.0  0.97626  0.74287  0.46329  1.0000
  C   C312      1.0  0.97215  0.73238  0.55464  1.0000
  H   H182      1.0  0.96315  0.70931  0.55553  1.0000
  H   H183      1.0  0.95739  0.73718  0.58987  1.0000
  H   H184      1.0  0.99238  0.74234  0.59082  1.0000
  O   O28       1.0  0.98117  0.76736  0.45413  1.0000
  C   C313      1.0  0.26979  0.29787  0.34661  1.0000
  C   C314      1.0  0.25951  0.27316  0.40032  1.0000
  C   C315      1.0  0.27413  0.25742  0.40296  1.0000
  C   C316      1.0  0.29906  0.26677  0.34955  1.0000
  H   H185      1.0  0.24261  0.26780  0.44221  1.0000
  C   C317      1.0  0.26563  0.23502  0.46307  1.0000
  C   C318      1.0  0.27640  0.24182  0.55414  1.0000
  H   H186      1.0  0.29950  0.25575  0.55439  1.0000
  H   H187      1.0  0.27156  0.22238  0.59025  1.0000
  H   H188      1.0  0.26665  0.25237  0.58994  1.0000
  O   O29       1.0  0.24107  0.21556  0.45467  1.0000
  C   C319      1.0  0.71084  0.97365  0.34629  1.0000
  C   C320      1.0  0.73546  0.98811  0.40042  1.0000
  C   C321      1.0  0.75121  0.01846  0.40301  1.0000
  C   C322      1.0  0.74192  0.03403  0.34929  1.0000
  H   H189      1.0  0.74075  0.97657  0.44257  1.0000
  C   C323      1.0  0.77344  0.03235  0.46354  1.0000
  C   C324      1.0  0.76691  0.03637  0.55481  1.0000
  H   H190      1.0  0.75281  0.04534  0.55548  1.0000
  H   H191      1.0  0.78641  0.05113  0.59032  1.0000
  H   H192      1.0  0.75661  0.01612  0.59084  1.0000
  O   O30       1.0  0.79305  0.02748  0.45468  1.0000
  C   C325      1.0  0.19146  0.32259  0.34162  1.0000
  C   C326      1.0  0.17034  0.30548  0.40496  1.0000
  C   C327      1.0  0.14390  0.30519  0.40798  1.0000
  C   C328      1.0  0.13901  0.32215  0.34539  1.0000
  H   H193      1.0  0.17515  0.29514  0.45338  1.0000
  C   C329      1.0  0.12456  0.29100  0.47643  1.0000
  C   C330      1.0  0.12898  0.30545  0.56193  1.0000
  H   H194      1.0  0.14732  0.30674  0.59681  1.0000
  H   H195      1.0  0.11021  0.29395  0.60448  1.0000
  H   H196      1.0  0.13260  0.32698  0.55232  1.0000
  O   O31       1.0  0.11555  0.26535  0.48143  1.0000
  C   C331      1.0  0.68607  0.87061  0.34146  1.0000
  C   C332      1.0  0.70320  0.86661  0.40477  1.0000
  C   C333      1.0  0.70347  0.84044  0.40778  1.0000
  C   C334      1.0  0.68654  0.81861  0.34509  1.0000
  H   H197      1.0  0.71348  0.88170  0.45334  1.0000
  C   C335      1.0  0.71764  0.83526  0.47639  1.0000
  C   C336      1.0  0.70305  0.82536  0.56167  1.0000
  H   H198      1.0  0.70176  0.84247  0.59609  1.0000
  H   H199      1.0  0.71450  0.81814  0.60466  1.0000
  H   H200      1.0  0.68152  0.80745  0.55200  1.0000
  O   O32       1.0  0.74331  0.85181  0.48022  1.0000
  C   C337      1.0  0.13798  0.81719  0.34157  1.0000
  C   C338      1.0  0.14207  0.83824  0.40527  1.0000
  C   C339      1.0  0.16819  0.86472  0.40809  1.0000
  C   C340      1.0  0.18998  0.86968  0.34516  1.0000
  H   H201      1.0  0.12698  0.83343  0.45386  1.0000
  C   C341      1.0  0.17344  0.88398  0.47693  1.0000
  C   C342      1.0  0.18326  0.87954  0.56263  1.0000
  H   H202      1.0  0.16607  0.86132  0.59748  1.0000
  H   H203      1.0  0.19063  0.89839  0.60489  1.0000
  H   H204      1.0  0.20104  0.87570  0.55344  1.0000
  O   O33       1.0  0.15703  0.89329  0.48020  1.0000
  C   C343      1.0  0.81885  0.68426  0.34161  1.0000
  C   C344      1.0  0.83996  0.70139  0.40496  1.0000
  C   C345      1.0  0.86642  0.70171  0.40793  1.0000
  C   C346      1.0  0.87138  0.68485  0.34513  1.0000
  H   H205      1.0  0.83513  0.71168  0.45347  1.0000
  C   C347      1.0  0.88573  0.71586  0.47650  1.0000
  C   C348      1.0  0.88128  0.70134  0.56188  1.0000
  H   H206      1.0  0.86293  0.70000  0.59676  1.0000
  H   H207      1.0  0.90004  0.71282  0.60451  1.0000
  H   H208      1.0  0.87768  0.67982  0.55208  1.0000
  O   O34       1.0  0.89471  0.74149  0.48170  1.0000
  C   C349      1.0  0.32434  0.13631  0.34163  1.0000
  C   C350      1.0  0.30718  0.14027  0.40491  1.0000
  C   C351      1.0  0.30684  0.16640  0.40779  1.0000
  C   C352      1.0  0.32371  0.18822  0.34500  1.0000
  H   H209      1.0  0.29694  0.12519  0.45357  1.0000
  C   C353      1.0  0.29276  0.17160  0.47648  1.0000
  C   C354      1.0  0.30694  0.18142  0.56228  1.0000
  H   H210      1.0  0.30795  0.16424  0.59722  1.0000
  H   H211      1.0  0.29541  0.18877  0.60439  1.0000
  H   H212      1.0  0.32856  0.19923  0.55325  1.0000
  O   O35       1.0  0.26703  0.15516  0.47957  1.0000
  C   C355      1.0  0.87232  0.18976  0.34176  1.0000
  C   C356      1.0  0.86833  0.16864  0.40506  1.0000
  C   C357      1.0  0.84220  0.14217  0.40793  1.0000
  C   C358      1.0  0.82033  0.13731  0.34547  1.0000
  H   H213      1.0  0.88349  0.17341  0.45339  1.0000
  C   C359      1.0  0.83704  0.12283  0.47643  1.0000
  C   C360      1.0  0.82732  0.12717  0.56246  1.0000
  H   H214      1.0  0.84454  0.14536  0.59730  1.0000
  H   H215      1.0  0.82003  0.10828  0.60448  1.0000
  H   H216      1.0  0.80951  0.13098  0.55377  1.0000
  O   O36       1.0  0.85347  0.11353  0.47912  1.0000
