data_image0
_chemical_formula_structural       NCHNCHNCHNCHNCHNCHC2NC2O2C2H4C2NC2O2C2H4C2NC2O2C2H4C2NC2O2C2H4C2NC2O2C2H4C2NC2O2C2H4C2NC2O2C2H5C2NC2O2C2H5C2NC2O2C2H5C2NC2O2C2H5C2NC2O2C2H5C2NC2O2C2H5CNCNCNC18H12CNCNCNC18H12CNCNCNC18H12CNCNCNC18H12CNCNCNC18H12CNCNCNC18H12CNCNCNC18H12CNCNCNC18H12CNCNCNC18H12CNCNCNC18H12CNCNCNC18H12CNCNCNC18H12C2NC2O2C2H5C2NC2O2C2H5C2NC2O2C2H5C2NC2O2C2H5C2NC2O2C2H5C2NC2O2C2H5NCH2NCH2NCH2NCH2NCH2NCH2NCHNCHNCHNCHNCHNCH
_chemical_formula_sum              "N72 C378 H252 O36"
_cell_length_a       74.2671
_cell_length_b       74.2671
_cell_length_c       15.0069
_cell_angle_alpha    90
_cell_angle_beta     90
_cell_angle_gamma    120

_space_group_name_H-M_alt    "P 1"
_space_group_IT_number       1

loop_
  _space_group_symop_operation_xyz
  'x, y, z'

loop_
  _atom_site_type_symbol
  _atom_site_label
  _atom_site_symmetry_multiplicity
  _atom_site_fract_x
  _atom_site_fract_y
  _atom_site_fract_z
  _atom_site_occupancy
  N   N1        1.0  0.17766  0.37486  0.28116  1.0000
  C   C1        1.0  0.18680  0.39582  0.27598  1.0000
  H   H1        1.0  0.18250  0.40223  0.22604  1.0000
  N   N2        1.0  0.61120  0.78932  0.28128  1.0000
  C   C2        1.0  0.59025  0.77750  0.27615  1.0000
  H   H2        1.0  0.58383  0.76677  0.22624  1.0000
  N   N3        1.0  0.19674  0.80842  0.28154  1.0000
  C   C3        1.0  0.20855  0.79927  0.27624  1.0000
  H   H3        1.0  0.21924  0.80356  0.22620  1.0000
  N   N4        1.0  0.81272  0.60688  0.28139  1.0000
  C   C4        1.0  0.80357  0.58593  0.27615  1.0000
  H   H4        1.0  0.80785  0.57952  0.22606  1.0000
  N   N5        1.0  0.37921  0.19238  0.28153  1.0000
  C   C5        1.0  0.40017  0.20419  0.27627  1.0000
  H   H5        1.0  0.40657  0.21488  0.22622  1.0000
  N   N6        1.0  0.79366  0.17329  0.28170  1.0000
  C   C6        1.0  0.78184  0.18243  0.27646  1.0000
  H   H6        1.0  0.77115  0.17814  0.22638  1.0000
  C   C7        1.0  0.20481  0.17805  0.32093  1.0000
  C   C8        1.0  0.18197  0.19872  0.32708  1.0000
  N   N7        1.0  0.19697  0.20327  0.26485  1.0000
  C   C9        1.0  0.20866  0.19392  0.25805  1.0000
  C   C10       1.0  0.22210  0.19984  0.18589  1.0000
  O   O1        1.0  0.23615  0.21795  0.18701  1.0000
  O   O2        1.0  0.22753  0.18674  0.15024  1.0000
  C   C11       1.0  0.21349  0.17328  0.08263  1.0000
  C   C12       1.0  0.22116  0.15863  0.04984  1.0000
  H   H7        1.0  0.21305  0.18236  0.02608  1.0000
  H   H8        1.0  0.19773  0.16380  0.10910  1.0000
  H   H9        1.0  0.23675  0.16764  0.02173  1.0000
  H   H10       1.0  0.22159  0.14930  0.10516  1.0000
  C   C13       1.0  0.80805  0.01328  0.32073  1.0000
  C   C14       1.0  0.78738  0.96977  0.32684  1.0000
  N   N8        1.0  0.78283  0.98023  0.26466  1.0000
  C   C15       1.0  0.79218  0.00127  0.25784  1.0000
  C   C16       1.0  0.78620  0.00874  0.18562  1.0000
  O   O3        1.0  0.76803  0.00445  0.18523  1.0000
  O   O4        1.0  0.79947  0.02732  0.15066  1.0000
  C   C17       1.0  0.81273  0.02671  0.08218  1.0000
  C   C18       1.0  0.82754  0.04907  0.05016  1.0000
  H   H11       1.0  0.80351  0.01739  0.02548  1.0000
  H   H12       1.0  0.82209  0.02020  0.10762  1.0000
  H   H13       1.0  0.81864  0.05588  0.02309  1.0000
  H   H14       1.0  0.83700  0.05863  0.10563  1.0000
  C   C19       1.0  0.97280  0.78129  0.32076  1.0000
  C   C20       1.0  0.01630  0.80413  0.32692  1.0000
  N   N9        1.0  0.00585  0.78912  0.26472  1.0000
  C   C21       1.0  0.98481  0.77743  0.25789  1.0000
  C   C22       1.0  0.97734  0.76398  0.18567  1.0000
  O   O5        1.0  0.98164  0.75010  0.18528  1.0000
  O   O6        1.0  0.95876  0.75866  0.15071  1.0000
  C   C23       1.0  0.95936  0.77253  0.08224  1.0000
  C   C24       1.0  0.93700  0.76497  0.05022  1.0000
  H   H15       1.0  0.96869  0.77264  0.02553  1.0000
  H   H16       1.0  0.96587  0.78840  0.10768  1.0000
  H   H17       1.0  0.93019  0.74927  0.02314  1.0000
  H   H18       1.0  0.92744  0.76487  0.10570  1.0000
  C   C25       1.0  0.78562  0.80369  0.32075  1.0000
  C   C26       1.0  0.80846  0.78303  0.32692  1.0000
  N   N10       1.0  0.79344  0.77846  0.26476  1.0000
  C   C27       1.0  0.78174  0.78780  0.25794  1.0000
  C   C28       1.0  0.76831  0.78183  0.18566  1.0000
  O   O7        1.0  0.75443  0.76366  0.18520  1.0000
  O   O8        1.0  0.76300  0.79510  0.15068  1.0000
  C   C29       1.0  0.77688  0.80836  0.08224  1.0000
  C   C30       1.0  0.76933  0.82317  0.05020  1.0000
  H   H19       1.0  0.77699  0.79914  0.02553  1.0000
  H   H20       1.0  0.79275  0.81772  0.10770  1.0000
  H   H21       1.0  0.75363  0.81428  0.02309  1.0000
  H   H22       1.0  0.76923  0.83264  0.10566  1.0000
  C   C31       1.0  0.18236  0.96847  0.32056  1.0000
  C   C32       1.0  0.20305  0.01197  0.32698  1.0000
  N   N11       1.0  0.20760  0.00153  0.26467  1.0000
  C   C33       1.0  0.19824  0.98049  0.25775  1.0000
  C   C34       1.0  0.20417  0.97305  0.18540  1.0000
  O   O9        1.0  0.22232  0.97727  0.18419  1.0000
  O   O10       1.0  0.19106  0.95441  0.15040  1.0000
  C   C35       1.0  0.17755  0.95482  0.08261  1.0000
  C   C36       1.0  0.16294  0.93242  0.05056  1.0000
  H   H23       1.0  0.18659  0.96425  0.02577  1.0000
  H   H24       1.0  0.16805  0.96111  0.10871  1.0000
  H   H25       1.0  0.17197  0.92582  0.02283  1.0000
  H   H26       1.0  0.15365  0.92275  0.10616  1.0000
  C   C37       1.0  0.01761  0.20041  0.32049  1.0000
  C   C38       1.0  0.97411  0.17760  0.32694  1.0000
  N   N12       1.0  0.98454  0.19257  0.26458  1.0000
  C   C39       1.0  0.00558  0.20424  0.25757  1.0000
  C   C40       1.0  0.01303  0.21764  0.18533  1.0000
  O   O11       1.0  0.00883  0.23159  0.18433  1.0000
  O   O12       1.0  0.03167  0.22318  0.15028  1.0000
  C   C41       1.0  0.03125  0.20926  0.08244  1.0000
  C   C42       1.0  0.05365  0.21705  0.05034  1.0000
  H   H27       1.0  0.02182  0.20888  0.02563  1.0000
  H   H28       1.0  0.02496  0.19347  0.10850  1.0000
  H   H29       1.0  0.06024  0.23268  0.02266  1.0000
  H   H30       1.0  0.06332  0.21741  0.10592  1.0000
  C   C43       1.0  0.21315  0.61963  0.31606  1.0000
  C   C44       1.0  0.21326  0.58262  0.34800  1.0000
  N   N13       1.0  0.21199  0.58890  0.26428  1.0000
  C   C45       1.0  0.21119  0.60637  0.24364  1.0000
  C   C46       1.0  0.21063  0.61116  0.15428  1.0000
  O   O13       1.0  0.20773  0.59795  0.09833  1.0000
  O   O14       1.0  0.20159  0.62243  0.13478  1.0000
  C   C47       1.0  0.21237  0.63829  0.06819  1.0000
  C   C48       1.0  0.20225  0.65197  0.06191  1.0000
  H   H31       1.0  0.21130  0.63119  0.00308  1.0000
  H   H32       1.0  0.22879  0.64826  0.08514  1.0000
  H   H33       1.0  0.18588  0.64252  0.04377  1.0000
  H   H34       1.0  0.21015  0.66398  0.01135  1.0000
  H   H35       1.0  0.20340  0.65947  0.12591  1.0000
  C   C49       1.0  0.36645  0.58000  0.31655  1.0000
  C   C50       1.0  0.40346  0.61711  0.34837  1.0000
  N   N14       1.0  0.39716  0.60960  0.26464  1.0000
  C   C51       1.0  0.37967  0.59133  0.24409  1.0000
  C   C52       1.0  0.37483  0.58602  0.15476  1.0000
  O   O15       1.0  0.38800  0.59633  0.09869  1.0000
  O   O16       1.0  0.36353  0.56569  0.13517  1.0000
  C   C53       1.0  0.34763  0.56064  0.06888  1.0000
  C   C54       1.0  0.33395  0.53684  0.06241  1.0000
  H   H36       1.0  0.35467  0.56672  0.00372  1.0000
  H   H37       1.0  0.33765  0.56707  0.08625  1.0000
  H   H38       1.0  0.34341  0.52996  0.04385  1.0000
  H   H39       1.0  0.32191  0.53275  0.01207  1.0000
  H   H40       1.0  0.32652  0.53046  0.12646  1.0000
  C   C55       1.0  0.40591  0.77272  0.31707  1.0000
  C   C56       1.0  0.36888  0.77280  0.34869  1.0000
  N   N15       1.0  0.37645  0.77405  0.26504  1.0000
  C   C57       1.0  0.39471  0.77479  0.24452  1.0000
  C   C58       1.0  0.40017  0.77542  0.15519  1.0000
  O   O17       1.0  0.38977  0.77834  0.09971  1.0000
  O   O18       1.0  0.42042  0.78408  0.13536  1.0000
  C   C59       1.0  0.42511  0.77312  0.06821  1.0000
  C   C60       1.0  0.44886  0.78280  0.06146  1.0000
  H   H41       1.0  0.41912  0.77441  0.00335  1.0000
  H   H42       1.0  0.41836  0.75664  0.08484  1.0000
  H   H43       1.0  0.45606  0.79921  0.04361  1.0000
  H   H44       1.0  0.45269  0.77476  0.01051  1.0000
  H   H45       1.0  0.45516  0.78144  0.12522  1.0000
  C   C61       1.0  0.77682  0.36185  0.31587  1.0000
  C   C62       1.0  0.77705  0.39901  0.34785  1.0000
  N   N16       1.0  0.77810  0.39265  0.26406  1.0000
  C   C63       1.0  0.77875  0.37509  0.24337  1.0000
  C   C64       1.0  0.77910  0.37016  0.15391  1.0000
  O   O19       1.0  0.78120  0.38310  0.09797  1.0000
  O   O20       1.0  0.78860  0.35930  0.13481  1.0000
  C   C65       1.0  0.77822  0.34342  0.06798  1.0000
  C   C66       1.0  0.78884  0.33019  0.06220  1.0000
  H   H46       1.0  0.77922  0.35049  0.00284  1.0000
  H   H47       1.0  0.76181  0.33313  0.08444  1.0000
  H   H48       1.0  0.80520  0.33997  0.04457  1.0000
  H   H49       1.0  0.78125  0.31817  0.01146  1.0000
  H   H50       1.0  0.78777  0.32274  0.12623  1.0000
  C   C67       1.0  0.62408  0.40160  0.31606  1.0000
  C   C68       1.0  0.58687  0.36466  0.34776  1.0000
  N   N17       1.0  0.59333  0.37207  0.26403  1.0000
  C   C69       1.0  0.61089  0.39028  0.24348  1.0000
  C   C70       1.0  0.61590  0.39553  0.15406  1.0000
  O   O21       1.0  0.60299  0.38472  0.09799  1.0000
  O   O22       1.0  0.62683  0.41588  0.13489  1.0000
  C   C71       1.0  0.64279  0.42132  0.06849  1.0000
  C   C72       1.0  0.65607  0.44516  0.06253  1.0000
  H   H51       1.0  0.63580  0.41524  0.00326  1.0000
  H   H52       1.0  0.65303  0.41518  0.08549  1.0000
  H   H53       1.0  0.64635  0.45178  0.04435  1.0000
  H   H54       1.0  0.66816  0.44954  0.01211  1.0000
  H   H55       1.0  0.66345  0.45156  0.12666  1.0000
  C   C73       1.0  0.58446  0.20897  0.31603  1.0000
  C   C74       1.0  0.62133  0.20860  0.34765  1.0000
  N   N18       1.0  0.61393  0.20767  0.26391  1.0000
  C   C75       1.0  0.59573  0.20705  0.24337  1.0000
  C   C76       1.0  0.59050  0.20686  0.15396  1.0000
  O   O23       1.0  0.60132  0.20479  0.09785  1.0000
  O   O24       1.0  0.57015  0.19743  0.13476  1.0000
  C   C77       1.0  0.56470  0.20796  0.06841  1.0000
  C   C78       1.0  0.54086  0.19738  0.06245  1.0000
  H   H56       1.0  0.57079  0.20706  0.00317  1.0000
  H   H57       1.0  0.57084  0.22434  0.08546  1.0000
  H   H58       1.0  0.53425  0.18105  0.04421  1.0000
  H   H59       1.0  0.53647  0.20509  0.01207  1.0000
  H   H60       1.0  0.53445  0.19835  0.12659  1.0000
  C   C79       1.0  0.13822  0.24382  0.32859  1.0000
  N   N19       1.0  0.14849  0.26496  0.32860  1.0000
  C   C80       1.0  0.13850  0.27609  0.32989  1.0000
  N   N20       1.0  0.11737  0.26515  0.33099  1.0000
  C   C81       1.0  0.10619  0.24404  0.33090  1.0000
  N   N21       1.0  0.11710  0.23382  0.32980  1.0000
  C   C82       1.0  0.14959  0.29826  0.33121  1.0000
  C   C83       1.0  0.17161  0.30970  0.32901  1.0000
  C   C84       1.0  0.18254  0.33156  0.33215  1.0000
  C   C85       1.0  0.17178  0.34271  0.33842  1.0000
  C   C86       1.0  0.14984  0.33149  0.33860  1.0000
  C   C87       1.0  0.13895  0.30964  0.33551  1.0000
  C   C88       1.0  0.14908  0.23254  0.32784  1.0000
  C   C89       1.0  0.17042  0.24231  0.30513  1.0000
  C   C90       1.0  0.18109  0.23111  0.30400  1.0000
  C   C91       1.0  0.17095  0.20982  0.32754  1.0000
  C   C92       1.0  0.14963  0.20002  0.35026  1.0000
  C   C93       1.0  0.13887  0.21113  0.34980  1.0000
  C   C94       1.0  0.08403  0.23313  0.33081  1.0000
  C   C95       1.0  0.07246  0.21113  0.32608  1.0000
  C   C96       1.0  0.05060  0.20037  0.32377  1.0000
  C   C97       1.0  0.03960  0.21131  0.32515  1.0000
  C   C98       1.0  0.05094  0.23319  0.33219  1.0000
  C   C99       1.0  0.07279  0.24391  0.33452  1.0000
  H   H61       1.0  0.19654  0.23885  0.28757  1.0000
  H   H62       1.0  0.17846  0.25770  0.28798  1.0000
  H   H63       1.0  0.14152  0.18453  0.36565  1.0000
  H   H64       1.0  0.12347  0.20334  0.36686  1.0000
  H   H65       1.0  0.07978  0.20258  0.32321  1.0000
  H   H66       1.0  0.04281  0.18450  0.31867  1.0000
  H   H67       1.0  0.08036  0.25978  0.33858  1.0000
  H   H68       1.0  0.04338  0.24154  0.33498  1.0000
  H   H69       1.0  0.12306  0.30218  0.33728  1.0000
  H   H70       1.0  0.14158  0.33911  0.34311  1.0000
  H   H71       1.0  0.19845  0.33927  0.33022  1.0000
  H   H72       1.0  0.18006  0.30228  0.32537  1.0000
  C   C100      1.0  0.74226  0.88093  0.32859  1.0000
  N   N22       1.0  0.72112  0.87006  0.32859  1.0000
  C   C101      1.0  0.70997  0.84893  0.32997  1.0000
  N   N23       1.0  0.72091  0.83874  0.33116  1.0000
  C   C102      1.0  0.74202  0.84867  0.33108  1.0000
  N   N24       1.0  0.75224  0.86979  0.32989  1.0000
  C   C103      1.0  0.68781  0.83786  0.33127  1.0000
  C   C104      1.0  0.67636  0.84844  0.32907  1.0000
  C   C105      1.0  0.65451  0.83752  0.33221  1.0000
  C   C106      1.0  0.64336  0.81561  0.33848  1.0000
  C   C107      1.0  0.65458  0.80488  0.33862  1.0000
  C   C108      1.0  0.67642  0.81584  0.33557  1.0000
  C   C109      1.0  0.75354  0.90306  0.32775  1.0000
  C   C110      1.0  0.74378  0.91463  0.30489  1.0000
  C   C111      1.0  0.75499  0.93650  0.30377  1.0000
  C   C112      1.0  0.77628  0.94765  0.32732  1.0000
  C   C113      1.0  0.78606  0.93612  0.35014  1.0000
  C   C114      1.0  0.77495  0.91426  0.34973  1.0000
  C   C115      1.0  0.75292  0.83741  0.33109  1.0000
  C   C116      1.0  0.77493  0.84783  0.32636  1.0000
  C   C117      1.0  0.78567  0.83672  0.32404  1.0000
  C   C118      1.0  0.77473  0.81478  0.32550  1.0000
  C   C119      1.0  0.75284  0.80424  0.33256  1.0000
  C   C120      1.0  0.74213  0.81539  0.33484  1.0000
  H   H73       1.0  0.74726  0.94421  0.28722  1.0000
  H   H74       1.0  0.72839  0.90728  0.28775  1.0000
  H   H75       1.0  0.80155  0.94349  0.36557  1.0000
  H   H76       1.0  0.78272  0.90664  0.36692  1.0000
  H   H77       1.0  0.78348  0.86371  0.32344  1.0000
  H   H78       1.0  0.80155  0.84481  0.31894  1.0000
  H   H79       1.0  0.72626  0.80709  0.33890  1.0000
  H   H80       1.0  0.74450  0.78835  0.33535  1.0000
  H   H81       1.0  0.68388  0.80741  0.33733  1.0000
  H   H82       1.0  0.64695  0.78900  0.34316  1.0000
  H   H83       1.0  0.64680  0.84571  0.33030  1.0000
  H   H84       1.0  0.68379  0.86432  0.32545  1.0000
  C   C121      1.0  0.10515  0.84786  0.32871  1.0000
  N   N25       1.0  0.11602  0.83759  0.32883  1.0000
  C   C122      1.0  0.13715  0.84758  0.33021  1.0000
  N   N26       1.0  0.14734  0.86871  0.33128  1.0000
  C   C123      1.0  0.13740  0.87989  0.33108  1.0000
  N   N27       1.0  0.11628  0.86898  0.32991  1.0000
  C   C124      1.0  0.14824  0.83650  0.33163  1.0000
  C   C125      1.0  0.13766  0.81447  0.32953  1.0000
  C   C126      1.0  0.14859  0.80355  0.33274  1.0000
  C   C127      1.0  0.17050  0.81432  0.33900  1.0000
  C   C128      1.0  0.18122  0.83626  0.33908  1.0000
  C   C129      1.0  0.17025  0.84714  0.33592  1.0000
  C   C130      1.0  0.08302  0.83701  0.32788  1.0000
  C   C131      1.0  0.07144  0.81567  0.30509  1.0000
  C   C132      1.0  0.04958  0.80501  0.30389  1.0000
  C   C133      1.0  0.03842  0.81515  0.32742  1.0000
  C   C134      1.0  0.04995  0.83647  0.35022  1.0000
  C   C135      1.0  0.07182  0.84721  0.34984  1.0000
  C   C136      1.0  0.14865  0.90205  0.33097  1.0000
  C   C137      1.0  0.13823  0.91363  0.32622  1.0000
  C   C138      1.0  0.14933  0.93548  0.32388  1.0000
  C   C139      1.0  0.17128  0.94649  0.32524  1.0000
  C   C140      1.0  0.18181  0.93514  0.33229  1.0000
  C   C141      1.0  0.17068  0.91329  0.33465  1.0000
  H   H85       1.0  0.04187  0.78956  0.28740  1.0000
  H   H86       1.0  0.07880  0.80763  0.28795  1.0000
  H   H87       1.0  0.04258  0.84458  0.36561  1.0000
  H   H88       1.0  0.07943  0.86261  0.36696  1.0000
  H   H89       1.0  0.12235  0.90630  0.32337  1.0000
  H   H90       1.0  0.14124  0.94327  0.31877  1.0000
  H   H91       1.0  0.17898  0.90572  0.33872  1.0000
  H   H92       1.0  0.19771  0.94269  0.33507  1.0000
  H   H93       1.0  0.17868  0.86303  0.33761  1.0000
  H   H94       1.0  0.19710  0.84453  0.34355  1.0000
  H   H95       1.0  0.14040  0.78764  0.33085  1.0000
  H   H96       1.0  0.12179  0.80602  0.32590  1.0000
  C   C142      1.0  0.85219  0.73792  0.32875  1.0000
  N   N28       1.0  0.84192  0.71678  0.32882  1.0000
  C   C143      1.0  0.85191  0.70564  0.33022  1.0000
  N   N29       1.0  0.87304  0.71657  0.33137  1.0000
  C   C144      1.0  0.88422  0.73769  0.33122  1.0000
  N   N30       1.0  0.87331  0.74791  0.33001  1.0000
  C   C145      1.0  0.84083  0.68347  0.33159  1.0000
  C   C146      1.0  0.81880  0.67202  0.32947  1.0000
  C   C147      1.0  0.80787  0.65017  0.33266  1.0000
  C   C148      1.0  0.81864  0.63903  0.33890  1.0000
  C   C149      1.0  0.84058  0.65025  0.33896  1.0000
  C   C150      1.0  0.85146  0.67209  0.33586  1.0000
  C   C151      1.0  0.84135  0.74920  0.32789  1.0000
  C   C152      1.0  0.82001  0.73943  0.30507  1.0000
  C   C153      1.0  0.80934  0.75063  0.30393  1.0000
  C   C154      1.0  0.81948  0.77193  0.32742  1.0000
  C   C155      1.0  0.84080  0.78172  0.35021  1.0000
  C   C156      1.0  0.85155  0.77061  0.34982  1.0000
  C   C157      1.0  0.90638  0.74859  0.33118  1.0000
  C   C158      1.0  0.91796  0.77060  0.32642  1.0000
  C   C159      1.0  0.93982  0.78134  0.32406  1.0000
  C   C160      1.0  0.95082  0.77040  0.32552  1.0000
  C   C161      1.0  0.93947  0.74852  0.33261  1.0000
  C   C162      1.0  0.91762  0.73781  0.33493  1.0000
  H   H97       1.0  0.79390  0.74290  0.28741  1.0000
  H   H98       1.0  0.81197  0.72403  0.28797  1.0000
  H   H99       1.0  0.84891  0.79721  0.36560  1.0000
  H   H100      1.0  0.86695  0.77839  0.36698  1.0000
  H   H101      1.0  0.91064  0.77915  0.32348  1.0000
  H   H102      1.0  0.94761  0.79722  0.31893  1.0000
  H   H103      1.0  0.91005  0.72194  0.33901  1.0000
  H   H104      1.0  0.94702  0.74017  0.33541  1.0000
  H   H105      1.0  0.86735  0.67955  0.33756  1.0000
  H   H106      1.0  0.84884  0.64262  0.34345  1.0000
  H   H107      1.0  0.79196  0.64245  0.33079  1.0000
  H   H108      1.0  0.81035  0.67945  0.32587  1.0000
  C   C163      1.0  0.24818  0.10082  0.32887  1.0000
  N   N31       1.0  0.26932  0.11168  0.32895  1.0000
  C   C164      1.0  0.28046  0.13281  0.33031  1.0000
  N   N32       1.0  0.26952  0.14300  0.33141  1.0000
  C   C165      1.0  0.24841  0.13307  0.33125  1.0000
  N   N33       1.0  0.23819  0.11195  0.33009  1.0000
  C   C166      1.0  0.30263  0.14389  0.33169  1.0000
  C   C167      1.0  0.31408  0.13331  0.32959  1.0000
  C   C168      1.0  0.33593  0.14424  0.33277  1.0000
  C   C169      1.0  0.34707  0.16615  0.33904  1.0000
  C   C170      1.0  0.33585  0.17687  0.33912  1.0000
  C   C171      1.0  0.31401  0.16591  0.33597  1.0000
  C   C172      1.0  0.23690  0.07869  0.32806  1.0000
  C   C173      1.0  0.24666  0.06711  0.30521  1.0000
  C   C174      1.0  0.23545  0.04524  0.30398  1.0000
  C   C175      1.0  0.21416  0.03409  0.32756  1.0000
  C   C176      1.0  0.20438  0.04562  0.35042  1.0000
  C   C177      1.0  0.21550  0.06748  0.35006  1.0000
  C   C178      1.0  0.23750  0.14432  0.33117  1.0000
  C   C179      1.0  0.21550  0.13390  0.32650  1.0000
  C   C180      1.0  0.20476  0.14501  0.32422  1.0000
  C   C181      1.0  0.21570  0.16696  0.32556  1.0000
  C   C182      1.0  0.23759  0.17749  0.33250  1.0000
  C   C183      1.0  0.24829  0.16635  0.33481  1.0000
  H   H109      1.0  0.24319  0.03753  0.28744  1.0000
  H   H110      1.0  0.26205  0.07447  0.28802  1.0000
  H   H111      1.0  0.18889  0.03824  0.36584  1.0000
  H   H112      1.0  0.20772  0.07510  0.36722  1.0000
  H   H113      1.0  0.20695  0.11803  0.32368  1.0000
  H   H114      1.0  0.18888  0.13693  0.31918  1.0000
  H   H115      1.0  0.26417  0.17465  0.33883  1.0000
  H   H116      1.0  0.24593  0.19339  0.33529  1.0000
  H   H117      1.0  0.30655  0.17434  0.33768  1.0000
  H   H118      1.0  0.34347  0.19275  0.34359  1.0000
  H   H119      1.0  0.34365  0.13605  0.33089  1.0000
  H   H120      1.0  0.30665  0.11744  0.32596  1.0000
  C   C184      1.0  0.88527  0.13388  0.32896  1.0000
  N   N34       1.0  0.87440  0.14415  0.32905  1.0000
  C   C185      1.0  0.85326  0.13415  0.33043  1.0000
  N   N35       1.0  0.84308  0.11303  0.33151  1.0000
  C   C186      1.0  0.85302  0.10185  0.33133  1.0000
  N   N36       1.0  0.87414  0.11276  0.33017  1.0000
  C   C187      1.0  0.84218  0.14523  0.33183  1.0000
  C   C188      1.0  0.85275  0.16726  0.32975  1.0000
  C   C189      1.0  0.84181  0.17818  0.33297  1.0000
  C   C190      1.0  0.81990  0.16739  0.33922  1.0000
  C   C191      1.0  0.80919  0.14545  0.33923  1.0000
  C   C192      1.0  0.82016  0.13458  0.33608  1.0000
  C   C193      1.0  0.90740  0.14473  0.32812  1.0000
  C   C194      1.0  0.91897  0.16606  0.30520  1.0000
  C   C195      1.0  0.94084  0.17673  0.30401  1.0000
  C   C196      1.0  0.95199  0.16659  0.32757  1.0000
  C   C197      1.0  0.94046  0.14528  0.35048  1.0000
  C   C198      1.0  0.91860  0.13453  0.35014  1.0000
  C   C199      1.0  0.84177  0.07969  0.33124  1.0000
  C   C200      1.0  0.85219  0.06811  0.32645  1.0000
  C   C201      1.0  0.84108  0.04626  0.32406  1.0000
  C   C202      1.0  0.81914  0.03526  0.32550  1.0000
  C   C203      1.0  0.80860  0.04660  0.33260  1.0000
  C   C204      1.0  0.81974  0.06845  0.33495  1.0000
  H   H121      1.0  0.94854  0.19216  0.28739  1.0000
  H   H122      1.0  0.91161  0.17410  0.28803  1.0000
  H   H123      1.0  0.94784  0.13717  0.36592  1.0000
  H   H124      1.0  0.91099  0.11914  0.36738  1.0000
  H   H125      1.0  0.86806  0.07544  0.32355  1.0000
  H   H126      1.0  0.84917  0.03847  0.31893  1.0000
  H   H127      1.0  0.81144  0.07602  0.33906  1.0000
  H   H128      1.0  0.79270  0.03905  0.33539  1.0000
  H   H129      1.0  0.81174  0.11869  0.33776  1.0000
  H   H130      1.0  0.79330  0.13718  0.34372  1.0000
  H   H131      1.0  0.84999  0.19408  0.33113  1.0000
  H   H132      1.0  0.86862  0.17572  0.32616  1.0000
  C   C205      1.0  0.24683  0.52899  0.34285  1.0000
  N   N37       1.0  0.23650  0.50789  0.34138  1.0000
  C   C206      1.0  0.24673  0.49699  0.33435  1.0000
  N   N38       1.0  0.26787  0.50792  0.32728  1.0000
  C   C207      1.0  0.27874  0.52904  0.32617  1.0000
  N   N39       1.0  0.26782  0.53912  0.33481  1.0000
  C   C208      1.0  0.23570  0.47487  0.33504  1.0000
  C   C209      1.0  0.21420  0.46343  0.31496  1.0000
  C   C210      1.0  0.20333  0.44157  0.31492  1.0000
  C   C211      1.0  0.21346  0.43029  0.33648  1.0000
  C   C212      1.0  0.23484  0.44168  0.35821  1.0000
  C   C213      1.0  0.24581  0.46355  0.35645  1.0000
  C   C214      1.0  0.23663  0.54066  0.35267  1.0000
  C   C215      1.0  0.21793  0.53523  0.30702  1.0000
  C   C216      1.0  0.20964  0.54867  0.30782  1.0000
  C   C217      1.0  0.21919  0.56730  0.35796  1.0000
  C   C218      1.0  0.23733  0.57212  0.40699  1.0000
  C   C219      1.0  0.24601  0.55914  0.40365  1.0000
  C   C220      1.0  0.30070  0.54067  0.31674  1.0000
  C   C221      1.0  0.31028  0.56089  0.27950  1.0000
  C   C222      1.0  0.33200  0.57328  0.27547  1.0000
  C   C223      1.0  0.34488  0.56585  0.30850  1.0000
  C   C224      1.0  0.33550  0.54567  0.34544  1.0000
  C   C225      1.0  0.31366  0.53306  0.34769  1.0000
  H   H133      1.0  0.19686  0.54501  0.26951  1.0000
  H   H134      1.0  0.21109  0.52230  0.26732  1.0000
  H   H135      1.0  0.24532  0.58591  0.44064  1.0000
  H   H136      1.0  0.25963  0.56367  0.43713  1.0000
  H   H137      1.0  0.30156  0.56705  0.25624  1.0000
  H   H138      1.0  0.33830  0.58814  0.25149  1.0000
  H   H139      1.0  0.30734  0.51873  0.37698  1.0000
  H   H140      1.0  0.34448  0.54020  0.37253  1.0000
  H   H141      1.0  0.26127  0.47110  0.37249  1.0000
  H   H142      1.0  0.24281  0.43415  0.37381  1.0000
  H   H143      1.0  0.18777  0.43398  0.30071  1.0000
  H   H144      1.0  0.20621  0.47090  0.29884  1.0000
  C   C226      1.0  0.45708  0.70432  0.34297  1.0000
  N   N40       1.0  0.47818  0.71510  0.34160  1.0000
  C   C227      1.0  0.48908  0.73623  0.33461  1.0000
  N   N41       1.0  0.47816  0.74644  0.32746  1.0000
  C   C228      1.0  0.45703  0.73618  0.32623  1.0000
  N   N42       1.0  0.44695  0.71519  0.33484  1.0000
  C   C229      1.0  0.51120  0.74732  0.33537  1.0000
  C   C230      1.0  0.52264  0.73726  0.31533  1.0000
  C   C231      1.0  0.54451  0.74826  0.31523  1.0000
  C   C232      1.0  0.55578  0.76967  0.33673  1.0000
  C   C233      1.0  0.54438  0.77966  0.35849  1.0000
  C   C234      1.0  0.52252  0.76875  0.35676  1.0000
  C   C235      1.0  0.44541  0.68246  0.35276  1.0000
  C   C236      1.0  0.45083  0.66918  0.30712  1.0000
  C   C237      1.0  0.43742  0.64745  0.30809  1.0000
  C   C238      1.0  0.41879  0.63837  0.35819  1.0000
  C   C239      1.0  0.41393  0.65169  0.40701  1.0000
  C   C240      1.0  0.42691  0.67336  0.40367  1.0000
  C   C241      1.0  0.44541  0.74651  0.31671  1.0000
  C   C242      1.0  0.42526  0.73591  0.27884  1.0000
  C   C243      1.0  0.41282  0.74520  0.27495  1.0000
  C   C244      1.0  0.42017  0.76544  0.30862  1.0000
  C   C245      1.0  0.44028  0.77620  0.34617  1.0000
  C   C246      1.0  0.45293  0.76702  0.34830  1.0000
  H   H145      1.0  0.44111  0.63832  0.26998  1.0000
  H   H146      1.0  0.46381  0.67527  0.26772  1.0000
  H   H147      1.0  0.40014  0.64590  0.44062  1.0000
  H   H148      1.0  0.42237  0.68245  0.43703  1.0000
  H   H149      1.0  0.41916  0.72107  0.25514  1.0000
  H   H150      1.0  0.39800  0.73665  0.25055  1.0000
  H   H151      1.0  0.46720  0.77498  0.37818  1.0000
  H   H152      1.0  0.44567  0.79059  0.37391  1.0000
  H   H153      1.0  0.51496  0.77666  0.37275  1.0000
  H   H154      1.0  0.55191  0.79515  0.37402  1.0000
  H   H155      1.0  0.55210  0.74030  0.30101  1.0000
  H   H156      1.0  0.51519  0.72181  0.29917  1.0000
  C   C247      1.0  0.28167  0.73920  0.34238  1.0000
  N   N43       1.0  0.27091  0.74954  0.34111  1.0000
  C   C248      1.0  0.24978  0.73933  0.33404  1.0000
  N   N44       1.0  0.23956  0.71819  0.32676  1.0000
  C   C249      1.0  0.24981  0.70732  0.32544  1.0000
  N   N45       1.0  0.27080  0.71821  0.33413  1.0000
  C   C250      1.0  0.23871  0.75037  0.33493  1.0000
  C   C251      1.0  0.24877  0.77187  0.31487  1.0000
  C   C252      1.0  0.23778  0.78275  0.31497  1.0000
  C   C253      1.0  0.21639  0.77263  0.33666  1.0000
  C   C254      1.0  0.20639  0.75124  0.35839  1.0000
  C   C255      1.0  0.21728  0.74027  0.35648  1.0000
  C   C256      1.0  0.30354  0.74938  0.35240  1.0000
  C   C257      1.0  0.31684  0.76816  0.30734  1.0000
  C   C258      1.0  0.33857  0.77646  0.30842  1.0000
  C   C259      1.0  0.34761  0.76683  0.35827  1.0000
  C   C260      1.0  0.33426  0.74861  0.40675  1.0000
  C   C261      1.0  0.31260  0.73992  0.40311  1.0000
  C   C262      1.0  0.23947  0.68536  0.31589  1.0000
  C   C263      1.0  0.25006  0.67579  0.27820  1.0000
  C   C264      1.0  0.24076  0.65407  0.27423  1.0000
  C   C265      1.0  0.22049  0.64118  0.30773  1.0000
  C   C266      1.0  0.20974  0.65056  0.34513  1.0000
  C   C267      1.0  0.21893  0.67239  0.34726  1.0000
  H   H157      1.0  0.34773  0.78931  0.27054  1.0000
  H   H158      1.0  0.31078  0.77507  0.26788  1.0000
  H   H159      1.0  0.34003  0.74057  0.44022  1.0000
  H   H160      1.0  0.30348  0.72625  0.43621  1.0000
  H   H161      1.0  0.26492  0.68452  0.25464  1.0000
  H   H162      1.0  0.24930  0.64778  0.24998  1.0000
  H   H163      1.0  0.21097  0.67870  0.37703  1.0000
  H   H164      1.0  0.19533  0.64157  0.37267  1.0000
  H   H165      1.0  0.20937  0.72480  0.37251  1.0000
  H   H166      1.0  0.19090  0.74328  0.37407  1.0000
  H   H167      1.0  0.24576  0.79831  0.30076  1.0000
  H   H168      1.0  0.26422  0.77986  0.29865  1.0000
  C   C268      1.0  0.74367  0.45277  0.34318  1.0000
  N   N46       1.0  0.75398  0.47388  0.34174  1.0000
  C   C269      1.0  0.74374  0.48476  0.33465  1.0000
  N   N47       1.0  0.72261  0.47382  0.32745  1.0000
  C   C270      1.0  0.71175  0.45269  0.32628  1.0000
  N   N48       1.0  0.72267  0.44262  0.33500  1.0000
  C   C271      1.0  0.75476  0.50688  0.33536  1.0000
  C   C272      1.0  0.77625  0.51832  0.31517  1.0000
  C   C273      1.0  0.78710  0.54019  0.31509  1.0000
  C   C274      1.0  0.77697  0.55145  0.33676  1.0000
  C   C275      1.0  0.75559  0.54005  0.35866  1.0000
  C   C276      1.0  0.74464  0.51818  0.35690  1.0000
  C   C277      1.0  0.75388  0.44112  0.35302  1.0000
  C   C278      1.0  0.77248  0.44645  0.30680  1.0000
  C   C279      1.0  0.78076  0.43300  0.30759  1.0000
  C   C280      1.0  0.77125  0.41443  0.35809  1.0000
  C   C281      1.0  0.75319  0.40968  0.40755  1.0000
  C   C282      1.0  0.74454  0.42270  0.40438  1.0000
  C   C283      1.0  0.68980  0.44105  0.31663  1.0000
  C   C284      1.0  0.68027  0.42089  0.27886  1.0000
  C   C285      1.0  0.65855  0.40846  0.27470  1.0000
  C   C286      1.0  0.64563  0.41581  0.30804  1.0000
  C   C287      1.0  0.65497  0.43594  0.34549  1.0000
  C   C288      1.0  0.67680  0.44859  0.34787  1.0000
  H   H169      1.0  0.79348  0.43660  0.26898  1.0000
  H   H170      1.0  0.77931  0.45937  0.26702  1.0000
  H   H171      1.0  0.74521  0.39592  0.44142  1.0000
  H   H172      1.0  0.73096  0.41821  0.43811  1.0000
  H   H173      1.0  0.68903  0.41479  0.25538  1.0000
  H   H174      1.0  0.65229  0.39364  0.25035  1.0000
  H   H175      1.0  0.68309  0.46287  0.37763  1.0000
  H   H176      1.0  0.64595  0.44135  0.37291  1.0000
  H   H177      1.0  0.72918  0.51062  0.37301  1.0000
  H   H178      1.0  0.74762  0.54757  0.37433  1.0000
  H   H179      1.0  0.80266  0.54778  0.30078  1.0000
  H   H180      1.0  0.78424  0.51087  0.29892  1.0000
  C   C289      1.0  0.53334  0.27745  0.34266  1.0000
  N   N49       1.0  0.51223  0.26666  0.34139  1.0000
  C   C290      1.0  0.50134  0.24553  0.33446  1.0000
  N   N50       1.0  0.51228  0.23533  0.32728  1.0000
  C   C291      1.0  0.53340  0.24560  0.32598  1.0000
  N   N51       1.0  0.54348  0.26660  0.33452  1.0000
  C   C292      1.0  0.47922  0.23444  0.33529  1.0000
  C   C293      1.0  0.46778  0.24448  0.31512  1.0000
  C   C294      1.0  0.44591  0.23347  0.31514  1.0000
  C   C295      1.0  0.43465  0.21207  0.33686  1.0000
  C   C296      1.0  0.44606  0.20210  0.35873  1.0000
  C   C297      1.0  0.46792  0.21302  0.35690  1.0000
  C   C298      1.0  0.54499  0.29932  0.35241  1.0000
  C   C299      1.0  0.53951  0.31257  0.30698  1.0000
  C   C300      1.0  0.55292  0.33431  0.30775  1.0000
  C   C301      1.0  0.57158  0.34340  0.35767  1.0000
  C   C302      1.0  0.57647  0.33011  0.40651  1.0000
  C   C303      1.0  0.56351  0.30844  0.40317  1.0000
  C   C304      1.0  0.54503  0.23528  0.31641  1.0000
  C   C305      1.0  0.56520  0.24589  0.27871  1.0000
  C   C306      1.0  0.57761  0.23659  0.27457  1.0000
  C   C307      1.0  0.57025  0.21631  0.30791  1.0000
  C   C308      1.0  0.55012  0.20555  0.34538  1.0000
  C   C309      1.0  0.53749  0.21475  0.34771  1.0000
  H   H181      1.0  0.54923  0.34343  0.26959  1.0000
  H   H182      1.0  0.52655  0.30647  0.26746  1.0000
  H   H183      1.0  0.59028  0.33593  0.44003  1.0000
  H   H184      1.0  0.56808  0.29936  0.43651  1.0000
  H   H185      1.0  0.57132  0.26076  0.25522  1.0000
  H   H186      1.0  0.59244  0.24514  0.25031  1.0000
  H   H187      1.0  0.52319  0.20675  0.37738  1.0000
  H   H188      1.0  0.54470  0.19112  0.37277  1.0000
  H   H189      1.0  0.47548  0.20512  0.37302  1.0000
  H   H190      1.0  0.43854  0.18662  0.37445  1.0000
  H   H191      1.0  0.43831  0.24142  0.30084  1.0000
  H   H192      1.0  0.47522  0.25992  0.29885  1.0000
  C   C310      1.0  0.70854  0.24230  0.34227  1.0000
  N   N52       1.0  0.71932  0.23198  0.34121  1.0000
  C   C311      1.0  0.74046  0.24222  0.33433  1.0000
  N   N53       1.0  0.75066  0.26335  0.32700  1.0000
  C   C312      1.0  0.74038  0.27420  0.32545  1.0000
  N   N54       1.0  0.71939  0.26328  0.33395  1.0000
  C   C313      1.0  0.75155  0.23120  0.33536  1.0000
  C   C314      1.0  0.74152  0.20970  0.31526  1.0000
  C   C315      1.0  0.75253  0.19885  0.31534  1.0000
  C   C316      1.0  0.77393  0.20900  0.33711  1.0000
  C   C317      1.0  0.78389  0.23037  0.35898  1.0000
  C   C318      1.0  0.77297  0.24132  0.35704  1.0000
  C   C319      1.0  0.68666  0.23209  0.35202  1.0000
  C   C320      1.0  0.67341  0.21332  0.30679  1.0000
  C   C321      1.0  0.65167  0.20496  0.30774  1.0000
  C   C322      1.0  0.64259  0.21457  0.35746  1.0000
  C   C323      1.0  0.65588  0.23281  0.40591  1.0000
  C   C324      1.0  0.67755  0.24152  0.40254  1.0000
  C   C325      1.0  0.75070  0.29615  0.31578  1.0000
  C   C326      1.0  0.74012  0.30567  0.27740  1.0000
  C   C327      1.0  0.74938  0.32738  0.27341  1.0000
  C   C328      1.0  0.76958  0.34033  0.30748  1.0000
  C   C329      1.0  0.78031  0.33099  0.34553  1.0000
  C   C330      1.0  0.77116  0.30916  0.34783  1.0000
  H   H193      1.0  0.64254  0.19209  0.26992  1.0000
  H   H194      1.0  0.67951  0.20639  0.26769  1.0000
  H   H195      1.0  0.65006  0.24083  0.43923  1.0000
  H   H196      1.0  0.68663  0.25521  0.43561  1.0000
  H   H197      1.0  0.72531  0.29690  0.25341  1.0000
  H   H198      1.0  0.74084  0.33363  0.24868  1.0000
  H   H199      1.0  0.77911  0.30288  0.37798  1.0000
  H   H200      1.0  0.79466  0.34001  0.37355  1.0000
  H   H201      1.0  0.78086  0.25678  0.37310  1.0000
  H   H202      1.0  0.79937  0.23835  0.37469  1.0000
  H   H203      1.0  0.74459  0.18330  0.30104  1.0000
  H   H204      1.0  0.72608  0.20170  0.29889  1.0000
  C   C331      1.0  0.18260  0.36470  0.34325  1.0000
  C   C332      1.0  0.20263  0.40818  0.33726  1.0000
  N   N55       1.0  0.20740  0.39791  0.39957  1.0000
  C   C333      1.0  0.19834  0.37688  0.40637  1.0000
  C   C334      1.0  0.20439  0.36957  0.47889  1.0000
  O   O25       1.0  0.22261  0.37405  0.47958  1.0000
  O   O26       1.0  0.19123  0.35097  0.51396  1.0000
  C   C335      1.0  0.17777  0.35144  0.58181  1.0000
  C   C336      1.0  0.16308  0.32905  0.61385  1.0000
  H   H205      1.0  0.16832  0.35779  0.55575  1.0000
  H   H206      1.0  0.18684  0.36084  0.63864  1.0000
  H   H207      1.0  0.15377  0.31941  0.55824  1.0000
  H   H208      1.0  0.15266  0.32902  0.66523  1.0000
  H   H209      1.0  0.17206  0.32240  0.64158  1.0000
  C   C337      1.0  0.62137  0.80444  0.34331  1.0000
  C   C338      1.0  0.57789  0.78097  0.33745  1.0000
  N   N56       1.0  0.58816  0.79602  0.39970  1.0000
  C   C339      1.0  0.60919  0.80800  0.40641  1.0000
  C   C340      1.0  0.61650  0.82135  0.47898  1.0000
  O   O27       1.0  0.61203  0.83510  0.47971  1.0000
  O   O28       1.0  0.63510  0.82678  0.51406  1.0000
  C   C341      1.0  0.63461  0.81283  0.58189  1.0000
  C   C342      1.0  0.65699  0.82051  0.61394  1.0000
  H   H210      1.0  0.62825  0.79703  0.55580  1.0000
  H   H211      1.0  0.62521  0.81250  0.63871  1.0000
  H   H212      1.0  0.66663  0.82084  0.55833  1.0000
  H   H213      1.0  0.65702  0.81012  0.66531  1.0000
  H   H214      1.0  0.66365  0.83614  0.64169  1.0000
  C   C343      1.0  0.18168  0.80351  0.34379  1.0000
  C   C344      1.0  0.20511  0.78346  0.33756  1.0000
  N   N57       1.0  0.19011  0.77871  0.40000  1.0000
  C   C345      1.0  0.17814  0.78778  0.40689  1.0000
  C   C346      1.0  0.16487  0.78178  0.47957  1.0000
  O   O29       1.0  0.15111  0.76356  0.48131  1.0000
  O   O30       1.0  0.15916  0.79476  0.51453  1.0000
  C   C347      1.0  0.17312  0.80852  0.58159  1.0000
  C   C348      1.0  0.16514  0.82299  0.61347  1.0000
  H   H215      1.0  0.18883  0.81813  0.55482  1.0000
  H   H216      1.0  0.17377  0.79968  0.63865  1.0000
  H   H217      1.0  0.16449  0.83207  0.55763  1.0000
  H   H218      1.0  0.17553  0.83362  0.66428  1.0000
  H   H219      1.0  0.14959  0.81385  0.64188  1.0000
  C   C349      1.0  0.80782  0.61704  0.34369  1.0000
  C   C350      1.0  0.78779  0.57356  0.33758  1.0000
  N   N58       1.0  0.78306  0.58382  0.40009  1.0000
  C   C351      1.0  0.79214  0.60484  0.40698  1.0000
  C   C352      1.0  0.78613  0.61215  0.47955  1.0000
  O   O31       1.0  0.76792  0.60771  0.48111  1.0000
  O   O32       1.0  0.79911  0.63083  0.51452  1.0000
  C   C353      1.0  0.81287  0.63062  0.58161  1.0000
  C   C354      1.0  0.82734  0.65307  0.61349  1.0000
  H   H220      1.0  0.82247  0.62451  0.55486  1.0000
  H   H221      1.0  0.80402  0.62113  0.63865  1.0000
  H   H222      1.0  0.83643  0.66280  0.55766  1.0000
  H   H223      1.0  0.83797  0.65330  0.66432  1.0000
  H   H224      1.0  0.81821  0.65949  0.64188  1.0000
  C   C355      1.0  0.36906  0.17733  0.34383  1.0000
  C   C356      1.0  0.41254  0.20078  0.33769  1.0000
  N   N59       1.0  0.40228  0.18579  0.40019  1.0000
  C   C357      1.0  0.38126  0.17383  0.40708  1.0000
  C   C358      1.0  0.37396  0.16052  0.47963  1.0000
  O   O33       1.0  0.37840  0.14674  0.48117  1.0000
  O   O34       1.0  0.35527  0.15481  0.51461  1.0000
  C   C359      1.0  0.35548  0.16877  0.58172  1.0000
  C   C360      1.0  0.33303  0.16078  0.61360  1.0000
  H   H225      1.0  0.36158  0.18448  0.55500  1.0000
  H   H226      1.0  0.36497  0.16940  0.63877  1.0000
  H   H227      1.0  0.32330  0.16015  0.55776  1.0000
  H   H228      1.0  0.33279  0.17117  0.66444  1.0000
  H   H229      1.0  0.32661  0.14523  0.64196  1.0000
  C   C361      1.0  0.80871  0.17819  0.34403  1.0000
  C   C362      1.0  0.78523  0.19819  0.33794  1.0000
  N   N60       1.0  0.80021  0.20292  0.40048  1.0000
  C   C363      1.0  0.81218  0.19387  0.40735  1.0000
  C   C364      1.0  0.82548  0.19987  0.47994  1.0000
  O   O35       1.0  0.83923  0.21810  0.48162  1.0000
  O   O36       1.0  0.83123  0.18691  0.51481  1.0000
  C   C365      1.0  0.81727  0.17312  0.58183  1.0000
  C   C366      1.0  0.82530  0.15868  0.61358  1.0000
  H   H230      1.0  0.80157  0.16350  0.55506  1.0000
  H   H231      1.0  0.81661  0.18194  0.63895  1.0000
  H   H232      1.0  0.82596  0.14961  0.55768  1.0000
  H   H233      1.0  0.81491  0.14802  0.66436  1.0000
  H   H234      1.0  0.84084  0.16782  0.64199  1.0000
  N   N61       1.0  0.18975  0.17332  0.38300  1.0000
  C   C367      1.0  0.17825  0.18280  0.38831  1.0000
  H   H235      1.0  0.16752  0.17860  0.43814  1.0000
  H   H236      1.0  0.21071  0.14822  0.66525  1.0000
  N   N62       1.0  0.81278  0.00295  0.38278  1.0000
  C   C368      1.0  0.80330  0.98197  0.38808  1.0000
  H   H237      1.0  0.80750  0.97544  0.43790  1.0000
  H   H238      1.0  0.83781  0.04901  0.66495  1.0000
  N   N63       1.0  0.98312  0.79635  0.38282  1.0000
  C   C369      1.0  0.00410  0.80787  0.38809  1.0000
  H   H239      1.0  0.01063  0.81857  0.43800  1.0000
  H   H240      1.0  0.93706  0.77530  0.66501  1.0000
  N   N64       1.0  0.80068  0.80843  0.38280  1.0000
  C   C370      1.0  0.81220  0.79897  0.38808  1.0000
  H   H241      1.0  0.82291  0.80315  0.43798  1.0000
  H   H242      1.0  0.77967  0.83345  0.66500  1.0000
  N   N65       1.0  0.17764  0.97878  0.38274  1.0000
  C   C371      1.0  0.18712  0.99976  0.38814  1.0000
  H   H243      1.0  0.18295  0.00628  0.43812  1.0000
  H   H244      1.0  0.15249  0.93233  0.66583  1.0000
  N   N66       1.0  0.00730  0.18539  0.38273  1.0000
  C   C372      1.0  0.98633  0.17389  0.38813  1.0000
  H   H245      1.0  0.97981  0.16321  0.43817  1.0000
  H   H246      1.0  0.05373  0.20669  0.66559  1.0000
  N   N67       1.0  0.21433  0.61340  0.39998  1.0000
  C   C373      1.0  0.21358  0.59523  0.41899  1.0000
  H   H247      1.0  0.21558  0.59216  0.48348  1.0000
  N   N68       1.0  0.37272  0.58742  0.40044  1.0000
  C   C374      1.0  0.39090  0.60483  0.41943  1.0000
  H   H248      1.0  0.39399  0.60991  0.48391  1.0000
  N   N69       1.0  0.39851  0.77161  0.40091  1.0000
  C   C375      1.0  0.38110  0.77240  0.41975  1.0000
  H   H249      1.0  0.37602  0.77047  0.48420  1.0000
  N   N70       1.0  0.77597  0.36824  0.39986  1.0000
  C   C376      1.0  0.77684  0.38647  0.41886  1.0000
  H   H250      1.0  0.77511  0.38970  0.48345  1.0000
  N   N71       1.0  0.61764  0.39432  0.39996  1.0000
  C   C377      1.0  0.59936  0.37699  0.41887  1.0000
  H   H251      1.0  0.59619  0.37194  0.48334  1.0000
  N   N72       1.0  0.59171  0.20977  0.39994  1.0000
  C   C378      1.0  0.60900  0.20876  0.41881  1.0000
  H   H252      1.0  0.61406  0.21062  0.48327  1.0000
