data_image0
_chemical_formula_structural       C3HCH3C3HCH3C3HCH3C3HCH3C3HCH3C3HCH3C3HCH3C3HCH3C3HCH3C3HCH3C3HCH3C3HCH3C3HCH3C3HCH3C3HCH3C3HCH3C3HCH3C3HCH3CNCNCNCNCNCNCNCNCNCNCNCNCNCNCNCNCNCNCNCNCNCNCNCNCNCNCNCNCNCNCNCNCNCNCNCNC3HCH3C3HCH3C3HCH3C3HCH3C3HCH3C3HCH3C3HCH3C3HCH3C3HCH3C3HCH3C3HCH3C3HCH3C3HCH3C3HCH3C3HCH3C3HCH3C3HCH3C3HCH3C3HCH3C3HCH3C3HCH3C3HCH3C3HCH3C3HCH3C3HCH3C3HCH3C3HCH3C3HCH3C3HCH3C3HCH3C3HCH3C3HCH3C3HCH3C3HCH3C3HCH3C3HCH3CNCNCNCNCNCNCNCNCNCNCNCNCNCNCNCNCNCNCNCNCNCNCNCNCNCNCNCNCNCNCNCNCNCNCNCNC3HCH3C3HCH3C3HCH3C3HCH3C3HCH3C3HCH3C3HCH3C3HCH3C3HCH3C3HCH3C3HCH3C3HCH3C3HCH3C3HCH3C3HCH3C3HCH3C3HCH3C3HCH3
_chemical_formula_sum              "C360 H288 N72"
_cell_length_a       42.5512
_cell_length_b       55.1662
_cell_length_c       14.8898
_cell_angle_alpha    90
_cell_angle_beta     90
_cell_angle_gamma    90

_space_group_name_H-M_alt    "P 1"
_space_group_IT_number       1

loop_
  _space_group_symop_operation_xyz
  'x, y, z'

loop_
  _atom_site_type_symbol
  _atom_site_label
  _atom_site_symmetry_multiplicity
  _atom_site_fract_x
  _atom_site_fract_y
  _atom_site_fract_z
  _atom_site_occupancy
  C   C1        1.0  0.21914  0.17213  0.34976  1.0000
  C   C2        1.0  0.23876  0.15203  0.32735  1.0000
  C   C3        1.0  0.27185  0.15363  0.34078  1.0000
  H   H1        1.0  0.28576  0.13972  0.31857  1.0000
  C   C4        1.0  0.22604  0.12998  0.28325  1.0000
  H   H2        1.0  0.21219  0.13489  0.22424  1.0000
  H   H3        1.0  0.21137  0.12040  0.33131  1.0000
  H   H4        1.0  0.24433  0.11744  0.26117  1.0000
  C   C5        1.0  0.28814  0.83532  0.34899  1.0000
  C   C6        1.0  0.26856  0.85556  0.32790  1.0000
  C   C7        1.0  0.23545  0.85395  0.34119  1.0000
  H   H5        1.0  0.22159  0.86798  0.31986  1.0000
  C   C8        1.0  0.28138  0.87785  0.28575  1.0000
  H   H6        1.0  0.29492  0.87328  0.22583  1.0000
  H   H7        1.0  0.29640  0.88697  0.33430  1.0000
  H   H8        1.0  0.26317  0.89069  0.26564  1.0000
  C   C9        1.0  0.46915  0.67224  0.35571  1.0000
  C   C10       1.0  0.48817  0.65171  0.33395  1.0000
  C   C11       1.0  0.02150  0.65330  0.34022  1.0000
  H   H9        1.0  0.03480  0.63894  0.31890  1.0000
  C   C12       1.0  0.47441  0.62876  0.29993  1.0000
  H   H10       1.0  0.45993  0.63227  0.24086  1.0000
  H   H11       1.0  0.46019  0.62076  0.35299  1.0000
  H   H12       1.0  0.49208  0.61536  0.28080  1.0000
  C   C13       1.0  0.03809  0.33520  0.35405  1.0000
  C   C14       1.0  0.01905  0.35575  0.33254  1.0000
  C   C15       1.0  0.48572  0.35420  0.33940  1.0000
  H   H13       1.0  0.47241  0.36857  0.31826  1.0000
  C   C16       1.0  0.03280  0.37866  0.29810  1.0000
  H   H14       1.0  0.04700  0.37508  0.23853  1.0000
  H   H15       1.0  0.04731  0.38662  0.35061  1.0000
  H   H16       1.0  0.01512  0.39212  0.27959  1.0000
  C   C17       1.0  0.05661  0.10879  0.29373  1.0000
  C   C18       1.0  0.05383  0.13293  0.26034  1.0000
  C   C19       1.0  0.07961  0.14894  0.26761  1.0000
  H   H17       1.0  0.07635  0.16617  0.24369  1.0000
  C   C20       1.0  0.02637  0.14201  0.20744  1.0000
  H   H18       1.0  0.01111  0.12751  0.18371  1.0000
  H   H19       1.0  0.03437  0.15152  0.14727  1.0000
  H   H20       1.0  0.01264  0.15461  0.24794  1.0000
  C   C21       1.0  0.45113  0.89811  0.28933  1.0000
  C   C22       1.0  0.45404  0.87366  0.25927  1.0000
  C   C23       1.0  0.42808  0.85783  0.26667  1.0000
  H   H21       1.0  0.43149  0.84038  0.24539  1.0000
  C   C24       1.0  0.48192  0.86400  0.20969  1.0000
  H   H22       1.0  0.49730  0.87824  0.18443  1.0000
  H   H23       1.0  0.47444  0.85372  0.15072  1.0000
  H   H24       1.0  0.49538  0.85196  0.25317  1.0000
  C   C25       1.0  0.39646  0.14271  0.36547  1.0000
  C   C26       1.0  0.39172  0.11771  0.34328  1.0000
  C   C27       1.0  0.41774  0.10136  0.34228  1.0000
  H   H25       1.0  0.41440  0.08404  0.31954  1.0000
  C   C28       1.0  0.36048  0.10836  0.31452  1.0000
  H   H26       1.0  0.35200  0.11868  0.25689  1.0000
  H   H27       1.0  0.34374  0.11001  0.36967  1.0000
  H   H28       1.0  0.36106  0.08929  0.29489  1.0000
  C   C29       1.0  0.11088  0.86501  0.36606  1.0000
  C   C30       1.0  0.11564  0.88992  0.34262  1.0000
  C   C31       1.0  0.08964  0.90629  0.34125  1.0000
  H   H29       1.0  0.09293  0.92348  0.31714  1.0000
  C   C32       1.0  0.14680  0.89910  0.31247  1.0000
  H   H30       1.0  0.15504  0.88855  0.25507  1.0000
  H   H31       1.0  0.16373  0.89759  0.36718  1.0000
  H   H32       1.0  0.14622  0.91810  0.29195  1.0000
  C   C33       1.0  0.30654  0.60898  0.29356  1.0000
  C   C34       1.0  0.30375  0.63343  0.26331  1.0000
  C   C35       1.0  0.32946  0.64941  0.27319  1.0000
  H   H33       1.0  0.32618  0.66690  0.25206  1.0000
  C   C36       1.0  0.27632  0.64300  0.21151  1.0000
  H   H34       1.0  0.26094  0.62873  0.18642  1.0000
  H   H35       1.0  0.28439  0.65290  0.15229  1.0000
  H   H36       1.0  0.26270  0.65536  0.25325  1.0000
  C   C37       1.0  0.20106  0.39800  0.28947  1.0000
  C   C38       1.0  0.20395  0.37335  0.26172  1.0000
  C   C39       1.0  0.17809  0.35752  0.27158  1.0000
  H   H37       1.0  0.18146  0.33989  0.25225  1.0000
  C   C40       1.0  0.23169  0.36337  0.21241  1.0000
  H   H38       1.0  0.24726  0.37743  0.18666  1.0000
  H   H39       1.0  0.22400  0.35303  0.15380  1.0000
  H   H40       1.0  0.24500  0.35132  0.25616  1.0000
  C   C41       1.0  0.14647  0.64235  0.36045  1.0000
  C   C42       1.0  0.14175  0.61725  0.33996  1.0000
  C   C43       1.0  0.16778  0.60094  0.34103  1.0000
  H   H41       1.0  0.16463  0.58357  0.31855  1.0000
  C   C44       1.0  0.11074  0.60781  0.30958  1.0000
  H   H42       1.0  0.10281  0.61784  0.25060  1.0000
  H   H43       1.0  0.09353  0.60978  0.36336  1.0000
  H   H44       1.0  0.11142  0.58864  0.29139  1.0000
  C   C45       1.0  0.36082  0.36535  0.36162  1.0000
  C   C46       1.0  0.36554  0.39037  0.33998  1.0000
  C   C47       1.0  0.33951  0.40669  0.34047  1.0000
  H   H45       1.0  0.34263  0.42396  0.31683  1.0000
  C   C48       1.0  0.39650  0.39969  0.30873  1.0000
  H   H46       1.0  0.40430  0.38949  0.25001  1.0000
  H   H47       1.0  0.41382  0.39785  0.36231  1.0000
  H   H48       1.0  0.39583  0.41882  0.28984  1.0000
  C   C49       1.0  0.13598  0.22815  0.30763  1.0000
  C   C50       1.0  0.15045  0.24574  0.25107  1.0000
  C   C51       1.0  0.14325  0.27062  0.26332  1.0000
  H   H49       1.0  0.15282  0.28300  0.21986  1.0000
  C   C52       1.0  0.17206  0.23950  0.17581  1.0000
  H   H50       1.0  0.17453  0.22006  0.16502  1.0000
  H   H51       1.0  0.19533  0.24698  0.18932  1.0000
  H   H52       1.0  0.16323  0.24727  0.11325  1.0000
  C   C53       1.0  0.37111  0.77912  0.30750  1.0000
  C   C54       1.0  0.35655  0.76143  0.25158  1.0000
  C   C55       1.0  0.36376  0.73657  0.26440  1.0000
  H   H53       1.0  0.35414  0.72410  0.22135  1.0000
  C   C56       1.0  0.33484  0.76753  0.17639  1.0000
  H   H54       1.0  0.33235  0.78695  0.16514  1.0000
  H   H55       1.0  0.31159  0.76007  0.19034  1.0000
  H   H56       1.0  0.34359  0.75964  0.11394  1.0000
  C   C57       1.0  0.38414  0.27917  0.35362  1.0000
  C   C58       1.0  0.39320  0.26244  0.28559  1.0000
  C   C59       1.0  0.38705  0.23749  0.29858  1.0000
  H   H57       1.0  0.39238  0.22556  0.24797  1.0000
  C   C60       1.0  0.40793  0.26966  0.19884  1.0000
  H   H58       1.0  0.41002  0.28922  0.19055  1.0000
  H   H59       1.0  0.39381  0.26291  0.14294  1.0000
  H   H60       1.0  0.43144  0.26182  0.19423  1.0000
  C   C61       1.0  0.12286  0.72849  0.35245  1.0000
  C   C62       1.0  0.11365  0.74529  0.28485  1.0000
  C   C63       1.0  0.11981  0.77024  0.29809  1.0000
  H   H61       1.0  0.11441  0.78222  0.24771  1.0000
  C   C64       1.0  0.09875  0.73816  0.19822  1.0000
  H   H62       1.0  0.09663  0.71861  0.18973  1.0000
  H   H63       1.0  0.11277  0.74496  0.14220  1.0000
  H   H64       1.0  0.07524  0.74601  0.19407  1.0000
  C   C65       1.0  0.50358  0.97764  0.32055  1.0000
  C   C66       1.0  0.48323  0.99183  0.26505  1.0000
  C   C67       1.0  0.48353  0.01751  0.27226  1.0000
  H   H65       1.0  0.46910  0.02746  0.23128  1.0000
  C   C68       1.0  0.46247  0.98076  0.19557  1.0000
  H   H66       1.0  0.47606  0.96844  0.15327  1.0000
  H   H67       1.0  0.95169  0.99417  0.15130  1.0000
  H   H68       1.0  0.44347  0.97076  0.22785  1.0000
  C   C69       1.0  0.25347  0.47765  0.31908  1.0000
  C   C70       1.0  0.23310  0.49183  0.26361  1.0000
  C   C71       1.0  0.23352  0.51752  0.27049  1.0000
  H   H69       1.0  0.21906  0.52746  0.22959  1.0000
  C   C72       1.0  0.21219  0.48073  0.19460  1.0000
  H   H70       1.0  0.22566  0.46837  0.15217  1.0000
  H   H71       1.0  0.20133  0.49412  0.15039  1.0000
  H   H72       1.0  0.19324  0.47077  0.22729  1.0000
  C   C73       1.0  0.18631  0.17459  0.33200  1.0000
  N   N1        1.0  0.16470  0.15642  0.32160  1.0000
  C   C74       1.0  0.13328  0.16055  0.30696  1.0000
  N   N2        1.0  0.12445  0.18442  0.30160  1.0000
  C   C75       1.0  0.14478  0.20325  0.30811  1.0000
  N   N3        1.0  0.17497  0.19757  0.32479  1.0000
  C   C76       1.0  0.32096  0.83283  0.33084  1.0000
  N   N4        1.0  0.34264  0.85093  0.31931  1.0000
  C   C77       1.0  0.37404  0.84671  0.30433  1.0000
  N   N5        1.0  0.38274  0.82280  0.29984  1.0000
  C   C78       1.0  0.36238  0.80402  0.30727  1.0000
  N   N6        1.0  0.33225  0.80982  0.32415  1.0000
  C   C79       1.0  0.31998  0.17656  0.37608  1.0000
  N   N7        1.0  0.34117  0.15796  0.36675  1.0000
  C   C80       1.0  0.37314  0.16145  0.36671  1.0000
  N   N8        1.0  0.38294  0.18506  0.37134  1.0000
  C   C81       1.0  0.36320  0.20412  0.37887  1.0000
  N   N9        1.0  0.33229  0.19916  0.38044  1.0000
  C   C82       1.0  0.18723  0.83097  0.37548  1.0000
  N   N10       1.0  0.16610  0.84963  0.36667  1.0000
  C   C83       1.0  0.13411  0.84620  0.36698  1.0000
  N   N11       1.0  0.12419  0.82262  0.37150  1.0000
  C   C84       1.0  0.14388  0.80351  0.37845  1.0000
  N   N12       1.0  0.17481  0.80840  0.37968  1.0000
  C   C85       1.0  0.43590  0.67459  0.34366  1.0000
  N   N13       1.0  0.41436  0.65655  0.32953  1.0000
  C   C86       1.0  0.38287  0.66069  0.31640  1.0000
  N   N14       1.0  0.37372  0.68454  0.31757  1.0000
  C   C87       1.0  0.39349  0.70341  0.33268  1.0000
  N   N15       1.0  0.42393  0.69745  0.34364  1.0000
  C   C88       1.0  0.07132  0.33282  0.34160  1.0000
  N   N16       1.0  0.09291  0.35081  0.32672  1.0000
  C   C89       1.0  0.12440  0.34658  0.31350  1.0000
  N   N17       1.0  0.13345  0.32272  0.31536  1.0000
  C   C90       1.0  0.11365  0.30392  0.33108  1.0000
  N   N18       1.0  0.08324  0.30994  0.34209  1.0000
  C   C91       1.0  0.07041  0.67653  0.35992  1.0000
  N   N19       1.0  0.09142  0.65770  0.35700  1.0000
  C   C92       1.0  0.12338  0.66119  0.35642  1.0000
  N   N20       1.0  0.13339  0.68478  0.35472  1.0000
  C   C93       1.0  0.11359  0.70391  0.35067  1.0000
  N   N21       1.0  0.08273  0.69908  0.35493  1.0000
  C   C94       1.0  0.43679  0.33104  0.36015  1.0000
  N   N22       1.0  0.41582  0.34990  0.35749  1.0000
  C   C95       1.0  0.38384  0.34647  0.35759  1.0000
  N   N23       1.0  0.37374  0.32289  0.35630  1.0000
  C   C96       1.0  0.39349  0.30373  0.35217  1.0000
  N   N24       1.0  0.42438  0.30852  0.35561  1.0000
  C   C97       1.0  0.03012  0.09357  0.30854  1.0000
  N   N25       1.0  0.03002  0.06888  0.31472  1.0000
  C   C98       1.0  0.00303  0.05605  0.33083  1.0000
  N   N26       1.0  0.47560  0.06863  0.34418  1.0000
  C   C99       1.0  0.47501  0.09339  0.34659  1.0000
  N   N27       1.0  0.00246  0.10454  0.32671  1.0000
  C   C100      1.0  0.47759  0.91340  0.30360  1.0000
  N   N28       1.0  0.47774  0.93810  0.30621  1.0000
  C   C101      1.0  0.50443  0.95145  0.32070  1.0000
  N   N29       1.0  0.03160  0.93885  0.33880  1.0000
  C   C102      1.0  0.03238  0.91413  0.34452  1.0000
  N   N30       1.0  0.50515  0.90268  0.32454  1.0000
  C   C103      1.0  0.28007  0.59369  0.30765  1.0000
  N   N31       1.0  0.28003  0.56898  0.31288  1.0000
  C   C104      1.0  0.25312  0.55605  0.32888  1.0000
  N   N32       1.0  0.22568  0.56854  0.34302  1.0000
  C   C105      1.0  0.22502  0.59328  0.34630  1.0000
  N   N33       1.0  0.25240  0.60456  0.32655  1.0000
  C   C106      1.0  0.22751  0.41333  0.30322  1.0000
  N   N34       1.0  0.22762  0.43805  0.30511  1.0000
  C   C107      1.0  0.25427  0.45146  0.31951  1.0000
  N   N35       1.0  0.28143  0.43891  0.33802  1.0000
  C   C108      1.0  0.28226  0.41421  0.34427  1.0000
  N   N36       1.0  0.25507  0.40268  0.32455  1.0000
  C   C109      1.0  0.28661  0.17452  0.37677  1.0000
  C   C110      1.0  0.26652  0.19332  0.40966  1.0000
  C   C111      1.0  0.23398  0.19187  0.39360  1.0000
  H   H73       1.0  0.22040  0.20576  0.41761  1.0000
  C   C112      1.0  0.27719  0.21396  0.46723  1.0000
  H   H74       1.0  0.29335  0.20731  0.51845  1.0000
  H   H75       1.0  0.25805  0.22295  0.50308  1.0000
  H   H76       1.0  0.28867  0.22772  0.42611  1.0000
  C   C113      1.0  0.22062  0.83295  0.37608  1.0000
  C   C114      1.0  0.24068  0.81403  0.40813  1.0000
  C   C115      1.0  0.27322  0.81549  0.39205  1.0000
  H   H77       1.0  0.28673  0.80148  0.41546  1.0000
  C   C116      1.0  0.22999  0.79322  0.46486  1.0000
  H   H78       1.0  0.21394  0.79975  0.51658  1.0000
  H   H79       1.0  0.24912  0.78405  0.50008  1.0000
  H   H80       1.0  0.21838  0.77963  0.42328  1.0000
  C   C117      1.0  0.03717  0.67475  0.36719  1.0000
  C   C118      1.0  0.01818  0.69421  0.39998  1.0000
  C   C119      1.0  0.48530  0.69251  0.39209  1.0000
  H   H81       1.0  0.47263  0.70690  0.41566  1.0000
  C   C120      1.0  0.03054  0.71594  0.44908  1.0000
  H   H82       1.0  0.04866  0.71049  0.49688  1.0000
  H   H83       1.0  0.01257  0.72542  0.48797  1.0000
  H   H84       1.0  0.04026  0.72897  0.40148  1.0000
  C   C121      1.0  0.47005  0.33278  0.36669  1.0000
  C   C122      1.0  0.48908  0.31330  0.39915  1.0000
  C   C123      1.0  0.02195  0.31496  0.39076  1.0000
  H   H85       1.0  0.03463  0.30056  0.41418  1.0000
  C   C124      1.0  0.47679  0.29156  0.44840  1.0000
  H   H86       1.0  0.45881  0.29702  0.49662  1.0000
  H   H87       1.0  0.49483  0.28202  0.48683  1.0000
  H   H88       1.0  0.46691  0.27857  0.40093  1.0000
  C   C125      1.0  0.10965  0.14208  0.30061  1.0000
  C   C126      1.0  0.11316  0.11704  0.32425  1.0000
  C   C127      1.0  0.08689  0.10105  0.32035  1.0000
  H   H89       1.0  0.08939  0.08368  0.34354  1.0000
  C   C128      1.0  0.14330  0.10682  0.35758  1.0000
  H   H90       1.0  0.15165  0.11710  0.41549  1.0000
  H   H91       1.0  0.16046  0.10763  0.30351  1.0000
  H   H92       1.0  0.14155  0.08788  0.37840  1.0000
  C   C129      1.0  0.39781  0.86506  0.29683  1.0000
  C   C130      1.0  0.39426  0.89035  0.31666  1.0000
  C   C131      1.0  0.42065  0.90620  0.31244  1.0000
  H   H93       1.0  0.41804  0.92381  0.33290  1.0000
  C   C132      1.0  0.36384  0.90100  0.34576  1.0000
  H   H94       1.0  0.35511  0.89163  0.40528  1.0000
  H   H95       1.0  0.34705  0.89931  0.29094  1.0000
  H   H96       1.0  0.36539  0.92024  0.36253  1.0000
  C   C133      1.0  0.44874  0.10870  0.36384  1.0000
  C   C134      1.0  0.45265  0.13273  0.39735  1.0000
  C   C135      1.0  0.42730  0.14914  0.39323  1.0000
  H   H97       1.0  0.43151  0.16624  0.41710  1.0000
  C   C136      1.0  0.48091  0.14121  0.44841  1.0000
  H   H98       1.0  0.49503  0.12624  0.47408  1.0000
  H   H99       1.0  0.47399  0.15176  0.50730  1.0000
  H   H100      1.0  0.49548  0.15265  0.40566  1.0000
  C   C137      1.0  0.05869  0.89906  0.36382  1.0000
  C   C138      1.0  0.05486  0.87520  0.39911  1.0000
  C   C139      1.0  0.08015  0.85874  0.39522  1.0000
  H   H101      1.0  0.07602  0.84174  0.42030  1.0000
  C   C140      1.0  0.02673  0.86694  0.45116  1.0000
  H   H102      1.0  0.01191  0.88191  0.47328  1.0000
  H   H103      1.0  0.03394  0.85751  0.51231  1.0000
  H   H104      1.0  0.01276  0.85450  0.41067  1.0000
  C   C141      1.0  0.35948  0.64221  0.30528  1.0000
  C   C142      1.0  0.36316  0.61688  0.32392  1.0000
  C   C143      1.0  0.33690  0.60094  0.31806  1.0000
  H   H105      1.0  0.33948  0.58333  0.33848  1.0000
  C   C144      1.0  0.39341  0.60627  0.35454  1.0000
  H   H106      1.0  0.40174  0.61563  0.41457  1.0000
  H   H107      1.0  0.41050  0.60803  0.30055  1.0000
  H   H108      1.0  0.39184  0.58702  0.37107  1.0000
  C   C145      1.0  0.14791  0.36495  0.30166  1.0000
  C   C146      1.0  0.14422  0.39042  0.31775  1.0000
  C   C147      1.0  0.17057  0.40626  0.31155  1.0000
  H   H109      1.0  0.16794  0.42403  0.33010  1.0000
  C   C148      1.0  0.11383  0.40128  0.34589  1.0000
  H   H110      1.0  0.10532  0.39251  0.40690  1.0000
  H   H111      1.0  0.09693  0.39896  0.29170  1.0000
  H   H112      1.0  0.11531  0.42069  0.35982  1.0000
  C   C149      1.0  0.19863  0.60843  0.36349  1.0000
  C   C150      1.0  0.20227  0.63252  0.39677  1.0000
  C   C151      1.0  0.17700  0.64893  0.39021  1.0000
  H   H113      1.0  0.18090  0.66613  0.41364  1.0000
  C   C152      1.0  0.23009  0.64114  0.44932  1.0000
  H   H114      1.0  0.24498  0.62637  0.47277  1.0000
  H   H115      1.0  0.22248  0.65076  0.50968  1.0000
  H   H116      1.0  0.24410  0.65353  0.40873  1.0000
  C   C153      1.0  0.30868  0.39926  0.36344  1.0000
  C   C154      1.0  0.30510  0.37533  0.39825  1.0000
  C   C155      1.0  0.33036  0.35890  0.39233  1.0000
  H   H117      1.0  0.32650  0.34179  0.41670  1.0000
  C   C156      1.0  0.27727  0.36690  0.45114  1.0000
  H   H118      1.0  0.26211  0.38172  0.47272  1.0000
  H   H119      1.0  0.28491  0.35782  0.51260  1.0000
  H   H120      1.0  0.26352  0.35409  0.41163  1.0000
  C   C157      1.0  0.12243  0.27886  0.33082  1.0000
  C   C158      1.0  0.10897  0.26123  0.38963  1.0000
  C   C159      1.0  0.11541  0.23630  0.37562  1.0000
  H   H121      1.0  0.10613  0.22383  0.41935  1.0000
  C   C160      1.0  0.08995  0.26727  0.47072  1.0000
  H   H122      1.0  0.09037  0.28646  0.48770  1.0000
  H   H123      1.0  0.09913  0.25766  0.52925  1.0000
  H   H124      1.0  0.06562  0.26170  0.46010  1.0000
  C   C161      1.0  0.38467  0.72845  0.33189  1.0000
  C   C162      1.0  0.39819  0.74620  0.39014  1.0000
  C   C163      1.0  0.39175  0.77110  0.37551  1.0000
  H   H125      1.0  0.40108  0.78365  0.41880  1.0000
  C   C164      1.0  0.41728  0.74031  0.47124  1.0000
  H   H126      1.0  0.41686  0.72116  0.48876  1.0000
  H   H127      1.0  0.40817  0.75005  0.52957  1.0000
  H   H128      1.0  0.44161  0.74585  0.46025  1.0000
  C   C165      1.0  0.37282  0.22866  0.37780  1.0000
  C   C166      1.0  0.36474  0.24533  0.44704  1.0000
  C   C167      1.0  0.37031  0.27033  0.43336  1.0000
  H   H129      1.0  0.36537  0.28224  0.48439  1.0000
  C   C168      1.0  0.35263  0.23794  0.53676  1.0000
  H   H130      1.0  0.35079  0.21836  0.54474  1.0000
  H   H131      1.0  0.32947  0.24589  0.54779  1.0000
  H   H132      1.0  0.36848  0.24449  0.58907  1.0000
  C   C169      1.0  0.13418  0.77898  0.37723  1.0000
  C   C170      1.0  0.14233  0.76225  0.44617  1.0000
  C   C171      1.0  0.13676  0.73726  0.43218  1.0000
  H   H133      1.0  0.14179  0.72530  0.48297  1.0000
  C   C172      1.0  0.15454  0.76955  0.53587  1.0000
  H   H134      1.0  0.15642  0.78912  0.54408  1.0000
  H   H135      1.0  0.17771  0.76158  0.54662  1.0000
  H   H136      1.0  0.13874  0.76296  0.58824  1.0000
  C   C173      1.0  0.00360  0.03009  0.33190  1.0000
  C   C174      1.0  0.02414  0.01609  0.38685  1.0000
  C   C175      1.0  0.02385  0.99043  0.37954  1.0000
  H   H137      1.0  0.03835  0.98071  0.42108  1.0000
  C   C176      1.0  0.04529  0.02673  0.45618  1.0000
  H   H138      1.0  0.04230  0.04619  0.46493  1.0000
  H   H139      1.0  0.06973  0.02330  0.43786  1.0000
  H   H140      1.0  0.54065  0.01833  0.52126  1.0000
  C   C177      1.0  0.25371  0.53010  0.32979  1.0000
  C   C178      1.0  0.27422  0.51611  0.38482  1.0000
  C   C179      1.0  0.27383  0.49044  0.37778  1.0000
  H   H141      1.0  0.28832  0.48074  0.41937  1.0000
  C   C180      1.0  0.29543  0.52675  0.45404  1.0000
  H   H142      1.0  0.29252  0.54622  0.46261  1.0000
  H   H143      1.0  0.31985  0.52325  0.43570  1.0000
  H   H144      1.0  0.29077  0.51840  0.51920  1.0000
  C   C181      1.0  0.71914  0.17213  0.34976  1.0000
  C   C182      1.0  0.73877  0.15203  0.32735  1.0000
  C   C183      1.0  0.77185  0.15363  0.34078  1.0000
  H   H145      1.0  0.78576  0.13972  0.31857  1.0000
  C   C184      1.0  0.72604  0.12998  0.28325  1.0000
  H   H146      1.0  0.71219  0.13489  0.22424  1.0000
  H   H147      1.0  0.71137  0.12040  0.33131  1.0000
  H   H148      1.0  0.74433  0.11744  0.26117  1.0000
  C   C185      1.0  0.78814  0.83532  0.34899  1.0000
  C   C186      1.0  0.76856  0.85556  0.32790  1.0000
  C   C187      1.0  0.73545  0.85395  0.34119  1.0000
  H   H149      1.0  0.72159  0.86798  0.31986  1.0000
  C   C188      1.0  0.78138  0.87785  0.28575  1.0000
  H   H150      1.0  0.79492  0.87328  0.22583  1.0000
  H   H151      1.0  0.79640  0.88697  0.33430  1.0000
  H   H152      1.0  0.76317  0.89069  0.26564  1.0000
  C   C189      1.0  0.96915  0.67224  0.35571  1.0000
  C   C190      1.0  0.98817  0.65171  0.33395  1.0000
  C   C191      1.0  0.52150  0.65330  0.34022  1.0000
  H   H153      1.0  0.53480  0.63894  0.31890  1.0000
  C   C192      1.0  0.97441  0.62876  0.29993  1.0000
  H   H154      1.0  0.95993  0.63227  0.24086  1.0000
  H   H155      1.0  0.96019  0.62076  0.35299  1.0000
  H   H156      1.0  0.99208  0.61536  0.28080  1.0000
  C   C193      1.0  0.53809  0.33520  0.35405  1.0000
  C   C194      1.0  0.51905  0.35575  0.33254  1.0000
  C   C195      1.0  0.98572  0.35420  0.33940  1.0000
  H   H157      1.0  0.97241  0.36857  0.31826  1.0000
  C   C196      1.0  0.53280  0.37866  0.29810  1.0000
  H   H158      1.0  0.54700  0.37508  0.23853  1.0000
  H   H159      1.0  0.54731  0.38662  0.35061  1.0000
  H   H160      1.0  0.51513  0.39212  0.27959  1.0000
  C   C197      1.0  0.55661  0.10879  0.29373  1.0000
  C   C198      1.0  0.55383  0.13293  0.26034  1.0000
  C   C199      1.0  0.57961  0.14894  0.26761  1.0000
  H   H161      1.0  0.57635  0.16617  0.24369  1.0000
  C   C200      1.0  0.52637  0.14201  0.20744  1.0000
  H   H162      1.0  0.51111  0.12751  0.18371  1.0000
  H   H163      1.0  0.53437  0.15152  0.14727  1.0000
  H   H164      1.0  0.51264  0.15461  0.24794  1.0000
  C   C201      1.0  0.95113  0.89811  0.28933  1.0000
  C   C202      1.0  0.95404  0.87366  0.25927  1.0000
  C   C203      1.0  0.92808  0.85783  0.26667  1.0000
  H   H165      1.0  0.93149  0.84038  0.24538  1.0000
  C   C204      1.0  0.98192  0.86400  0.20969  1.0000
  H   H166      1.0  0.99730  0.87824  0.18443  1.0000
  H   H167      1.0  0.97444  0.85372  0.15072  1.0000
  H   H168      1.0  0.99538  0.85196  0.25317  1.0000
  C   C205      1.0  0.89646  0.14271  0.36547  1.0000
  C   C206      1.0  0.89172  0.11771  0.34328  1.0000
  C   C207      1.0  0.91774  0.10136  0.34228  1.0000
  H   H169      1.0  0.91440  0.08404  0.31954  1.0000
  C   C208      1.0  0.86048  0.10836  0.31452  1.0000
  H   H170      1.0  0.85199  0.11868  0.25689  1.0000
  H   H171      1.0  0.84374  0.11001  0.36967  1.0000
  H   H172      1.0  0.86106  0.08929  0.29489  1.0000
  C   C209      1.0  0.61088  0.86501  0.36606  1.0000
  C   C210      1.0  0.61564  0.88992  0.34262  1.0000
  C   C211      1.0  0.58964  0.90629  0.34125  1.0000
  H   H173      1.0  0.59293  0.92348  0.31714  1.0000
  C   C212      1.0  0.64680  0.89910  0.31247  1.0000
  H   H174      1.0  0.65504  0.88855  0.25507  1.0000
  H   H175      1.0  0.66373  0.89759  0.36718  1.0000
  H   H176      1.0  0.64622  0.91810  0.29195  1.0000
  C   C213      1.0  0.80654  0.60898  0.29356  1.0000
  C   C214      1.0  0.80375  0.63343  0.26331  1.0000
  C   C215      1.0  0.82946  0.64941  0.27319  1.0000
  H   H177      1.0  0.82618  0.66690  0.25206  1.0000
  C   C216      1.0  0.77632  0.64300  0.21151  1.0000
  H   H178      1.0  0.76094  0.62873  0.18642  1.0000
  H   H179      1.0  0.78439  0.65290  0.15229  1.0000
  H   H180      1.0  0.76270  0.65536  0.25325  1.0000
  C   C217      1.0  0.70106  0.39800  0.28947  1.0000
  C   C218      1.0  0.70395  0.37335  0.26172  1.0000
  C   C219      1.0  0.67809  0.35752  0.27158  1.0000
  H   H181      1.0  0.68146  0.33989  0.25225  1.0000
  C   C220      1.0  0.73169  0.36337  0.21241  1.0000
  H   H182      1.0  0.74726  0.37743  0.18666  1.0000
  H   H183      1.0  0.72400  0.35303  0.15380  1.0000
  H   H184      1.0  0.74501  0.35132  0.25616  1.0000
  C   C221      1.0  0.64646  0.64235  0.36045  1.0000
  C   C222      1.0  0.64175  0.61725  0.33996  1.0000
  C   C223      1.0  0.66778  0.60094  0.34103  1.0000
  H   H185      1.0  0.66463  0.58357  0.31855  1.0000
  C   C224      1.0  0.61074  0.60781  0.30958  1.0000
  H   H186      1.0  0.60281  0.61784  0.25060  1.0000
  H   H187      1.0  0.59353  0.60978  0.36336  1.0000
  H   H188      1.0  0.61142  0.58864  0.29139  1.0000
  C   C225      1.0  0.86082  0.36535  0.36162  1.0000
  C   C226      1.0  0.86554  0.39038  0.33998  1.0000
  C   C227      1.0  0.83951  0.40669  0.34047  1.0000
  H   H189      1.0  0.84263  0.42396  0.31683  1.0000
  C   C228      1.0  0.89650  0.39969  0.30873  1.0000
  H   H190      1.0  0.90430  0.38949  0.25001  1.0000
  H   H191      1.0  0.91382  0.39785  0.36231  1.0000
  H   H192      1.0  0.89583  0.41882  0.28984  1.0000
  C   C229      1.0  0.63598  0.22815  0.30763  1.0000
  C   C230      1.0  0.65045  0.24574  0.25107  1.0000
  C   C231      1.0  0.64325  0.27062  0.26332  1.0000
  H   H193      1.0  0.65282  0.28300  0.21986  1.0000
  C   C232      1.0  0.67206  0.23950  0.17581  1.0000
  H   H194      1.0  0.67453  0.22006  0.16502  1.0000
  H   H195      1.0  0.69533  0.24698  0.18932  1.0000
  H   H196      1.0  0.66323  0.24727  0.11325  1.0000
  C   C233      1.0  0.87111  0.77912  0.30750  1.0000
  C   C234      1.0  0.85655  0.76143  0.25158  1.0000
  C   C235      1.0  0.86376  0.73657  0.26440  1.0000
  H   H197      1.0  0.85414  0.72410  0.22135  1.0000
  C   C236      1.0  0.83484  0.76753  0.17639  1.0000
  H   H198      1.0  0.83235  0.78695  0.16514  1.0000
  H   H199      1.0  0.81159  0.76007  0.19034  1.0000
  H   H200      1.0  0.84359  0.75964  0.11394  1.0000
  C   C237      1.0  0.88413  0.27917  0.35362  1.0000
  C   C238      1.0  0.89320  0.26244  0.28559  1.0000
  C   C239      1.0  0.88705  0.23749  0.29858  1.0000
  H   H201      1.0  0.89238  0.22556  0.24797  1.0000
  C   C240      1.0  0.90793  0.26966  0.19884  1.0000
  H   H202      1.0  0.91002  0.28922  0.19055  1.0000
  H   H203      1.0  0.89381  0.26291  0.14294  1.0000
  H   H204      1.0  0.93144  0.26182  0.19423  1.0000
  C   C241      1.0  0.62286  0.72849  0.35245  1.0000
  C   C242      1.0  0.61365  0.74529  0.28485  1.0000
  C   C243      1.0  0.61981  0.77024  0.29809  1.0000
  H   H205      1.0  0.61441  0.78222  0.24771  1.0000
  C   C244      1.0  0.59875  0.73816  0.19822  1.0000
  H   H206      1.0  0.59663  0.71861  0.18973  1.0000
  H   H207      1.0  0.61277  0.74496  0.14220  1.0000
  H   H208      1.0  0.57525  0.74601  0.19407  1.0000
  C   C245      1.0  0.00358  0.97764  0.32055  1.0000
  C   C246      1.0  0.98323  0.99183  0.26505  1.0000
  C   C247      1.0  0.98353  0.01751  0.27226  1.0000
  H   H209      1.0  0.96910  0.02746  0.23128  1.0000
  C   C248      1.0  0.96248  0.98076  0.19557  1.0000
  H   H210      1.0  0.97606  0.96844  0.15327  1.0000
  H   H211      1.0  0.45169  0.99417  0.15130  1.0000
  H   H212      1.0  0.94347  0.97076  0.22785  1.0000
  C   C249      1.0  0.75347  0.47765  0.31908  1.0000
  C   C250      1.0  0.73310  0.49183  0.26361  1.0000
  C   C251      1.0  0.73352  0.51752  0.27049  1.0000
  H   H213      1.0  0.71906  0.52746  0.22959  1.0000
  C   C252      1.0  0.71219  0.48073  0.19460  1.0000
  H   H214      1.0  0.72566  0.46837  0.15217  1.0000
  H   H215      1.0  0.70133  0.49412  0.15039  1.0000
  H   H216      1.0  0.69324  0.47077  0.22729  1.0000
  C   C253      1.0  0.68631  0.17459  0.33200  1.0000
  N   N37       1.0  0.66470  0.15642  0.32160  1.0000
  C   C254      1.0  0.63328  0.16055  0.30696  1.0000
  N   N38       1.0  0.62445  0.18442  0.30160  1.0000
  C   C255      1.0  0.64478  0.20325  0.30811  1.0000
  N   N39       1.0  0.67497  0.19757  0.32479  1.0000
  C   C256      1.0  0.82096  0.83283  0.33084  1.0000
  N   N40       1.0  0.84264  0.85093  0.31931  1.0000
  C   C257      1.0  0.87404  0.84671  0.30433  1.0000
  N   N41       1.0  0.88274  0.82280  0.29984  1.0000
  C   C258      1.0  0.86238  0.80402  0.30727  1.0000
  N   N42       1.0  0.83225  0.80982  0.32415  1.0000
  C   C259      1.0  0.81998  0.17656  0.37608  1.0000
  N   N43       1.0  0.84117  0.15796  0.36675  1.0000
  C   C260      1.0  0.87314  0.16145  0.36671  1.0000
  N   N44       1.0  0.88294  0.18506  0.37134  1.0000
  C   C261      1.0  0.86320  0.20412  0.37887  1.0000
  N   N45       1.0  0.83230  0.19916  0.38044  1.0000
  C   C262      1.0  0.68723  0.83097  0.37548  1.0000
  N   N46       1.0  0.66610  0.84963  0.36667  1.0000
  C   C263      1.0  0.63411  0.84620  0.36698  1.0000
  N   N47       1.0  0.62419  0.82262  0.37150  1.0000
  C   C264      1.0  0.64388  0.80351  0.37845  1.0000
  N   N48       1.0  0.67481  0.80840  0.37968  1.0000
  C   C265      1.0  0.93591  0.67459  0.34366  1.0000
  N   N49       1.0  0.91437  0.65655  0.32953  1.0000
  C   C266      1.0  0.88287  0.66069  0.31640  1.0000
  N   N50       1.0  0.87372  0.68454  0.31757  1.0000
  C   C267      1.0  0.89349  0.70341  0.33268  1.0000
  N   N51       1.0  0.92393  0.69745  0.34364  1.0000
  C   C268      1.0  0.57132  0.33282  0.34160  1.0000
  N   N52       1.0  0.59291  0.35081  0.32672  1.0000
  C   C269      1.0  0.62440  0.34658  0.31350  1.0000
  N   N53       1.0  0.63345  0.32272  0.31536  1.0000
  C   C270      1.0  0.61365  0.30392  0.33108  1.0000
  N   N54       1.0  0.58325  0.30994  0.34209  1.0000
  C   C271      1.0  0.57041  0.67653  0.35992  1.0000
  N   N55       1.0  0.59142  0.65770  0.35700  1.0000
  C   C272      1.0  0.62338  0.66119  0.35642  1.0000
  N   N56       1.0  0.63339  0.68478  0.35472  1.0000
  C   C273      1.0  0.61359  0.70391  0.35067  1.0000
  N   N57       1.0  0.58273  0.69908  0.35493  1.0000
  C   C274      1.0  0.93679  0.33104  0.36015  1.0000
  N   N58       1.0  0.91582  0.34990  0.35749  1.0000
  C   C275      1.0  0.88385  0.34647  0.35759  1.0000
  N   N59       1.0  0.87375  0.32289  0.35630  1.0000
  C   C276      1.0  0.89349  0.30373  0.35217  1.0000
  N   N60       1.0  0.92437  0.30852  0.35561  1.0000
  C   C277      1.0  0.53012  0.09357  0.30854  1.0000
  N   N61       1.0  0.53002  0.06888  0.31472  1.0000
  C   C278      1.0  0.50303  0.05605  0.33083  1.0000
  N   N62       1.0  0.97560  0.06863  0.34418  1.0000
  C   C279      1.0  0.97501  0.09339  0.34659  1.0000
  N   N63       1.0  0.50247  0.10454  0.32671  1.0000
  C   C280      1.0  0.97759  0.91340  0.30360  1.0000
  N   N64       1.0  0.97774  0.93810  0.30621  1.0000
  C   C281      1.0  0.00443  0.95145  0.32070  1.0000
  N   N65       1.0  0.53160  0.93885  0.33880  1.0000
  C   C282      1.0  0.53238  0.91413  0.34452  1.0000
  N   N66       1.0  0.00515  0.90268  0.32454  1.0000
  C   C283      1.0  0.78007  0.59369  0.30765  1.0000
  N   N67       1.0  0.78003  0.56898  0.31288  1.0000
  C   C284      1.0  0.75312  0.55605  0.32888  1.0000
  N   N68       1.0  0.72568  0.56854  0.34302  1.0000
  C   C285      1.0  0.72502  0.59328  0.34630  1.0000
  N   N69       1.0  0.75240  0.60456  0.32655  1.0000
  C   C286      1.0  0.72751  0.41333  0.30322  1.0000
  N   N70       1.0  0.72762  0.43805  0.30511  1.0000
  C   C287      1.0  0.75427  0.45146  0.31951  1.0000
  N   N71       1.0  0.78143  0.43891  0.33802  1.0000
  C   C288      1.0  0.78226  0.41421  0.34427  1.0000
  N   N72       1.0  0.75507  0.40268  0.32455  1.0000
  C   C289      1.0  0.78661  0.17452  0.37677  1.0000
  C   C290      1.0  0.76652  0.19332  0.40966  1.0000
  C   C291      1.0  0.73398  0.19187  0.39360  1.0000
  H   H217      1.0  0.72040  0.20576  0.41761  1.0000
  C   C292      1.0  0.77719  0.21396  0.46723  1.0000
  H   H218      1.0  0.79335  0.20731  0.51845  1.0000
  H   H219      1.0  0.75806  0.22295  0.50308  1.0000
  H   H220      1.0  0.78867  0.22772  0.42611  1.0000
  C   C293      1.0  0.72062  0.83295  0.37608  1.0000
  C   C294      1.0  0.74068  0.81403  0.40813  1.0000
  C   C295      1.0  0.77322  0.81549  0.39205  1.0000
  H   H221      1.0  0.78673  0.80148  0.41546  1.0000
  C   C296      1.0  0.72999  0.79322  0.46486  1.0000
  H   H222      1.0  0.71394  0.79975  0.51658  1.0000
  H   H223      1.0  0.74912  0.78405  0.50008  1.0000
  H   H224      1.0  0.71838  0.77963  0.42328  1.0000
  C   C297      1.0  0.53717  0.67475  0.36719  1.0000
  C   C298      1.0  0.51818  0.69421  0.39998  1.0000
  C   C299      1.0  0.98530  0.69251  0.39209  1.0000
  H   H225      1.0  0.97263  0.70690  0.41566  1.0000
  C   C300      1.0  0.53054  0.71594  0.44908  1.0000
  H   H226      1.0  0.54866  0.71049  0.49688  1.0000
  H   H227      1.0  0.51257  0.72542  0.48797  1.0000
  H   H228      1.0  0.54026  0.72897  0.40148  1.0000
  C   C301      1.0  0.97005  0.33278  0.36669  1.0000
  C   C302      1.0  0.98908  0.31330  0.39915  1.0000
  C   C303      1.0  0.52195  0.31496  0.39076  1.0000
  H   H229      1.0  0.53463  0.30056  0.41418  1.0000
  C   C304      1.0  0.97679  0.29156  0.44840  1.0000
  H   H230      1.0  0.95881  0.29702  0.49662  1.0000
  H   H231      1.0  0.99483  0.28202  0.48683  1.0000
  H   H232      1.0  0.96691  0.27857  0.40093  1.0000
  C   C305      1.0  0.60965  0.14208  0.30061  1.0000
  C   C306      1.0  0.61316  0.11704  0.32425  1.0000
  C   C307      1.0  0.58689  0.10105  0.32035  1.0000
  H   H233      1.0  0.58939  0.08368  0.34354  1.0000
  C   C308      1.0  0.64330  0.10682  0.35758  1.0000
  H   H234      1.0  0.65165  0.11710  0.41549  1.0000
  H   H235      1.0  0.66046  0.10763  0.30351  1.0000
  H   H236      1.0  0.64155  0.08788  0.37840  1.0000
  C   C309      1.0  0.89781  0.86506  0.29683  1.0000
  C   C310      1.0  0.89426  0.89035  0.31666  1.0000
  C   C311      1.0  0.92065  0.90620  0.31244  1.0000
  H   H237      1.0  0.91804  0.92381  0.33290  1.0000
  C   C312      1.0  0.86384  0.90100  0.34576  1.0000
  H   H238      1.0  0.85511  0.89163  0.40528  1.0000
  H   H239      1.0  0.84705  0.89931  0.29094  1.0000
  H   H240      1.0  0.86539  0.92024  0.36253  1.0000
  C   C313      1.0  0.94874  0.10870  0.36384  1.0000
  C   C314      1.0  0.95265  0.13273  0.39735  1.0000
  C   C315      1.0  0.92730  0.14914  0.39323  1.0000
  H   H241      1.0  0.93151  0.16624  0.41710  1.0000
  C   C316      1.0  0.98091  0.14121  0.44841  1.0000
  H   H242      1.0  0.99503  0.12624  0.47408  1.0000
  H   H243      1.0  0.97399  0.15176  0.50730  1.0000
  H   H244      1.0  0.99548  0.15265  0.40566  1.0000
  C   C317      1.0  0.55869  0.89906  0.36382  1.0000
  C   C318      1.0  0.55486  0.87520  0.39911  1.0000
  C   C319      1.0  0.58015  0.85874  0.39522  1.0000
  H   H245      1.0  0.57602  0.84174  0.42030  1.0000
  C   C320      1.0  0.52673  0.86694  0.45116  1.0000
  H   H246      1.0  0.51191  0.88191  0.47328  1.0000
  H   H247      1.0  0.53395  0.85751  0.51231  1.0000
  H   H248      1.0  0.51276  0.85450  0.41067  1.0000
  C   C321      1.0  0.85948  0.64221  0.30528  1.0000
  C   C322      1.0  0.86316  0.61688  0.32392  1.0000
  C   C323      1.0  0.83690  0.60094  0.31806  1.0000
  H   H249      1.0  0.83947  0.58333  0.33848  1.0000
  C   C324      1.0  0.89341  0.60627  0.35454  1.0000
  H   H250      1.0  0.90174  0.61563  0.41457  1.0000
  H   H251      1.0  0.91050  0.60803  0.30055  1.0000
  H   H252      1.0  0.89184  0.58702  0.37107  1.0000
  C   C325      1.0  0.64790  0.36495  0.30166  1.0000
  C   C326      1.0  0.64423  0.39042  0.31775  1.0000
  C   C327      1.0  0.67057  0.40626  0.31155  1.0000
  H   H253      1.0  0.66794  0.42403  0.33010  1.0000
  C   C328      1.0  0.61383  0.40128  0.34589  1.0000
  H   H254      1.0  0.60532  0.39251  0.40690  1.0000
  H   H255      1.0  0.59693  0.39896  0.29170  1.0000
  H   H256      1.0  0.61531  0.42069  0.35982  1.0000
  C   C329      1.0  0.69863  0.60843  0.36349  1.0000
  C   C330      1.0  0.70227  0.63252  0.39677  1.0000
  C   C331      1.0  0.67700  0.64893  0.39021  1.0000
  H   H257      1.0  0.68090  0.66613  0.41364  1.0000
  C   C332      1.0  0.73009  0.64114  0.44932  1.0000
  H   H258      1.0  0.74498  0.62637  0.47277  1.0000
  H   H259      1.0  0.72248  0.65076  0.50968  1.0000
  H   H260      1.0  0.74410  0.65353  0.40873  1.0000
  C   C333      1.0  0.80868  0.39926  0.36344  1.0000
  C   C334      1.0  0.80510  0.37533  0.39825  1.0000
  C   C335      1.0  0.83036  0.35890  0.39233  1.0000
  H   H261      1.0  0.82650  0.34179  0.41670  1.0000
  C   C336      1.0  0.77727  0.36690  0.45114  1.0000
  H   H262      1.0  0.76211  0.38172  0.47272  1.0000
  H   H263      1.0  0.78491  0.35782  0.51260  1.0000
  H   H264      1.0  0.76352  0.35409  0.41163  1.0000
  C   C337      1.0  0.62243  0.27886  0.33082  1.0000
  C   C338      1.0  0.60897  0.26123  0.38963  1.0000
  C   C339      1.0  0.61541  0.23630  0.37562  1.0000
  H   H265      1.0  0.60614  0.22383  0.41935  1.0000
  C   C340      1.0  0.58995  0.26727  0.47072  1.0000
  H   H266      1.0  0.59037  0.28646  0.48770  1.0000
  H   H267      1.0  0.59913  0.25766  0.52925  1.0000
  H   H268      1.0  0.56562  0.26170  0.46010  1.0000
  C   C341      1.0  0.88467  0.72845  0.33189  1.0000
  C   C342      1.0  0.89819  0.74620  0.39014  1.0000
  C   C343      1.0  0.89175  0.77110  0.37551  1.0000
  H   H269      1.0  0.90108  0.78365  0.41880  1.0000
  C   C344      1.0  0.91728  0.74031  0.47124  1.0000
  H   H270      1.0  0.91686  0.72116  0.48876  1.0000
  H   H271      1.0  0.90817  0.75005  0.52957  1.0000
  H   H272      1.0  0.94161  0.74585  0.46025  1.0000
  C   C345      1.0  0.87282  0.22866  0.37780  1.0000
  C   C346      1.0  0.86475  0.24533  0.44704  1.0000
  C   C347      1.0  0.87031  0.27033  0.43336  1.0000
  H   H273      1.0  0.86537  0.28224  0.48439  1.0000
  C   C348      1.0  0.85263  0.23794  0.53676  1.0000
  H   H274      1.0  0.85079  0.21836  0.54474  1.0000
  H   H275      1.0  0.82947  0.24589  0.54779  1.0000
  H   H276      1.0  0.86848  0.24449  0.58907  1.0000
  C   C349      1.0  0.63418  0.77898  0.37723  1.0000
  C   C350      1.0  0.64233  0.76225  0.44617  1.0000
  C   C351      1.0  0.63677  0.73726  0.43218  1.0000
  H   H277      1.0  0.64179  0.72530  0.48297  1.0000
  C   C352      1.0  0.65455  0.76955  0.53587  1.0000
  H   H278      1.0  0.65642  0.78912  0.54408  1.0000
  H   H279      1.0  0.67771  0.76158  0.54662  1.0000
  H   H280      1.0  0.63874  0.76296  0.58824  1.0000
  C   C353      1.0  0.50360  0.03009  0.33190  1.0000
  C   C354      1.0  0.52414  0.01609  0.38685  1.0000
  C   C355      1.0  0.52385  0.99043  0.37954  1.0000
  H   H281      1.0  0.53835  0.98071  0.42108  1.0000
  C   C356      1.0  0.54529  0.02673  0.45618  1.0000
  H   H282      1.0  0.54230  0.04619  0.46493  1.0000
  H   H283      1.0  0.56973  0.02330  0.43786  1.0000
  H   H284      1.0  0.04065  0.01833  0.52126  1.0000
  C   C357      1.0  0.75371  0.53010  0.32979  1.0000
  C   C358      1.0  0.77422  0.51611  0.38482  1.0000
  C   C359      1.0  0.77383  0.49044  0.37778  1.0000
  H   H285      1.0  0.78833  0.48074  0.41937  1.0000
  C   C360      1.0  0.79543  0.52675  0.45404  1.0000
  H   H286      1.0  0.79252  0.54622  0.46261  1.0000
  H   H287      1.0  0.81985  0.52325  0.43570  1.0000
  H   H288      1.0  0.79077  0.51840  0.51920  1.0000
