data_image0
_chemical_formula_structural       NCHNCHNCHNCHNCHNCHC2NCOCH3C2NCOCH3C2NCOCH3C2NCOCH3C2NCOCH3C2NCOCH3C2NCOCH3C2NCOCH3C2NCOCH3C2NCOCH3C2NCOCH3C2NCOCH3CNCNCNC18H12CNCNCNC18H12CNCNCNC18H12CNCNCNC18H12CNCNCNC18H12CNCNCNC18H12CNCNCNC18H12CNCNCNC18H12CNCNCNC18H12CNCNCNC18H12CNCNCNC18H12CNCNCNC18H12C2NCOCH3C2NCOCH3C2NCOCH3C2NCOCH3C2NCOCH3C2NCOCH3NCHNCHNCHNCHNCHNCHNCHNCHNCHNCHNCHNCH
_chemical_formula_sum              "N72 C342 H216 O18"
_cell_length_a       74.3113
_cell_length_b       74.3114
_cell_length_c       15.0141
_cell_angle_alpha    90
_cell_angle_beta     90
_cell_angle_gamma    120

_space_group_name_H-M_alt    "P 1"
_space_group_IT_number       1

loop_
  _space_group_symop_operation_xyz
  'x, y, z'

loop_
  _atom_site_type_symbol
  _atom_site_label
  _atom_site_symmetry_multiplicity
  _atom_site_fract_x
  _atom_site_fract_y
  _atom_site_fract_z
  _atom_site_occupancy
  N   N1        1.0  0.19691  0.37497  0.28410  1.0000
  C   C1        1.0  0.20870  0.39594  0.27952  1.0000
  H   H1        1.0  0.21932  0.40241  0.22928  1.0000
  N   N2        1.0  0.61049  0.80832  0.28425  1.0000
  C   C2        1.0  0.58952  0.79914  0.27964  1.0000
  H   H2        1.0  0.58306  0.80328  0.22935  1.0000
  N   N3        1.0  0.17710  0.78855  0.28406  1.0000
  C   C3        1.0  0.18628  0.77676  0.27944  1.0000
  H   H3        1.0  0.18213  0.76615  0.22920  1.0000
  N   N4        1.0  0.79278  0.60626  0.28424  1.0000
  C   C4        1.0  0.78099  0.58529  0.27963  1.0000
  H   H4        1.0  0.77039  0.57883  0.22933  1.0000
  N   N5        1.0  0.37918  0.17288  0.28408  1.0000
  C   C5        1.0  0.40016  0.18206  0.27950  1.0000
  H   H5        1.0  0.40662  0.17791  0.22927  1.0000
  N   N6        1.0  0.81255  0.19270  0.28425  1.0000
  C   C6        1.0  0.80337  0.20450  0.27969  1.0000
  H   H6        1.0  0.80751  0.21510  0.22941  1.0000
  C   C7        1.0  0.18102  0.19957  0.32175  1.0000
  C   C8        1.0  0.20408  0.17909  0.32956  1.0000
  N   N7        1.0  0.18918  0.17438  0.26670  1.0000
  C   C9        1.0  0.17772  0.18393  0.25926  1.0000
  O   O1        1.0  0.16365  0.17803  0.19127  1.0000
  C   C10       1.0  0.17247  0.18946  0.11042  1.0000
  H   H7        1.0  0.16025  0.18380  0.06018  1.0000
  H   H8        1.0  0.18494  0.18705  0.08553  1.0000
  H   H9        1.0  0.17837  0.20607  0.11970  1.0000
  C   C11       1.0  0.78587  0.96786  0.32171  1.0000
  C   C12       1.0  0.80636  0.01140  0.32955  1.0000
  N   N8        1.0  0.81106  0.00121  0.26667  1.0000
  C   C13       1.0  0.80151  0.98021  0.25921  1.0000
  O   O2        1.0  0.80741  0.97203  0.19121  1.0000
  C   C14       1.0  0.79598  0.96942  0.11038  1.0000
  H   H10       1.0  0.80164  0.96287  0.06012  1.0000
  H   H11       1.0  0.79837  0.98429  0.08549  1.0000
  H   H12       1.0  0.77936  0.95871  0.11967  1.0000
  C   C15       1.0  0.01759  0.80442  0.32174  1.0000
  C   C16       1.0  0.97405  0.78137  0.32960  1.0000
  N   N9        1.0  0.98425  0.79627  0.26671  1.0000
  C   C17       1.0  0.00524  0.80772  0.25924  1.0000
  O   O3        1.0  0.01341  0.82179  0.19122  1.0000
  C   C18       1.0  0.01602  0.81295  0.11040  1.0000
  H   H13       1.0  0.02257  0.82517  0.06013  1.0000
  H   H14       1.0  0.00114  0.80048  0.08553  1.0000
  H   H15       1.0  0.02673  0.80706  0.11970  1.0000
  C   C19       1.0  0.80863  0.78165  0.32169  1.0000
  C   C20       1.0  0.78558  0.80214  0.32956  1.0000
  N   N10       1.0  0.80048  0.80684  0.26665  1.0000
  C   C21       1.0  0.81192  0.79728  0.25917  1.0000
  O   O4        1.0  0.82599  0.80318  0.19115  1.0000
  C   C22       1.0  0.81716  0.79174  0.11034  1.0000
  H   H16       1.0  0.82937  0.79739  0.06006  1.0000
  H   H17       1.0  0.80468  0.79414  0.08547  1.0000
  H   H18       1.0  0.81126  0.77513  0.11965  1.0000
  C   C23       1.0  0.20378  0.01338  0.32173  1.0000
  C   C24       1.0  0.18329  0.96984  0.32956  1.0000
  N   N11       1.0  0.17860  0.98004  0.26668  1.0000
  C   C25       1.0  0.18814  0.00104  0.25922  1.0000
  O   O5        1.0  0.18225  0.00921  0.19121  1.0000
  C   C26       1.0  0.19368  0.01182  0.11038  1.0000
  H   H19       1.0  0.18803  0.01838  0.06012  1.0000
  H   H20       1.0  0.19128  0.99694  0.08551  1.0000
  H   H21       1.0  0.21030  0.02253  0.11969  1.0000
  C   C27       1.0  0.97207  0.17683  0.32169  1.0000
  C   C28       1.0  0.01561  0.19988  0.32951  1.0000
  N   N12       1.0  0.00541  0.18498  0.26663  1.0000
  C   C29       1.0  0.98441  0.17353  0.25918  1.0000
  O   O6        1.0  0.97624  0.15946  0.19118  1.0000
  C   C30       1.0  0.97362  0.16828  0.11036  1.0000
  H   H22       1.0  0.96706  0.15607  0.06010  1.0000
  H   H23       1.0  0.98849  0.18075  0.08546  1.0000
  H   H24       1.0  0.96291  0.17418  0.11966  1.0000
  C   C31       1.0  0.21210  0.57909  0.33482  1.0000
  C   C32       1.0  0.21210  0.61650  0.31577  1.0000
  N   N13       1.0  0.21389  0.60619  0.24448  1.0000
  C   C33       1.0  0.21281  0.58742  0.24929  1.0000
  O   O7        1.0  0.21736  0.57994  0.17453  1.0000
  C   C34       1.0  0.19985  0.56919  0.11597  1.0000
  H   H25       1.0  0.20472  0.56353  0.05919  1.0000
  H   H26       1.0  0.19451  0.57955  0.09095  1.0000
  H   H27       1.0  0.18698  0.55582  0.14881  1.0000
  C   C35       1.0  0.40638  0.61936  0.33398  1.0000
  C   C36       1.0  0.36897  0.58194  0.31527  1.0000
  N   N14       1.0  0.37930  0.59399  0.24386  1.0000
  C   C37       1.0  0.39807  0.61168  0.24854  1.0000
  O   O8        1.0  0.40565  0.62367  0.17374  1.0000
  C   C38       1.0  0.41644  0.61685  0.11573  1.0000
  H   H28       1.0  0.42218  0.62735  0.05885  1.0000
  H   H29       1.0  0.40609  0.60115  0.09079  1.0000
  H   H30       1.0  0.42976  0.61733  0.14902  1.0000
  C   C39       1.0  0.36603  0.77332  0.33486  1.0000
  C   C40       1.0  0.40347  0.77334  0.31584  1.0000
  N   N15       1.0  0.39135  0.77154  0.24460  1.0000
  C   C41       1.0  0.37365  0.77261  0.24935  1.0000
  O   O9        1.0  0.36163  0.76806  0.17457  1.0000
  C   C42       1.0  0.36840  0.78556  0.11594  1.0000
  H   H31       1.0  0.35787  0.78068  0.05915  1.0000
  H   H32       1.0  0.38410  0.79088  0.09094  1.0000
  H   H33       1.0  0.36792  0.79844  0.14872  1.0000
  C   C43       1.0  0.77765  0.40217  0.33402  1.0000
  C   C44       1.0  0.77765  0.36476  0.31535  1.0000
  N   N16       1.0  0.77593  0.37508  0.24392  1.0000
  C   C45       1.0  0.77701  0.39385  0.24859  1.0000
  O   O10       1.0  0.77261  0.40143  0.17377  1.0000
  C   C46       1.0  0.79022  0.41223  0.11580  1.0000
  H   H34       1.0  0.78546  0.41797  0.05891  1.0000
  H   H35       1.0  0.79559  0.40189  0.09088  1.0000
  H   H36       1.0  0.80305  0.42555  0.14911  1.0000
  C   C47       1.0  0.58332  0.36180  0.33498  1.0000
  C   C48       1.0  0.62073  0.39925  0.31586  1.0000
  N   N17       1.0  0.61040  0.38711  0.24466  1.0000
  C   C49       1.0  0.59164  0.36942  0.24945  1.0000
  O   O11       1.0  0.58416  0.35739  0.17469  1.0000
  C   C50       1.0  0.57345  0.36417  0.11601  1.0000
  H   H37       1.0  0.56779  0.35362  0.05925  1.0000
  H   H38       1.0  0.58383  0.37985  0.09098  1.0000
  H   H39       1.0  0.56009  0.36370  0.14877  1.0000
  C   C51       1.0  0.62358  0.20780  0.33413  1.0000
  C   C52       1.0  0.58616  0.20779  0.31532  1.0000
  N   N18       1.0  0.59822  0.20953  0.24394  1.0000
  C   C53       1.0  0.61591  0.20846  0.24867  1.0000
  O   O12       1.0  0.62792  0.21287  0.17391  1.0000
  C   C54       1.0  0.62111  0.19528  0.11581  1.0000
  H   H40       1.0  0.63162  0.20005  0.05898  1.0000
  H   H41       1.0  0.60541  0.18994  0.09082  1.0000
  H   H42       1.0  0.62157  0.18243  0.14906  1.0000
  C   C55       1.0  0.13649  0.24380  0.32829  1.0000
  N   N19       1.0  0.14665  0.26490  0.33182  1.0000
  C   C56       1.0  0.13667  0.27601  0.33515  1.0000
  N   N20       1.0  0.11555  0.26508  0.33515  1.0000
  C   C57       1.0  0.10446  0.24398  0.33143  1.0000
  N   N21       1.0  0.11537  0.23378  0.32793  1.0000
  C   C58       1.0  0.14789  0.29814  0.33822  1.0000
  C   C59       1.0  0.16974  0.30946  0.32647  1.0000
  C   C60       1.0  0.18082  0.33131  0.32877  1.0000
  C   C61       1.0  0.17053  0.34265  0.34444  1.0000
  C   C62       1.0  0.14872  0.33146  0.35561  1.0000
  C   C63       1.0  0.13762  0.30962  0.35236  1.0000
  C   C64       1.0  0.14755  0.23272  0.32591  1.0000
  C   C65       1.0  0.16939  0.24308  0.33769  1.0000
  C   C66       1.0  0.18030  0.23214  0.33665  1.0000
  C   C67       1.0  0.16983  0.21044  0.32218  1.0000
  C   C68       1.0  0.14803  0.20000  0.31083  1.0000
  C   C69       1.0  0.13711  0.21092  0.31281  1.0000
  C   C70       1.0  0.08232  0.23303  0.33130  1.0000
  C   C71       1.0  0.07083  0.21175  0.30769  1.0000
  C   C72       1.0  0.04898  0.20099  0.30665  1.0000
  C   C73       1.0  0.03772  0.21096  0.33098  1.0000
  C   C74       1.0  0.04917  0.23221  0.35487  1.0000
  C   C75       1.0  0.07103  0.24305  0.35444  1.0000
  H   H43       1.0  0.19608  0.24028  0.34512  1.0000
  H   H44       1.0  0.17770  0.25879  0.34809  1.0000
  H   H45       1.0  0.13977  0.18421  0.30302  1.0000
  H   H46       1.0  0.12133  0.20265  0.30453  1.0000
  H   H47       1.0  0.07824  0.20382  0.28974  1.0000
  H   H48       1.0  0.04136  0.18561  0.28932  1.0000
  H   H49       1.0  0.07857  0.25841  0.37209  1.0000
  H   H50       1.0  0.04173  0.24022  0.37081  1.0000
  H   H51       1.0  0.12185  0.30222  0.36073  1.0000
  H   H52       1.0  0.14060  0.33910  0.36435  1.0000
  H   H53       1.0  0.19661  0.33884  0.32039  1.0000
  H   H54       1.0  0.17792  0.30197  0.31535  1.0000
  C   C76       1.0  0.74166  0.87910  0.32832  1.0000
  N   N22       1.0  0.72056  0.86816  0.33189  1.0000
  C   C77       1.0  0.70945  0.84707  0.33525  1.0000
  N   N23       1.0  0.72038  0.83688  0.33525  1.0000
  C   C78       1.0  0.74148  0.84689  0.33150  1.0000
  N   N24       1.0  0.75167  0.86800  0.32797  1.0000
  C   C79       1.0  0.68732  0.83616  0.33836  1.0000
  C   C80       1.0  0.67599  0.84667  0.32667  1.0000
  C   C81       1.0  0.65415  0.83590  0.32897  1.0000
  C   C82       1.0  0.64280  0.81426  0.34464  1.0000
  C   C83       1.0  0.65401  0.80365  0.35578  1.0000
  C   C84       1.0  0.67585  0.81440  0.35250  1.0000
  C   C85       1.0  0.75273  0.90124  0.32591  1.0000
  C   C86       1.0  0.74237  0.91272  0.33772  1.0000
  C   C87       1.0  0.75331  0.93457  0.33662  1.0000
  C   C88       1.0  0.77500  0.94580  0.32216  1.0000
  C   C89       1.0  0.78545  0.93445  0.31078  1.0000
  C   C90       1.0  0.77452  0.91259  0.31277  1.0000
  C   C91       1.0  0.75244  0.83571  0.33140  1.0000
  C   C92       1.0  0.77372  0.84550  0.30776  1.0000
  C   C93       1.0  0.78447  0.83441  0.30673  1.0000
  C   C94       1.0  0.77450  0.81318  0.33106  1.0000
  C   C95       1.0  0.75326  0.80338  0.35502  1.0000
  C   C96       1.0  0.74241  0.81439  0.35455  1.0000
  H   H55       1.0  0.74516  0.94221  0.34514  1.0000
  H   H56       1.0  0.72666  0.90532  0.34813  1.0000
  H   H57       1.0  0.80124  0.94198  0.30295  1.0000
  H   H58       1.0  0.78280  0.90510  0.30447  1.0000
  H   H59       1.0  0.78165  0.86083  0.28978  1.0000
  H   H60       1.0  0.79985  0.84217  0.28934  1.0000
  H   H61       1.0  0.72706  0.80658  0.37220  1.0000
  H   H62       1.0  0.74525  0.78793  0.37089  1.0000
  H   H63       1.0  0.68325  0.80603  0.36084  1.0000
  H   H64       1.0  0.64637  0.78789  0.36447  1.0000
  H   H65       1.0  0.64661  0.84415  0.32059  1.0000
  H   H66       1.0  0.68348  0.86234  0.31553  1.0000
  C   C97       1.0  0.10635  0.84896  0.32829  1.0000
  N   N25       1.0  0.11729  0.83880  0.33184  1.0000
  C   C98       1.0  0.13838  0.84879  0.33517  1.0000
  N   N26       1.0  0.14857  0.86991  0.33517  1.0000
  C   C99       1.0  0.13856  0.88100  0.33144  1.0000
  N   N27       1.0  0.11745  0.87008  0.32794  1.0000
  C   C100      1.0  0.14929  0.83756  0.33824  1.0000
  C   C101      1.0  0.13877  0.81572  0.32651  1.0000
  C   C102      1.0  0.14953  0.80463  0.32880  1.0000
  C   C103      1.0  0.17117  0.81493  0.34444  1.0000
  C   C104      1.0  0.18178  0.83674  0.35559  1.0000
  C   C105      1.0  0.17104  0.84784  0.35236  1.0000
  C   C106      1.0  0.08420  0.83789  0.32589  1.0000
  C   C107      1.0  0.07273  0.81605  0.33769  1.0000
  C   C108      1.0  0.05088  0.80515  0.33666  1.0000
  C   C109      1.0  0.03966  0.81562  0.32216  1.0000
  C   C110      1.0  0.05101  0.83742  0.31078  1.0000
  C   C111      1.0  0.07286  0.84834  0.31277  1.0000
  C   C112      1.0  0.14974  0.90312  0.33132  1.0000
  C   C113      1.0  0.13994  0.91461  0.30772  1.0000
  C   C114      1.0  0.15104  0.93647  0.30669  1.0000
  C   C115      1.0  0.17226  0.94772  0.33102  1.0000
  C   C116      1.0  0.18207  0.93628  0.35490  1.0000
  C   C117      1.0  0.17106  0.91443  0.35446  1.0000
  H   H67       1.0  0.04324  0.78936  0.34514  1.0000
  H   H68       1.0  0.08012  0.80775  0.34813  1.0000
  H   H69       1.0  0.04347  0.84567  0.30296  1.0000
  H   H70       1.0  0.08036  0.86411  0.30447  1.0000
  H   H71       1.0  0.12461  0.90721  0.28976  1.0000
  H   H72       1.0  0.14327  0.94408  0.28936  1.0000
  H   H73       1.0  0.17887  0.90688  0.37210  1.0000
  H   H74       1.0  0.19752  0.94373  0.37083  1.0000
  H   H75       1.0  0.17942  0.86361  0.36072  1.0000
  H   H76       1.0  0.19755  0.84486  0.36431  1.0000
  H   H77       1.0  0.14128  0.78885  0.32043  1.0000
  H   H78       1.0  0.12309  0.80753  0.31542  1.0000
  C   C118      1.0  0.85316  0.73742  0.32829  1.0000
  N   N28       1.0  0.84301  0.71633  0.33187  1.0000
  C   C119      1.0  0.85300  0.70522  0.33525  1.0000
  N   N29       1.0  0.87412  0.71615  0.33526  1.0000
  C   C120      1.0  0.88520  0.73725  0.33150  1.0000
  N   N30       1.0  0.87429  0.74744  0.32796  1.0000
  C   C121      1.0  0.84178  0.68309  0.33836  1.0000
  C   C122      1.0  0.81993  0.67176  0.32664  1.0000
  C   C123      1.0  0.80886  0.64992  0.32895  1.0000
  C   C124      1.0  0.81916  0.63858  0.34464  1.0000
  C   C125      1.0  0.84097  0.64978  0.35581  1.0000
  C   C126      1.0  0.85206  0.67162  0.35252  1.0000
  C   C127      1.0  0.84210  0.74850  0.32588  1.0000
  C   C128      1.0  0.82026  0.73814  0.33770  1.0000
  C   C129      1.0  0.80935  0.74908  0.33660  1.0000
  C   C130      1.0  0.81982  0.77078  0.32212  1.0000
  C   C131      1.0  0.84162  0.78122  0.31072  1.0000
  C   C132      1.0  0.85254  0.77029  0.31272  1.0000
  C   C133      1.0  0.90733  0.74821  0.33140  1.0000
  C   C134      1.0  0.91882  0.76949  0.30781  1.0000
  C   C135      1.0  0.94067  0.78025  0.30677  1.0000
  C   C136      1.0  0.95193  0.77029  0.33109  1.0000
  C   C137      1.0  0.94049  0.74904  0.35504  1.0000
  C   C138      1.0  0.91864  0.73819  0.35457  1.0000
  H   H79       1.0  0.79357  0.74094  0.34513  1.0000
  H   H80       1.0  0.81195  0.72244  0.34813  1.0000
  H   H81       1.0  0.84988  0.79701  0.30288  1.0000
  H   H82       1.0  0.86832  0.77857  0.30441  1.0000
  H   H83       1.0  0.91142  0.77742  0.28980  1.0000
  H   H84       1.0  0.94829  0.79563  0.28938  1.0000
  H   H85       1.0  0.91109  0.72283  0.37218  1.0000
  H   H86       1.0  0.94794  0.74103  0.37090  1.0000
  H   H87       1.0  0.86783  0.67902  0.36087  1.0000
  H   H88       1.0  0.84909  0.64214  0.36452  1.0000
  H   H89       1.0  0.79307  0.64238  0.32056  1.0000
  H   H90       1.0  0.81175  0.67925  0.31549  1.0000
  C   C139      1.0  0.24802  0.10214  0.32827  1.0000
  N   N31       1.0  0.26911  0.11308  0.33180  1.0000
  C   C140      1.0  0.28022  0.13417  0.33513  1.0000
  N   N32       1.0  0.26930  0.14437  0.33515  1.0000
  C   C141      1.0  0.24820  0.13436  0.33142  1.0000
  N   N33       1.0  0.23800  0.11325  0.32793  1.0000
  C   C142      1.0  0.30235  0.14507  0.33820  1.0000
  C   C143      1.0  0.31368  0.13456  0.32646  1.0000
  C   C144      1.0  0.33552  0.14531  0.32876  1.0000
  C   C145      1.0  0.34687  0.16695  0.34442  1.0000
  C   C146      1.0  0.33568  0.17757  0.35557  1.0000
  C   C147      1.0  0.31383  0.16683  0.35233  1.0000
  C   C148      1.0  0.23694  0.08000  0.32589  1.0000
  C   C149      1.0  0.24730  0.06852  0.33768  1.0000
  C   C150      1.0  0.23635  0.04667  0.33664  1.0000
  C   C151      1.0  0.21466  0.03545  0.32216  1.0000
  C   C152      1.0  0.20421  0.04680  0.31079  1.0000
  C   C153      1.0  0.21514  0.06865  0.31277  1.0000
  C   C154      1.0  0.23724  0.14553  0.33131  1.0000
  C   C155      1.0  0.21596  0.13574  0.30772  1.0000
  C   C156      1.0  0.20520  0.14683  0.30670  1.0000
  C   C157      1.0  0.21517  0.16806  0.33102  1.0000
  C   C158      1.0  0.23642  0.17786  0.35488  1.0000
  C   C159      1.0  0.24726  0.16686  0.35444  1.0000
  H   H91       1.0  0.24449  0.03903  0.34512  1.0000
  H   H92       1.0  0.26300  0.07591  0.34810  1.0000
  H   H93       1.0  0.18842  0.03927  0.30297  1.0000
  H   H94       1.0  0.20687  0.07615  0.30448  1.0000
  H   H95       1.0  0.20803  0.12040  0.28978  1.0000
  H   H96       1.0  0.18981  0.13906  0.28939  1.0000
  H   H97       1.0  0.26262  0.17467  0.37206  1.0000
  H   H98       1.0  0.24443  0.19332  0.37080  1.0000
  H   H99       1.0  0.30644  0.17521  0.36070  1.0000
  H   H100      1.0  0.34332  0.19333  0.36430  1.0000
  H   H101      1.0  0.34305  0.13706  0.32039  1.0000
  H   H102      1.0  0.30618  0.11888  0.31536  1.0000
  C   C160      1.0  0.88331  0.13229  0.32827  1.0000
  N   N34       1.0  0.87237  0.14245  0.33182  1.0000
  C   C161      1.0  0.85127  0.13246  0.33517  1.0000
  N   N35       1.0  0.84108  0.11134  0.33518  1.0000
  C   C162      1.0  0.85109  0.10025  0.33144  1.0000
  N   N36       1.0  0.87220  0.11117  0.32793  1.0000
  C   C163      1.0  0.84037  0.14369  0.33826  1.0000
  C   C164      1.0  0.85088  0.16553  0.32655  1.0000
  C   C165      1.0  0.84012  0.17661  0.32887  1.0000
  C   C166      1.0  0.81848  0.16631  0.34456  1.0000
  C   C167      1.0  0.80787  0.14451  0.35570  1.0000
  C   C168      1.0  0.81861  0.13341  0.35241  1.0000
  C   C169      1.0  0.90545  0.14336  0.32588  1.0000
  C   C170      1.0  0.91693  0.16519  0.33770  1.0000
  C   C171      1.0  0.93878  0.17610  0.33661  1.0000
  C   C172      1.0  0.95000  0.16563  0.32215  1.0000
  C   C173      1.0  0.93865  0.14383  0.31076  1.0000
  C   C174      1.0  0.91680  0.13291  0.31275  1.0000
  C   C175      1.0  0.83992  0.07812  0.33135  1.0000
  C   C176      1.0  0.84971  0.06663  0.30775  1.0000
  C   C177      1.0  0.83862  0.04478  0.30673  1.0000
  C   C178      1.0  0.81739  0.03352  0.33104  1.0000
  C   C179      1.0  0.80759  0.04496  0.35498  1.0000
  C   C180      1.0  0.81859  0.06682  0.35451  1.0000
  H   H103      1.0  0.94641  0.19188  0.34512  1.0000
  H   H104      1.0  0.90953  0.17350  0.34810  1.0000
  H   H105      1.0  0.94618  0.13558  0.30294  1.0000
  H   H106      1.0  0.90930  0.11714  0.30445  1.0000
  H   H107      1.0  0.86504  0.07404  0.28976  1.0000
  H   H108      1.0  0.84638  0.03716  0.28935  1.0000
  H   H109      1.0  0.81078  0.07437  0.37212  1.0000
  H   H110      1.0  0.79213  0.03752  0.37083  1.0000
  H   H111      1.0  0.81024  0.11764  0.36075  1.0000
  H   H112      1.0  0.79211  0.13639  0.36441  1.0000
  H   H113      1.0  0.84837  0.19240  0.32049  1.0000
  H   H114      1.0  0.86656  0.17371  0.31541  1.0000
  C   C181      1.0  0.24968  0.52904  0.34339  1.0000
  N   N37       1.0  0.23963  0.50794  0.34582  1.0000
  C   C182      1.0  0.24991  0.49709  0.33956  1.0000
  N   N38       1.0  0.27095  0.50812  0.32971  1.0000
  C   C183      1.0  0.28160  0.52919  0.32539  1.0000
  N   N39       1.0  0.27062  0.53921  0.33259  1.0000
  C   C184      1.0  0.23896  0.47495  0.34154  1.0000
  C   C185      1.0  0.21782  0.46355  0.36741  1.0000
  C   C186      1.0  0.20696  0.44170  0.36835  1.0000
  C   C187      1.0  0.21668  0.43035  0.34187  1.0000
  C   C188      1.0  0.23784  0.44170  0.31648  1.0000
  C   C189      1.0  0.24878  0.46355  0.31682  1.0000
  C   C190      1.0  0.23908  0.54045  0.34972  1.0000
  C   C191      1.0  0.21831  0.53210  0.32009  1.0000
  C   C192      1.0  0.20883  0.54446  0.31764  1.0000
  C   C193      1.0  0.21961  0.56520  0.34825  1.0000
  C   C194      1.0  0.23998  0.57328  0.38165  1.0000
  C   C195      1.0  0.24959  0.56114  0.38172  1.0000
  C   C196      1.0  0.30346  0.54081  0.31450  1.0000
  C   C197      1.0  0.31264  0.55977  0.26694  1.0000
  C   C198      1.0  0.33432  0.57249  0.26240  1.0000
  C   C199      1.0  0.34757  0.56694  0.30731  1.0000
  C   C200      1.0  0.33846  0.54775  0.35318  1.0000
  C   C201      1.0  0.31670  0.53464  0.35513  1.0000
  H   H115      1.0  0.19424  0.53840  0.29127  1.0000
  H   H116      1.0  0.21035  0.51738  0.29456  1.0000
  H   H117      1.0  0.24846  0.58846  0.40165  1.0000
  H   H118      1.0  0.26460  0.56782  0.40389  1.0000
  H   H119      1.0  0.30361  0.56480  0.23656  1.0000
  H   H120      1.0  0.34022  0.58655  0.23102  1.0000
  H   H121      1.0  0.31062  0.52125  0.39181  1.0000
  H   H122      1.0  0.34758  0.54343  0.38760  1.0000
  H   H123      1.0  0.26402  0.47101  0.29747  1.0000
  H   H124      1.0  0.24569  0.43419  0.29893  1.0000
  H   H125      1.0  0.19165  0.43416  0.38680  1.0000
  H   H126      1.0  0.21001  0.47101  0.38643  1.0000
  C   C202      1.0  0.45641  0.70701  0.34275  1.0000
  N   N40       1.0  0.47751  0.71805  0.34534  1.0000
  C   C203      1.0  0.48837  0.73918  0.33924  1.0000
  N   N41       1.0  0.47735  0.74921  0.32942  1.0000
  C   C204      1.0  0.45628  0.73879  0.32494  1.0000
  N   N42       1.0  0.44625  0.71779  0.33198  1.0000
  C   C205      1.0  0.51050  0.75036  0.34133  1.0000
  C   C206      1.0  0.52190  0.74062  0.36717  1.0000
  C   C207      1.0  0.54375  0.75161  0.36821  1.0000
  C   C208      1.0  0.55511  0.77269  0.34183  1.0000
  C   C209      1.0  0.54376  0.78250  0.31648  1.0000
  C   C210      1.0  0.52191  0.77159  0.31673  1.0000
  C   C211      1.0  0.44499  0.68499  0.34893  1.0000
  C   C212      1.0  0.45337  0.67257  0.31979  1.0000
  C   C213      1.0  0.44103  0.65072  0.31744  1.0000
  C   C214      1.0  0.42025  0.64076  0.34753  1.0000
  C   C215      1.0  0.41210  0.65305  0.38014  1.0000
  C   C216      1.0  0.42424  0.67481  0.38028  1.0000
  C   C217      1.0  0.44467  0.74904  0.31415  1.0000
  C   C218      1.0  0.42572  0.73928  0.26645  1.0000
  C   C219      1.0  0.41298  0.74822  0.26226  1.0000
  C   C220      1.0  0.41849  0.76697  0.30752  1.0000
  C   C221      1.0  0.43769  0.77704  0.35339  1.0000
  C   C222      1.0  0.45081  0.76842  0.35509  1.0000
  H   H127      1.0  0.44715  0.64219  0.29161  1.0000
  H   H128      1.0  0.46816  0.67933  0.29497  1.0000
  H   H129      1.0  0.39688  0.64634  0.39965  1.0000
  H   H130      1.0  0.41751  0.68313  0.40196  1.0000
  H   H131      1.0  0.42071  0.72526  0.23586  1.0000
  H   H132      1.0  0.39892  0.74008  0.23074  1.0000
  H   H133      1.0  0.46418  0.77568  0.39194  1.0000
  H   H134      1.0  0.44197  0.79044  0.38814  1.0000
  H   H135      1.0  0.51446  0.77939  0.29743  1.0000
  H   H136      1.0  0.55127  0.79787  0.29904  1.0000
  H   H137      1.0  0.55129  0.74383  0.38663  1.0000
  H   H138      1.0  0.51443  0.72535  0.38611  1.0000
  C   C223      1.0  0.27840  0.73577  0.34322  1.0000
  N   N43       1.0  0.26735  0.74582  0.34564  1.0000
  C   C224      1.0  0.24622  0.73555  0.33932  1.0000
  N   N44       1.0  0.23620  0.71451  0.32944  1.0000
  C   C225      1.0  0.24663  0.70386  0.32513  1.0000
  N   N45       1.0  0.26763  0.71483  0.33239  1.0000
  C   C226      1.0  0.23504  0.74650  0.34132  1.0000
  C   C227      1.0  0.24478  0.76764  0.36720  1.0000
  C   C228      1.0  0.23379  0.77851  0.36817  1.0000
  C   C229      1.0  0.21272  0.76878  0.34172  1.0000
  C   C230      1.0  0.20291  0.74763  0.31632  1.0000
  C   C231      1.0  0.21382  0.73668  0.31662  1.0000
  C   C232      1.0  0.30041  0.74637  0.34961  1.0000
  C   C233      1.0  0.31284  0.76713  0.31991  1.0000
  C   C234      1.0  0.33468  0.77660  0.31753  1.0000
  C   C235      1.0  0.34463  0.76582  0.34826  1.0000
  C   C236      1.0  0.33233  0.74546  0.38174  1.0000
  C   C237      1.0  0.31057  0.73585  0.38176  1.0000
  C   C238      1.0  0.23639  0.68200  0.31426  1.0000
  C   C239      1.0  0.24618  0.67282  0.26673  1.0000
  C   C240      1.0  0.23723  0.65114  0.26237  1.0000
  C   C241      1.0  0.21845  0.63788  0.30741  1.0000
  C   C242      1.0  0.20836  0.64701  0.35320  1.0000
  C   C243      1.0  0.21698  0.66876  0.35493  1.0000
  H   H139      1.0  0.34322  0.79118  0.29109  1.0000
  H   H140      1.0  0.30609  0.77509  0.29429  1.0000
  H   H141      1.0  0.33902  0.73698  0.40184  1.0000
  H   H142      1.0  0.30223  0.72084  0.40398  1.0000
  H   H143      1.0  0.26023  0.68184  0.23632  1.0000
  H   H144      1.0  0.24540  0.64523  0.23108  1.0000
  H   H145      1.0  0.20969  0.67484  0.39171  1.0000
  H   H146      1.0  0.19494  0.63789  0.38777  1.0000
  H   H147      1.0  0.20603  0.72144  0.29727  1.0000
  H   H148      1.0  0.18755  0.73978  0.29879  1.0000
  H   H149      1.0  0.24157  0.79382  0.38663  1.0000
  H   H150      1.0  0.26005  0.77545  0.38620  1.0000
  C   C244      1.0  0.74001  0.45218  0.34269  1.0000
  N   N46       1.0  0.75006  0.47328  0.34530  1.0000
  C   C245      1.0  0.73979  0.48414  0.33920  1.0000
  N   N47       1.0  0.71875  0.47313  0.32936  1.0000
  C   C246      1.0  0.70809  0.45206  0.32488  1.0000
  N   N48       1.0  0.71907  0.44202  0.33190  1.0000
  C   C247      1.0  0.75074  0.50628  0.34131  1.0000
  C   C248      1.0  0.77189  0.51767  0.36717  1.0000
  C   C249      1.0  0.78275  0.53952  0.36821  1.0000
  C   C250      1.0  0.77302  0.55088  0.34184  1.0000
  C   C251      1.0  0.75187  0.53954  0.31647  1.0000
  C   C252      1.0  0.74093  0.51768  0.31672  1.0000
  C   C253      1.0  0.75060  0.44076  0.34888  1.0000
  C   C254      1.0  0.77141  0.44915  0.31985  1.0000
  C   C255      1.0  0.78093  0.43682  0.31752  1.0000
  C   C256      1.0  0.77010  0.41603  0.34754  1.0000
  C   C257      1.0  0.74965  0.40787  0.38003  1.0000
  C   C258      1.0  0.74003  0.42000  0.38014  1.0000
  C   C259      1.0  0.68623  0.44044  0.31409  1.0000
  C   C260      1.0  0.67704  0.42150  0.26640  1.0000
  C   C261      1.0  0.65536  0.40875  0.26223  1.0000
  C   C262      1.0  0.64212  0.41427  0.30751  1.0000
  C   C263      1.0  0.65125  0.43347  0.35336  1.0000
  C   C264      1.0  0.67300  0.44659  0.35504  1.0000
  H   H151      1.0  0.79558  0.44293  0.29177  1.0000
  H   H152      1.0  0.77945  0.46394  0.29508  1.0000
  H   H153      1.0  0.74113  0.39264  0.39948  1.0000
  H   H154      1.0  0.72497  0.41327  0.40175  1.0000
  H   H155      1.0  0.68605  0.41648  0.23580  1.0000
  H   H156      1.0  0.64944  0.39470  0.23072  1.0000
  H   H157      1.0  0.67910  0.45995  0.39189  1.0000
  H   H158      1.0  0.64214  0.43775  0.38812  1.0000
  H   H159      1.0  0.72568  0.51024  0.29740  1.0000
  H   H160      1.0  0.74402  0.54705  0.29903  1.0000
  H   H161      1.0  0.79806  0.54706  0.38665  1.0000
  H   H162      1.0  0.77969  0.51020  0.38610  1.0000
  C   C265      1.0  0.53325  0.27417  0.34349  1.0000
  N   N49       1.0  0.51216  0.26313  0.34588  1.0000
  C   C266      1.0  0.50130  0.24200  0.33956  1.0000
  N   N50       1.0  0.51233  0.23198  0.32971  1.0000
  C   C267      1.0  0.53341  0.24241  0.32543  1.0000
  N   N51       1.0  0.54343  0.26341  0.33268  1.0000
  C   C268      1.0  0.47917  0.23081  0.34152  1.0000
  C   C269      1.0  0.46777  0.24055  0.36740  1.0000
  C   C270      1.0  0.44592  0.22956  0.36833  1.0000
  C   C271      1.0  0.43456  0.20849  0.34184  1.0000
  C   C272      1.0  0.44592  0.19869  0.31644  1.0000
  C   C273      1.0  0.46777  0.20959  0.31678  1.0000
  C   C274      1.0  0.54466  0.29618  0.34987  1.0000
  C   C275      1.0  0.53633  0.30861  0.32005  1.0000
  C   C276      1.0  0.54870  0.33045  0.31762  1.0000
  C   C277      1.0  0.56942  0.34041  0.34843  1.0000
  C   C278      1.0  0.57747  0.32811  0.38204  1.0000
  C   C279      1.0  0.56533  0.30635  0.38208  1.0000
  C   C280      1.0  0.54502  0.23217  0.31452  1.0000
  C   C281      1.0  0.56399  0.24196  0.26699  1.0000
  C   C282      1.0  0.57671  0.23300  0.26245  1.0000
  C   C283      1.0  0.57116  0.21419  0.30732  1.0000
  C   C284      1.0  0.55196  0.20410  0.35315  1.0000
  C   C285      1.0  0.53885  0.21275  0.35511  1.0000
  H   H163      1.0  0.54266  0.33898  0.29108  1.0000
  H   H164      1.0  0.52162  0.30185  0.29436  1.0000
  H   H165      1.0  0.59265  0.33481  0.40218  1.0000
  H   H166      1.0  0.57200  0.29802  0.40439  1.0000
  H   H167      1.0  0.56903  0.25602  0.23665  1.0000
  H   H168      1.0  0.59078  0.24116  0.23111  1.0000
  H   H169      1.0  0.52546  0.20544  0.39177  1.0000
  H   H170      1.0  0.54764  0.19066  0.38755  1.0000
  H   H171      1.0  0.47522  0.20181  0.29744  1.0000
  H   H172      1.0  0.43841  0.18333  0.29889  1.0000
  H   H173      1.0  0.43837  0.23733  0.38678  1.0000
  H   H174      1.0  0.47523  0.25582  0.38643  1.0000
  C   C286      1.0  0.71123  0.24545  0.34318  1.0000
  N   N52       1.0  0.72228  0.23540  0.34571  1.0000
  C   C287      1.0  0.74341  0.24568  0.33960  1.0000
  N   N53       1.0  0.75343  0.26673  0.32980  1.0000
  C   C288      1.0  0.74301  0.27738  0.32540  1.0000
  N   N54       1.0  0.72200  0.26639  0.33244  1.0000
  C   C289      1.0  0.75459  0.23473  0.34161  1.0000
  C   C290      1.0  0.74485  0.21359  0.36743  1.0000
  C   C291      1.0  0.75584  0.20273  0.36839  1.0000
  C   C292      1.0  0.77692  0.21246  0.34197  1.0000
  C   C293      1.0  0.78673  0.23361  0.31663  1.0000
  C   C294      1.0  0.77582  0.24455  0.31695  1.0000
  C   C295      1.0  0.68921  0.23485  0.34931  1.0000
  C   C296      1.0  0.67680  0.21405  0.32002  1.0000
  C   C297      1.0  0.65495  0.20454  0.31759  1.0000
  C   C298      1.0  0.64498  0.21534  0.34776  1.0000
  C   C299      1.0  0.65726  0.23577  0.38054  1.0000
  C   C300      1.0  0.67901  0.24539  0.38075  1.0000
  C   C301      1.0  0.75325  0.29924  0.31455  1.0000
  C   C302      1.0  0.74347  0.30842  0.26697  1.0000
  C   C303      1.0  0.75243  0.33010  0.26254  1.0000
  C   C304      1.0  0.77124  0.34335  0.30740  1.0000
  C   C305      1.0  0.78132  0.33423  0.35325  1.0000
  C   C306      1.0  0.77265  0.31248  0.35526  1.0000
  H   H175      1.0  0.64643  0.18990  0.29164  1.0000
  H   H176      1.0  0.68357  0.20604  0.29512  1.0000
  H   H177      1.0  0.65054  0.24427  0.40010  1.0000
  H   H178      1.0  0.68733  0.26044  0.40254  1.0000
  H   H179      1.0  0.72942  0.29940  0.23656  1.0000
  H   H180      1.0  0.74429  0.33601  0.23106  1.0000
  H   H181      1.0  0.77995  0.30638  0.39190  1.0000
  H   H182      1.0  0.79475  0.34335  0.38773  1.0000
  H   H183      1.0  0.78361  0.25980  0.29766  1.0000
  H   H184      1.0  0.80209  0.24147  0.29915  1.0000
  H   H185      1.0  0.74807  0.18741  0.38682  1.0000
  H   H186      1.0  0.72958  0.20578  0.38641  1.0000
  C   C307      1.0  0.18191  0.36470  0.34649  1.0000
  C   C308      1.0  0.20542  0.40823  0.34198  1.0000
  N   N55       1.0  0.19049  0.39791  0.40464  1.0000
  C   C309      1.0  0.17883  0.37690  0.41052  1.0000
  O   O13       1.0  0.16473  0.36857  0.47837  1.0000
  C   C310      1.0  0.17345  0.36547  0.55845  1.0000
  H   H187      1.0  0.16122  0.35881  0.60862  1.0000
  H   H188      1.0  0.18604  0.38015  0.58427  1.0000
  H   H189      1.0  0.17916  0.35464  0.54771  1.0000
  C   C311      1.0  0.62075  0.80359  0.34664  1.0000
  C   C312      1.0  0.57722  0.78354  0.34201  1.0000
  N   N56       1.0  0.58754  0.77894  0.40467  1.0000
  C   C313      1.0  0.60855  0.78829  0.41060  1.0000
  O   O14       1.0  0.61688  0.78251  0.47843  1.0000
  C   C314      1.0  0.61997  0.79431  0.55856  1.0000
  H   H190      1.0  0.62662  0.78873  0.60871  1.0000
  H   H191      1.0  0.60528  0.79221  0.58437  1.0000
  H   H192      1.0  0.63080  0.81085  0.54788  1.0000
  C   C315      1.0  0.18184  0.80355  0.34646  1.0000
  C   C316      1.0  0.20187  0.78005  0.34187  1.0000
  N   N57       1.0  0.20647  0.79497  0.40453  1.0000
  C   C317      1.0  0.19713  0.80664  0.41044  1.0000
  O   O15       1.0  0.20290  0.82073  0.47829  1.0000
  C   C318      1.0  0.19110  0.81202  0.55840  1.0000
  H   H193      1.0  0.19667  0.82425  0.60857  1.0000
  H   H194      1.0  0.19320  0.79944  0.58421  1.0000
  H   H195      1.0  0.17456  0.80631  0.54771  1.0000
  C   C319      1.0  0.80778  0.61653  0.34664  1.0000
  C   C320      1.0  0.78429  0.57300  0.34202  1.0000
  N   N58       1.0  0.79921  0.58331  0.40469  1.0000
  C   C321      1.0  0.81087  0.60432  0.41062  1.0000
  O   O16       1.0  0.82497  0.61265  0.47847  1.0000
  C   C322      1.0  0.81626  0.61574  0.55858  1.0000
  H   H196      1.0  0.82849  0.62239  0.60874  1.0000
  H   H197      1.0  0.80367  0.60105  0.58438  1.0000
  H   H198      1.0  0.81055  0.62657  0.54787  1.0000
  C   C323      1.0  0.36892  0.17761  0.34646  1.0000
  C   C324      1.0  0.41245  0.19764  0.34195  1.0000
  N   N59       1.0  0.40213  0.20224  0.40461  1.0000
  C   C325      1.0  0.38111  0.19290  0.41049  1.0000
  O   O17       1.0  0.37279  0.19867  0.47833  1.0000
  C   C326      1.0  0.36968  0.18685  0.55842  1.0000
  H   H199      1.0  0.36303  0.19243  0.60859  1.0000
  H   H200      1.0  0.38437  0.18896  0.58425  1.0000
  H   H201      1.0  0.35886  0.17032  0.54770  1.0000
  C   C327      1.0  0.80781  0.17770  0.34661  1.0000
  C   C328      1.0  0.78778  0.20120  0.34209  1.0000
  N   N60       1.0  0.78317  0.18627  0.40474  1.0000
  C   C329      1.0  0.79253  0.17461  0.41062  1.0000
  O   O18       1.0  0.78675  0.16050  0.47844  1.0000
  C   C330      1.0  0.79857  0.16921  0.55854  1.0000
  H   H202      1.0  0.79299  0.15698  0.60870  1.0000
  H   H203      1.0  0.79646  0.18180  0.58439  1.0000
  H   H204      1.0  0.81510  0.17492  0.54783  1.0000
  N   N61       1.0  0.19603  0.20442  0.38426  1.0000
  C   C331      1.0  0.20762  0.19504  0.39037  1.0000
  H   H205      1.0  0.21827  0.19932  0.44051  1.0000
  N   N62       1.0  0.78102  0.97802  0.38423  1.0000
  C   C332      1.0  0.79040  0.99899  0.39033  1.0000
  H   H206      1.0  0.78613  0.00536  0.44055  1.0000
  N   N63       1.0  0.00744  0.78943  0.38429  1.0000
  C   C333      1.0  0.98646  0.77784  0.39042  1.0000
  H   H207      1.0  0.98010  0.76719  0.44059  1.0000
  N   N64       1.0  0.79363  0.77681  0.38424  1.0000
  C   C334      1.0  0.78204  0.78619  0.39035  1.0000
  H   H208      1.0  0.77141  0.78193  0.44059  1.0000
  N   N65       1.0  0.20863  0.00323  0.38426  1.0000
  C   C335      1.0  0.19924  0.98225  0.39038  1.0000
  H   H209      1.0  0.20352  0.97588  0.44054  1.0000
  N   N66       1.0  0.98223  0.19183  0.38422  1.0000
  C   C336      1.0  0.00320  0.20342  0.39031  1.0000
  H   H210      1.0  0.00957  0.21406  0.44052  1.0000
  N   N67       1.0  0.21079  0.58959  0.40646  1.0000
  C   C337      1.0  0.20957  0.60715  0.40020  1.0000
  H   H211      1.0  0.20989  0.61477  0.45740  1.0000
  N   N68       1.0  0.39587  0.60763  0.40578  1.0000
  C   C338      1.0  0.37832  0.58882  0.39969  1.0000
  H   H212      1.0  0.37068  0.58168  0.45705  1.0000
  N   N69       1.0  0.37783  0.77461  0.40650  1.0000
  C   C339      1.0  0.39661  0.77584  0.40024  1.0000
  H   H213      1.0  0.40390  0.77551  0.45746  1.0000
  N   N70       1.0  0.77885  0.39165  0.40583  1.0000
  C   C340      1.0  0.78011  0.37410  0.39977  1.0000
  H   H214      1.0  0.77960  0.36646  0.45713  1.0000
  N   N71       1.0  0.59383  0.37361  0.40659  1.0000
  C   C341      1.0  0.61139  0.39240  0.40028  1.0000
  H   H215      1.0  0.61900  0.39969  0.45749  1.0000
  N   N72       1.0  0.61184  0.20658  0.40590  1.0000
  C   C342      1.0  0.59302  0.20531  0.39975  1.0000
  H   H216      1.0  0.58587  0.20580  0.45709  1.0000
