data_image0
_chemical_formula_structural       C8H3NO2C8H3NO2C2HC2HC2H4C2HC2HC2H4C8H3NO2C8H3NO2C2HC2HC2H4C2HC2HC2H4C8H3NO2C8H3NO2C8H3NO2C8H3NO2C2HC2HC2H4C2HC2HC2H4C8H3NO2C8H3NO2C2HC2HC2H4C2HC2HC2H4C8H3NO2C8H3NO2C2HC2HC2H4C2HC2HC2H4C8H3NO2C8H3NO2CNCNCNCNCNCNCNCNCNCNCNCNCNCNCNCNCNCNCNCNCNCNCNCNCNCNCNCNCNCNCNCNCNCNCNCNCNCNCNCNCNCNCNCNCNCNCNCNC2HC2HC2H4C2HC2HC2H4C8H3NO2C8H3NO2C2HC2HC2H4C2HC2HC2H4C8H3NO2C8H3NO2C2HC2HC2H4C2HC2HC2H4C2HC2HC2H4C2HC2HC2H4C8H3NO2C8H3NO2C2HC2HC2H4C2HC2HC2H4C8H3NO2C8H3NO2C2HC2HC2H4C2HC2HC2H4C8H3NO2C8H3NO2C2HC2HC2H4C2HC2HC2H4
_chemical_formula_sum              "C384 H216 N72 O48"
_cell_length_a       66.5604
_cell_length_b       52.1936
_cell_length_c       14.9039
_cell_angle_alpha    90
_cell_angle_beta     90
_cell_angle_gamma    90

_space_group_name_H-M_alt    "P 1"
_space_group_IT_number       1

loop_
  _space_group_symop_operation_xyz
  'x, y, z'

loop_
  _atom_site_type_symbol
  _atom_site_label
  _atom_site_symmetry_multiplicity
  _atom_site_fract_x
  _atom_site_fract_y
  _atom_site_fract_z
  _atom_site_occupancy
  C   C1        1.0  0.00382  0.93339  0.33678  1.0000
  C   C2        1.0  0.02007  0.94662  0.29721  1.0000
  C   C3        1.0  0.02098  0.97377  0.29321  1.0000
  C   C4        1.0  0.00561  0.98889  0.33397  1.0000
  C   C5        1.0  0.00541  0.01679  0.33491  1.0000
  C   C6        1.0  0.02308  0.03192  0.33867  1.0000
  C   C7        1.0  0.02239  0.05888  0.34057  1.0000
  C   C8        1.0  0.00395  0.07240  0.34109  1.0000
  H   H1        1.0  0.03688  0.02354  0.34354  1.0000
  H   H2        1.0  0.03575  0.06855  0.34256  1.0000
  H   H3        1.0  0.03131  0.93636  0.26707  1.0000
  N   N1        1.0  0.03645  0.98544  0.24227  1.0000
  O   O1        1.0  0.05364  0.97970  0.27104  1.0000
  O   O2        1.0  0.03540  0.97952  0.16064  1.0000
  C   C9        1.0  0.50379  0.43337  0.33669  1.0000
  C   C10       1.0  0.52013  0.44660  0.29776  1.0000
  C   C11       1.0  0.52105  0.47375  0.29380  1.0000
  C   C12       1.0  0.50562  0.48889  0.33401  1.0000
  C   C13       1.0  0.50542  0.51680  0.33492  1.0000
  C   C14       1.0  0.52309  0.53194  0.33909  1.0000
  C   C15       1.0  0.52239  0.55890  0.34098  1.0000
  C   C16       1.0  0.50396  0.57243  0.34098  1.0000
  H   H4        1.0  0.53687  0.52356  0.34449  1.0000
  H   H5        1.0  0.53575  0.56857  0.34341  1.0000
  H   H6        1.0  0.53141  0.43634  0.26798  1.0000
  N   N2        1.0  0.53663  0.48541  0.24347  1.0000
  O   O3        1.0  0.55375  0.47966  0.27291  1.0000
  O   O4        1.0  0.53573  0.47949  0.16180  1.0000
  C   C17       1.0  0.07387  0.16467  0.30836  1.0000
  C   C18       1.0  0.05656  0.14883  0.30332  1.0000
  H   H7        1.0  0.05664  0.13320  0.26182  1.0000
  C   C19       1.0  0.12760  0.21050  0.32929  1.0000
  C   C20       1.0  0.11042  0.19423  0.33215  1.0000
  H   H8        1.0  0.14117  0.20301  0.31048  1.0000
  C   C21       1.0  0.11175  0.16686  0.30446  1.0000
  C   C22       1.0  0.09225  0.15802  0.25587  1.0000
  H   H9        1.0  0.11399  0.15520  0.36458  1.0000
  H   H10       1.0  0.12454  0.16366  0.25980  1.0000
  H   H11       1.0  0.09321  0.13736  0.24456  1.0000
  H   H12       1.0  0.09128  0.16740  0.19039  1.0000
  C   C23       1.0  0.93222  0.84186  0.30940  1.0000
  C   C24       1.0  0.94955  0.85766  0.30403  1.0000
  H   H13       1.0  0.94968  0.87282  0.26044  1.0000
  C   C25       1.0  0.87854  0.79591  0.32885  1.0000
  C   C26       1.0  0.89564  0.81231  0.33238  1.0000
  H   H14       1.0  0.86508  0.80316  0.30755  1.0000
  C   C27       1.0  0.89438  0.83944  0.30188  1.0000
  C   C28       1.0  0.91410  0.84796  0.25437  1.0000
  H   H15       1.0  0.89183  0.85157  0.36061  1.0000
  H   H16       1.0  0.88181  0.84224  0.25570  1.0000
  H   H17       1.0  0.91314  0.86852  0.24085  1.0000
  H   H18       1.0  0.91543  0.83804  0.19000  1.0000
  C   C29       1.0  0.96678  0.15354  0.33238  1.0000
  C   C30       1.0  0.96556  0.17359  0.26922  1.0000
  C   C31       1.0  0.94826  0.18923  0.26083  1.0000
  C   C32       1.0  0.93180  0.18598  0.32113  1.0000
  C   C33       1.0  0.91436  0.20271  0.32340  1.0000
  C   C34       1.0  0.91570  0.22913  0.30330  1.0000
  C   C35       1.0  0.89892  0.24534  0.30812  1.0000
  C   C36       1.0  0.87978  0.23640  0.33570  1.0000
  H   H19       1.0  0.92916  0.23743  0.28838  1.0000
  H   H20       1.0  0.90109  0.26415  0.29117  1.0000
  H   H21       1.0  0.97732  0.17659  0.22610  1.0000
  N   N3        1.0  0.94707  0.20668  0.18814  1.0000
  O   O5        1.0  0.96119  0.22270  0.18883  1.0000
  O   O6        1.0  0.94712  0.19528  0.11385  1.0000
  C   C37       1.0  0.03906  0.85168  0.32930  1.0000
  C   C38       1.0  0.04048  0.83232  0.26372  1.0000
  C   C39       1.0  0.05792  0.81699  0.25398  1.0000
  C   C40       1.0  0.07424  0.81972  0.31543  1.0000
  C   C41       1.0  0.09186  0.80326  0.31605  1.0000
  C   C42       1.0  0.09087  0.77711  0.29161  1.0000
  C   C43       1.0  0.10776  0.76107  0.29573  1.0000
  C   C44       1.0  0.12667  0.76992  0.32668  1.0000
  H   H22       1.0  0.07755  0.76880  0.27446  1.0000
  H   H23       1.0  0.10585  0.74244  0.27600  1.0000
  H   H24       1.0  0.02884  0.82978  0.21963  1.0000
  N   N4        1.0  0.05944  0.80047  0.17879  1.0000
  O   O7        1.0  0.04544  0.78430  0.17626  1.0000
  O   O8        1.0  0.05951  0.81278  0.10630  1.0000
  C   C45       1.0  0.57388  0.66478  0.30852  1.0000
  C   C46       1.0  0.55655  0.64898  0.30319  1.0000
  H   H25       1.0  0.55657  0.63350  0.26101  1.0000
  C   C47       1.0  0.62765  0.71047  0.32806  1.0000
  C   C48       1.0  0.61049  0.69418  0.33207  1.0000
  H   H26       1.0  0.64111  0.70307  0.30727  1.0000
  C   C49       1.0  0.61174  0.66689  0.30339  1.0000
  C   C50       1.0  0.59215  0.65828  0.25508  1.0000
  H   H27       1.0  0.61402  0.65506  0.36305  1.0000
  H   H28       1.0  0.62446  0.66375  0.25830  1.0000
  H   H29       1.0  0.59307  0.63765  0.24282  1.0000
  H   H30       1.0  0.59108  0.66789  0.19005  1.0000
  C   C51       1.0  0.43216  0.34177  0.30965  1.0000
  C   C52       1.0  0.44951  0.35755  0.30406  1.0000
  H   H31       1.0  0.44967  0.37262  0.26007  1.0000
  C   C53       1.0  0.37848  0.29592  0.32788  1.0000
  C   C54       1.0  0.39555  0.31234  0.33243  1.0000
  H   H32       1.0  0.36511  0.30310  0.30509  1.0000
  C   C55       1.0  0.39435  0.33942  0.30140  1.0000
  C   C56       1.0  0.41412  0.34778  0.25404  1.0000
  H   H33       1.0  0.39180  0.35164  0.35987  1.0000
  H   H34       1.0  0.38181  0.34221  0.25502  1.0000
  H   H35       1.0  0.41319  0.36831  0.23993  1.0000
  H   H36       1.0  0.41550  0.33772  0.18999  1.0000
  C   C57       1.0  0.46684  0.65364  0.33183  1.0000
  C   C58       1.0  0.46564  0.67375  0.26886  1.0000
  C   C59       1.0  0.44833  0.68937  0.26036  1.0000
  C   C60       1.0  0.43181  0.68606  0.32035  1.0000
  C   C61       1.0  0.41433  0.70276  0.32252  1.0000
  C   C62       1.0  0.41558  0.72918  0.30221  1.0000
  C   C63       1.0  0.39881  0.74538  0.30772  1.0000
  C   C64       1.0  0.37975  0.73644  0.33640  1.0000
  H   H37       1.0  0.42902  0.73752  0.28704  1.0000
  H   H38       1.0  0.40093  0.76421  0.29111  1.0000
  H   H39       1.0  0.47742  0.67679  0.22594  1.0000
  N   N5        1.0  0.44720  0.70690  0.18787  1.0000
  O   O9        1.0  0.46131  0.72294  0.18911  1.0000
  O   O10       1.0  0.44734  0.69558  0.11342  1.0000
  C   C65       1.0  0.53898  0.35157  0.32877  1.0000
  C   C66       1.0  0.54035  0.33207  0.26368  1.0000
  C   C67       1.0  0.55780  0.31676  0.25385  1.0000
  C   C68       1.0  0.57420  0.31963  0.31483  1.0000
  C   C69       1.0  0.59186  0.30321  0.31544  1.0000
  C   C70       1.0  0.59095  0.27704  0.29117  1.0000
  C   C71       1.0  0.60784  0.26101  0.29598  1.0000
  C   C72       1.0  0.62668  0.26988  0.32767  1.0000
  H   H40       1.0  0.57765  0.26866  0.27404  1.0000
  H   H41       1.0  0.60595  0.24233  0.27688  1.0000
  H   H42       1.0  0.52867  0.32945  0.21984  1.0000
  N   N6        1.0  0.55923  0.30008  0.17905  1.0000
  O   O11       1.0  0.54524  0.28387  0.17739  1.0000
  O   O12       1.0  0.55917  0.31224  0.10623  1.0000
  C   C73       1.0  0.38739  0.04926  0.30536  1.0000
  C   C74       1.0  0.39580  0.06628  0.24205  1.0000
  C   C75       1.0  0.38978  0.09219  0.23636  1.0000
  C   C76       1.0  0.37525  0.10179  0.29788  1.0000
  C   C77       1.0  0.36986  0.12851  0.30389  1.0000
  C   C78       1.0  0.38403  0.14840  0.29071  1.0000
  C   C79       1.0  0.37870  0.17429  0.29963  1.0000
  C   C80       1.0  0.35896  0.18151  0.32359  1.0000
  H   H43       1.0  0.39876  0.14439  0.27785  1.0000
  H   H44       1.0  0.38951  0.18783  0.28787  1.0000
  H   H45       1.0  0.40687  0.05994  0.19977  1.0000
  N   N7        1.0  0.39768  0.10784  0.16703  1.0000
  O   O13       1.0  0.41653  0.10934  0.17034  1.0000
  O   O14       1.0  0.39271  0.09971  0.09081  1.0000
  C   C81       1.0  0.61781  0.95677  0.31144  1.0000
  C   C82       1.0  0.60957  0.93983  0.24748  1.0000
  C   C83       1.0  0.61580  0.91403  0.24096  1.0000
  C   C84       1.0  0.63030  0.90443  0.30267  1.0000
  C   C85       1.0  0.63591  0.87778  0.30754  1.0000
  C   C86       1.0  0.62190  0.85779  0.29297  1.0000
  C   C87       1.0  0.62743  0.83195  0.30057  1.0000
  C   C88       1.0  0.64719  0.82488  0.32477  1.0000
  H   H46       1.0  0.60717  0.86167  0.27982  1.0000
  H   H47       1.0  0.61674  0.81834  0.28779  1.0000
  H   H48       1.0  0.59862  0.94622  0.20467  1.0000
  N   N8        1.0  0.60825  0.89856  0.17041  1.0000
  O   O15       1.0  0.58940  0.89680  0.17244  1.0000
  O   O16       1.0  0.61339  0.90704  0.09489  1.0000
  C   C89       1.0  0.64052  0.08439  0.31733  1.0000
  C   C90       1.0  0.63411  0.05856  0.31276  1.0000
  H   H49       1.0  0.64042  0.04649  0.26651  1.0000
  C   C91       1.0  0.66086  0.16195  0.33102  1.0000
  C   C92       1.0  0.65531  0.13582  0.33695  1.0000
  H   H50       1.0  0.67500  0.16649  0.30908  1.0000
  C   C93       1.0  0.66928  0.11528  0.30659  1.0000
  C   C94       1.0  0.65747  0.09334  0.25992  1.0000
  H   H51       1.0  0.67715  0.10768  0.36522  1.0000
  H   H52       1.0  0.68054  0.12268  0.25987  1.0000
  H   H53       1.0  0.66792  0.07769  0.24561  1.0000
  H   H54       1.0  0.65137  0.10016  0.19611  1.0000
  C   C95       1.0  0.36568  0.92218  0.32900  1.0000
  C   C96       1.0  0.37194  0.94805  0.32384  1.0000
  H   H55       1.0  0.36508  0.96015  0.27924  1.0000
  C   C97       1.0  0.34554  0.84459  0.34445  1.0000
  C   C98       1.0  0.35114  0.87070  0.35039  1.0000
  H   H56       1.0  0.33120  0.84013  0.32505  1.0000
  C   C99       1.0  0.33686  0.89130  0.32369  1.0000
  C   C100      1.0  0.34815  0.91331  0.27500  1.0000
  H   H57       1.0  0.32965  0.89880  0.38419  1.0000
  H   H58       1.0  0.32507  0.88401  0.27936  1.0000
  H   H59       1.0  0.33755  0.92897  0.26313  1.0000
  H   H60       1.0  0.35357  0.90658  0.20987  1.0000
  C   C101      1.0  0.88732  0.54939  0.30926  1.0000
  C   C102      1.0  0.89535  0.56654  0.24550  1.0000
  C   C103      1.0  0.88922  0.59242  0.24106  1.0000
  C   C104      1.0  0.87504  0.60185  0.30453  1.0000
  C   C105      1.0  0.86963  0.62855  0.31187  1.0000
  C   C106      1.0  0.88367  0.64848  0.29712  1.0000
  C   C107      1.0  0.87834  0.67434  0.30687  1.0000
  C   C108      1.0  0.85876  0.68149  0.33357  1.0000
  H   H61       1.0  0.89832  0.64454  0.28228  1.0000
  H   H62       1.0  0.88905  0.68790  0.29372  1.0000
  H   H63       1.0  0.90619  0.56030  0.20187  1.0000
  N   N9        1.0  0.89665  0.60820  0.17108  1.0000
  O   O17       1.0  0.91551  0.60978  0.17206  1.0000
  O   O18       1.0  0.89122  0.60018  0.09535  1.0000
  C   C109      1.0  0.11797  0.45673  0.31553  1.0000
  C   C110      1.0  0.11015  0.43967  0.25099  1.0000
  C   C111      1.0  0.11647  0.41388  0.24592  1.0000
  C   C112      1.0  0.13053  0.40442  0.30988  1.0000
  C   C113      1.0  0.13615  0.37779  0.31615  1.0000
  C   C114      1.0  0.12229  0.35776  0.29963  1.0000
  C   C115      1.0  0.12783  0.33195  0.30806  1.0000
  C   C116      1.0  0.14740  0.32493  0.33533  1.0000
  H   H64       1.0  0.10766  0.36158  0.28422  1.0000
  H   H65       1.0  0.11725  0.31833  0.29358  1.0000
  H   H66       1.0  0.09949  0.44598  0.20658  1.0000
  N   N10       1.0  0.10945  0.39829  0.17458  1.0000
  O   O19       1.0  0.09061  0.39649  0.17386  1.0000
  O   O20       1.0  0.11515  0.40666  0.09970  1.0000
  C   C117      1.0  0.14034  0.58440  0.30931  1.0000
  C   C118      1.0  0.13391  0.55857  0.30638  1.0000
  H   H67       1.0  0.13986  0.54640  0.25948  1.0000
  C   C119      1.0  0.16087  0.66194  0.31858  1.0000
  C   C120      1.0  0.15531  0.63584  0.32551  1.0000
  H   H68       1.0  0.17483  0.66643  0.29448  1.0000
  C   C121      1.0  0.16900  0.61524  0.29315  1.0000
  C   C122      1.0  0.15680  0.59324  0.24892  1.0000
  H   H69       1.0  0.17737  0.60772  0.35051  1.0000
  H   H70       1.0  0.17985  0.62257  0.24437  1.0000
  H   H71       1.0  0.16711  0.57756  0.23312  1.0000
  H   H72       1.0  0.15017  0.59998  0.18607  1.0000
  C   C123      1.0  0.86594  0.42222  0.32137  1.0000
  C   C124      1.0  0.87223  0.44810  0.31784  1.0000
  H   H73       1.0  0.86565  0.46033  0.27286  1.0000
  C   C125      1.0  0.84557  0.34465  0.33255  1.0000
  C   C126      1.0  0.85120  0.37074  0.33949  1.0000
  H   H74       1.0  0.83134  0.34028  0.31144  1.0000
  C   C127      1.0  0.83713  0.39142  0.31138  1.0000
  C   C128      1.0  0.84876  0.41351  0.26482  1.0000
  H   H75       1.0  0.82952  0.39880  0.37105  1.0000
  H   H76       1.0  0.82565  0.38424  0.26526  1.0000
  H   H77       1.0  0.83827  0.42921  0.25196  1.0000
  H   H78       1.0  0.85462  0.40691  0.20028  1.0000
  C   C129      1.0  0.55697  0.00409  0.33325  1.0000
  C   C130      1.0  0.54702  0.02072  0.27374  1.0000
  C   C131      1.0  0.52582  0.02100  0.26736  1.0000
  C   C132      1.0  0.51419  0.00551  0.32670  1.0000
  C   C133      1.0  0.49254  0.00528  0.32739  1.0000
  C   C134      1.0  0.48099  0.02754  0.31073  1.0000
  C   C135      1.0  0.45994  0.02701  0.31377  1.0000
  C   C136      1.0  0.44947  0.00432  0.33614  1.0000
  H   H79       1.0  0.48770  0.04482  0.29956  1.0000
  H   H80       1.0  0.45239  0.04366  0.30039  1.0000
  H   H81       1.0  0.55527  0.03190  0.23085  1.0000
  N   N11       1.0  0.51664  0.03500  0.19690  1.0000
  O   O21       1.0  0.52090  0.05846  0.19998  1.0000
  O   O22       1.0  0.52153  0.02642  0.12117  1.0000
  C   C137      1.0  0.05706  0.50421  0.33328  1.0000
  C   C138      1.0  0.04706  0.52167  0.27690  1.0000
  C   C139      1.0  0.02586  0.52208  0.27082  1.0000
  C   C140      1.0  0.01424  0.50578  0.32748  1.0000
  C   C141      1.0  0.99258  0.50555  0.32829  1.0000
  C   C142      1.0  0.98102  0.52801  0.31558  1.0000
  C   C143      1.0  0.95996  0.52743  0.31843  1.0000
  C   C144      1.0  0.94949  0.50445  0.33687  1.0000
  H   H82       1.0  0.98772  0.54543  0.30728  1.0000
  H   H83       1.0  0.95241  0.54424  0.30793  1.0000
  H   H84       1.0  0.05528  0.53345  0.23591  1.0000
  N   N12       1.0  0.01665  0.53712  0.20310  1.0000
  O   O23       1.0  0.02094  0.56049  0.21038  1.0000
  O   O24       1.0  0.02149  0.52966  0.12585  1.0000
  C   C145      1.0  0.22964  0.23967  0.30306  1.0000
  C   C146      1.0  0.20840  0.24182  0.30569  1.0000
  H   H85       1.0  0.19978  0.22988  0.26707  1.0000
  C   C147      1.0  0.29288  0.22567  0.31628  1.0000
  C   C148      1.0  0.27188  0.22966  0.32019  1.0000
  H   H86       1.0  0.29786  0.20775  0.29957  1.0000
  C   C149      1.0  0.25790  0.20836  0.29694  1.0000
  C   C150      1.0  0.23901  0.21891  0.24877  1.0000
  H   H87       1.0  0.25345  0.19862  0.35878  1.0000
  H   H88       1.0  0.26508  0.19426  0.25312  1.0000
  H   H89       1.0  0.22859  0.20306  0.23715  1.0000
  H   H90       1.0  0.24329  0.22677  0.18347  1.0000
  C   C151      1.0  0.77661  0.76674  0.30282  1.0000
  C   C152      1.0  0.79785  0.76464  0.30560  1.0000
  H   H91       1.0  0.80647  0.77660  0.26709  1.0000
  C   C153      1.0  0.71337  0.78073  0.31622  1.0000
  C   C154      1.0  0.73437  0.77673  0.32005  1.0000
  H   H92       1.0  0.70840  0.79868  0.29975  1.0000
  C   C155      1.0  0.74835  0.79805  0.29706  1.0000
  C   C156      1.0  0.76723  0.78754  0.24874  1.0000
  H   H93       1.0  0.75280  0.80774  0.35900  1.0000
  H   H94       1.0  0.74117  0.81219  0.25340  1.0000
  H   H95       1.0  0.77766  0.80341  0.23727  1.0000
  H   H96       1.0  0.76295  0.77974  0.18337  1.0000
  C   C157      1.0  0.80741  0.26131  0.33004  1.0000
  C   C158      1.0  0.79508  0.27772  0.27843  1.0000
  C   C159      1.0  0.77385  0.27566  0.27732  1.0000
  C   C160      1.0  0.76408  0.25728  0.33304  1.0000
  C   C161      1.0  0.74236  0.25408  0.33757  1.0000
  C   C162      1.0  0.72828  0.27431  0.32671  1.0000
  C   C163      1.0  0.70733  0.27016  0.33010  1.0000
  C   C164      1.0  0.69930  0.24555  0.34631  1.0000
  H   H97       1.0  0.73305  0.29273  0.31854  1.0000
  H   H98       1.0  0.69795  0.28541  0.31986  1.0000
  H   H99       1.0  0.80167  0.29138  0.23880  1.0000
  N   N13       1.0  0.76277  0.29093  0.21623  1.0000
  O   O25       1.0  0.76538  0.31449  0.22968  1.0000
  O   O26       1.0  0.76719  0.28592  0.13611  1.0000
  C   C165      1.0  0.19914  0.74536  0.32480  1.0000
  C   C166      1.0  0.21169  0.72911  0.27361  1.0000
  C   C167      1.0  0.23292  0.73117  0.27439  1.0000
  C   C168      1.0  0.24244  0.74938  0.33161  1.0000
  C   C169      1.0  0.26414  0.75255  0.33817  1.0000
  C   C170      1.0  0.27825  0.73232  0.32795  1.0000
  C   C171      1.0  0.29918  0.73643  0.33325  1.0000
  C   C172      1.0  0.30716  0.76099  0.35097  1.0000
  H   H100      1.0  0.27350  0.71393  0.31870  1.0000
  H   H101      1.0  0.30859  0.72119  0.32333  1.0000
  H   H102      1.0  0.20527  0.71555  0.23301  1.0000
  N   N14       1.0  0.24426  0.71605  0.21380  1.0000
  O   O27       1.0  0.24159  0.69246  0.22627  1.0000
  O   O28       1.0  0.24019  0.72127  0.13348  1.0000
  C   C173      1.0  0.98499  0.13932  0.34011  1.0000
  N   N15       1.0  0.98567  0.11322  0.34052  1.0000
  C   C174      1.0  0.00340  0.09995  0.34209  1.0000
  N   N16       1.0  0.02074  0.11401  0.34358  1.0000
  C   C175      1.0  0.02084  0.14008  0.34444  1.0000
  N   N17       1.0  0.00276  0.15216  0.34228  1.0000
  C   C176      1.0  0.02099  0.86609  0.33734  1.0000
  N   N18       1.0  0.02079  0.89215  0.33609  1.0000
  C   C177      1.0  0.00335  0.90594  0.33915  1.0000
  N   N19       1.0  0.98570  0.89260  0.34395  1.0000
  C   C178      1.0  0.98520  0.86649  0.34578  1.0000
  N   N20       1.0  0.00303  0.85377  0.34197  1.0000
  C   C179      1.0  0.48503  0.63940  0.33967  1.0000
  N   N21       1.0  0.48570  0.61330  0.34010  1.0000
  C   C180      1.0  0.50342  0.59999  0.34194  1.0000
  N   N22       1.0  0.52077  0.61404  0.34372  1.0000
  C   C181      1.0  0.52088  0.64011  0.34462  1.0000
  N   N23       1.0  0.50281  0.65223  0.34218  1.0000
  C   C182      1.0  0.52092  0.36601  0.33686  1.0000
  N   N24       1.0  0.52073  0.39207  0.33569  1.0000
  C   C183      1.0  0.50331  0.40590  0.33899  1.0000
  N   N25       1.0  0.48565  0.39257  0.34401  1.0000
  C   C184      1.0  0.48513  0.36645  0.34586  1.0000
  N   N26       1.0  0.50295  0.35371  0.34179  1.0000
  C   C185      1.0  0.39735  0.98116  0.35850  1.0000
  N   N27       1.0  0.38687  0.00303  0.34020  1.0000
  C   C186      1.0  0.39674  0.02528  0.32089  1.0000
  N   N28       1.0  0.41713  0.02504  0.32078  1.0000
  C   C187      1.0  0.42811  0.00381  0.33829  1.0000
  N   N29       1.0  0.41774  0.98212  0.35659  1.0000
  C   C188      1.0  0.60890  0.02569  0.35241  1.0000
  N   N30       1.0  0.61899  0.00322  0.33947  1.0000
  C   C189      1.0  0.60870  0.98095  0.32508  1.0000
  N   N31       1.0  0.58830  0.98160  0.32465  1.0000
  C   C190      1.0  0.57804  0.00367  0.33634  1.0000
  N   N32       1.0  0.58851  0.02550  0.34943  1.0000
  C   C191      1.0  0.89739  0.48107  0.35669  1.0000
  N   N33       1.0  0.88688  0.50303  0.34028  1.0000
  C   C192      1.0  0.89674  0.52540  0.32304  1.0000
  N   N34       1.0  0.91713  0.52523  0.32297  1.0000
  C   C193      1.0  0.92813  0.50389  0.33881  1.0000
  N   N35       1.0  0.91778  0.48205  0.35518  1.0000
  C   C194      1.0  0.10906  0.52581  0.35056  1.0000
  N   N36       1.0  0.11914  0.50326  0.33964  1.0000
  C   C195      1.0  0.10882  0.48095  0.32715  1.0000
  N   N37       1.0  0.08842  0.48161  0.32643  1.0000
  C   C196      1.0  0.07816  0.50376  0.33626  1.0000
  N   N38       1.0  0.08867  0.52566  0.34769  1.0000
  C   C197      1.0  0.14309  0.25437  0.34476  1.0000
  N   N39       1.0  0.16302  0.24773  0.34882  1.0000
  C   C198      1.0  0.17788  0.26598  0.35096  1.0000
  N   N40       1.0  0.17233  0.29103  0.34711  1.0000
  C   C199      1.0  0.15295  0.29864  0.34129  1.0000
  N   N41       1.0  0.13894  0.27985  0.34056  1.0000
  C   C200      1.0  0.86315  0.75208  0.34563  1.0000
  N   N42       1.0  0.84321  0.75869  0.34943  1.0000
  C   C201      1.0  0.82837  0.74044  0.35061  1.0000
  N   N43       1.0  0.83395  0.71542  0.34605  1.0000
  C   C202      1.0  0.85333  0.70782  0.34045  1.0000
  N   N44       1.0  0.86736  0.72661  0.34070  1.0000
  C   C203      1.0  0.86318  0.25400  0.34081  1.0000
  N   N45       1.0  0.84322  0.24758  0.33718  1.0000
  C   C204      1.0  0.82849  0.26598  0.33595  1.0000
  N   N46       1.0  0.83424  0.29095  0.34026  1.0000
  C   C205      1.0  0.85367  0.29837  0.34571  1.0000
  N   N47       1.0  0.86758  0.27943  0.34548  1.0000
  C   C206      1.0  0.14331  0.75242  0.33204  1.0000
  N   N48       1.0  0.16327  0.75895  0.32994  1.0000
  C   C207      1.0  0.17805  0.74060  0.32896  1.0000
  N   N49       1.0  0.17236  0.71561  0.33211  1.0000
  C   C208      1.0  0.15292  0.70812  0.33616  1.0000
  N   N50       1.0  0.13896  0.72698  0.33573  1.0000
  C   C209      1.0  0.64310  0.75439  0.34083  1.0000
  N   N51       1.0  0.66309  0.74790  0.33968  1.0000
  C   C210      1.0  0.67802  0.76604  0.33393  1.0000
  N   N52       1.0  0.67212  0.79097  0.33010  1.0000
  C   C211      1.0  0.65272  0.79859  0.33045  1.0000
  N   N53       1.0  0.63878  0.77981  0.33556  1.0000
  C   C212      1.0  0.36314  0.25201  0.34189  1.0000
  N   N54       1.0  0.34315  0.25849  0.34063  1.0000
  C   C213      1.0  0.32823  0.24037  0.33419  1.0000
  N   N55       1.0  0.33415  0.21546  0.32970  1.0000
  C   C214      1.0  0.35356  0.20783  0.33012  1.0000
  N   N56       1.0  0.36752  0.22660  0.33597  1.0000
  C   C215      1.0  0.36326  0.75410  0.34460  1.0000
  N   N57       1.0  0.34325  0.74777  0.34571  1.0000
  C   C216      1.0  0.32841  0.76599  0.35181  1.0000
  N   N58       1.0  0.33443  0.79087  0.35620  1.0000
  C   C217      1.0  0.35387  0.79836  0.35596  1.0000
  N   N59       1.0  0.36775  0.77948  0.35029  1.0000
  C   C218      1.0  0.64321  0.25229  0.33608  1.0000
  N   N60       1.0  0.66320  0.25871  0.33885  1.0000
  C   C219      1.0  0.67806  0.24051  0.34525  1.0000
  N   N61       1.0  0.67207  0.21560  0.34831  1.0000
  C   C220      1.0  0.65265  0.20808  0.34651  1.0000
  N   N62       1.0  0.63873  0.22690  0.34067  1.0000
  C   C221      1.0  0.98863  0.97562  0.36968  1.0000
  C   C222      1.0  0.98795  0.94847  0.37103  1.0000
  H   H103      1.0  0.97576  0.93957  0.39905  1.0000
  C   C223      1.0  0.98622  0.05735  0.34279  1.0000
  C   C224      1.0  0.98678  0.03017  0.34131  1.0000
  H   H104      1.0  0.97254  0.06626  0.34590  1.0000
  C   C225      1.0  0.96784  0.01514  0.34864  1.0000
  C   C226      1.0  0.97127  0.99057  0.40518  1.0000
  H   H105      1.0  0.96293  0.00982  0.28114  1.0000
  H   H106      1.0  0.95584  0.02636  0.37977  1.0000
  H   H107      1.0  0.95742  0.97929  0.40473  1.0000
  H   H108      1.0  0.97447  0.99590  0.47470  1.0000
  C   C227      1.0  0.48857  0.47562  0.36912  1.0000
  C   C228      1.0  0.48788  0.44847  0.37040  1.0000
  H   H109      1.0  0.47564  0.43958  0.39803  1.0000
  C   C229      1.0  0.48623  0.55739  0.34217  1.0000
  C   C230      1.0  0.48679  0.53020  0.34076  1.0000
  H   H110      1.0  0.47255  0.56630  0.34485  1.0000
  C   C231      1.0  0.46783  0.51517  0.34749  1.0000
  C   C232      1.0  0.47116  0.49059  0.40408  1.0000
  H   H111      1.0  0.46302  0.50986  0.27983  1.0000
  H   H112      1.0  0.45579  0.52639  0.37829  1.0000
  H   H113      1.0  0.45731  0.47931  0.40317  1.0000
  H   H114      1.0  0.47426  0.49590  0.47372  1.0000
  C   C233      1.0  0.03884  0.15481  0.35114  1.0000
  C   C234      1.0  0.03947  0.17606  0.40948  1.0000
  C   C235      1.0  0.05672  0.19179  0.41774  1.0000
  C   C236      1.0  0.07379  0.18734  0.36189  1.0000
  C   C237      1.0  0.09134  0.20387  0.35967  1.0000
  C   C238      1.0  0.08994  0.23060  0.37368  1.0000
  C   C239      1.0  0.10686  0.24656  0.36947  1.0000
  C   C240      1.0  0.12627  0.23703  0.34856  1.0000
  H   H115      1.0  0.07637  0.23923  0.38349  1.0000
  H   H116      1.0  0.10458  0.26562  0.38192  1.0000
  H   H117      1.0  0.02735  0.17982  0.44974  1.0000
  N   N63       1.0  0.05724  0.21054  0.48655  1.0000
  O   O29       1.0  0.04321  0.22655  0.47936  1.0000
  O   O30       1.0  0.05639  0.20052  0.56317  1.0000
  C   C241      1.0  0.96704  0.85216  0.35410  1.0000
  C   C242      1.0  0.96615  0.83148  0.41488  1.0000
  C   C243      1.0  0.94888  0.81580  0.42335  1.0000
  C   C244      1.0  0.93207  0.81967  0.36542  1.0000
  C   C245      1.0  0.91458  0.80301  0.36308  1.0000
  C   C246      1.0  0.91597  0.77640  0.37988  1.0000
  C   C247      1.0  0.89913  0.76029  0.37498  1.0000
  C   C248      1.0  0.87986  0.76953  0.35056  1.0000
  H   H118      1.0  0.92949  0.76794  0.39237  1.0000
  H   H119      1.0  0.90136  0.74134  0.38948  1.0000
  H   H120      1.0  0.97814  0.82806  0.45628  1.0000
  N   N64       1.0  0.94807  0.79764  0.49399  1.0000
  O   O31       1.0  0.96215  0.78162  0.48973  1.0000
  O   O32       1.0  0.94857  0.80831  0.56958  1.0000
  C   C249      1.0  0.93224  0.16434  0.37970  1.0000
  C   C250      1.0  0.94958  0.14855  0.38505  1.0000
  H   H121      1.0  0.94995  0.13380  0.43031  1.0000
  C   C251      1.0  0.87852  0.21024  0.36050  1.0000
  C   C252      1.0  0.89558  0.19376  0.35719  1.0000
  H   H122      1.0  0.86517  0.20327  0.38428  1.0000
  C   C253      1.0  0.89446  0.16696  0.39111  1.0000
  C   C254      1.0  0.91442  0.15883  0.43740  1.0000
  H   H123      1.0  0.89155  0.15427  0.33422  1.0000
  H   H124      1.0  0.88214  0.16466  0.43902  1.0000
  H   H125      1.0  0.91351  0.13842  0.45344  1.0000
  H   H126      1.0  0.91612  0.16936  0.50039  1.0000
  C   C255      1.0  0.07348  0.84059  0.37727  1.0000
  C   C256      1.0  0.05607  0.85620  0.38363  1.0000
  H   H127      1.0  0.05551  0.87045  0.43078  1.0000
  C   C257      1.0  0.12761  0.79578  0.35518  1.0000
  C   C258      1.0  0.11044  0.81205  0.35256  1.0000
  H   H128      1.0  0.14077  0.80260  0.38143  1.0000
  C   C259      1.0  0.11120  0.83843  0.39054  1.0000
  C   C260      1.0  0.09105  0.84557  0.43701  1.0000
  H   H129      1.0  0.11408  0.85187  0.33575  1.0000
  H   H130      1.0  0.12338  0.84036  0.43932  1.0000
  H   H131      1.0  0.09171  0.86574  0.45667  1.0000
  H   H132      1.0  0.08927  0.83413  0.49798  1.0000
  C   C261      1.0  0.53888  0.65481  0.35161  1.0000
  C   C262      1.0  0.53959  0.67590  0.41070  1.0000
  C   C263      1.0  0.55687  0.69156  0.41932  1.0000
  C   C264      1.0  0.57391  0.68725  0.36311  1.0000
  C   C265      1.0  0.59150  0.70375  0.36116  1.0000
  C   C266      1.0  0.59022  0.73042  0.37678  1.0000
  C   C267      1.0  0.60713  0.74638  0.37183  1.0000
  C   C268      1.0  0.62640  0.73696  0.34828  1.0000
  H   H133      1.0  0.57670  0.73906  0.38779  1.0000
  H   H134      1.0  0.60491  0.76542  0.38491  1.0000
  H   H135      1.0  0.52749  0.67955  0.45123  1.0000
  N   N65       1.0  0.55743  0.71011  0.48875  1.0000
  O   O33       1.0  0.54343  0.72618  0.48211  1.0000
  O   O34       1.0  0.55658  0.69991  0.56505  1.0000
  C   C269      1.0  0.46697  0.35215  0.35443  1.0000
  C   C270      1.0  0.46604  0.33157  0.41559  1.0000
  C   C271      1.0  0.44875  0.31592  0.42433  1.0000
  C   C272      1.0  0.43194  0.31972  0.36631  1.0000
  C   C273      1.0  0.41442  0.30308  0.36420  1.0000
  C   C274      1.0  0.41570  0.27652  0.38206  1.0000
  C   C275      1.0  0.39888  0.26040  0.37651  1.0000
  C   C276      1.0  0.37972  0.26957  0.35012  1.0000
  H   H136      1.0  0.42918  0.26804  0.39537  1.0000
  H   H137      1.0  0.40106  0.24145  0.39126  1.0000
  H   H138      1.0  0.47803  0.32820  0.45708  1.0000
  N   N66       1.0  0.44794  0.29786  0.49528  1.0000
  O   O35       1.0  0.46201  0.28180  0.49119  1.0000
  O   O36       1.0  0.44847  0.30862  0.57071  1.0000
  C   C277      1.0  0.43227  0.66442  0.37891  1.0000
  C   C278      1.0  0.44962  0.64863  0.38432  1.0000
  H   H139      1.0  0.44998  0.63387  0.42953  1.0000
  C   C279      1.0  0.37855  0.71025  0.36097  1.0000
  C   C280      1.0  0.39559  0.69377  0.35665  1.0000
  H   H140      1.0  0.36528  0.70329  0.38562  1.0000
  C   C281      1.0  0.39450  0.66694  0.39031  1.0000
  C   C282      1.0  0.41446  0.65887  0.43663  1.0000
  H   H141      1.0  0.39166  0.65428  0.33325  1.0000
  H   H142      1.0  0.38217  0.66454  0.43807  1.0000
  H   H143      1.0  0.41358  0.63845  0.45268  1.0000
  H   H144      1.0  0.41615  0.66940  0.49962  1.0000
  C   C283      1.0  0.57345  0.34058  0.37635  1.0000
  C   C284      1.0  0.55604  0.35619  0.38269  1.0000
  H   H145      1.0  0.55551  0.37051  0.42959  1.0000
  C   C285      1.0  0.62757  0.29579  0.35562  1.0000
  C   C286      1.0  0.61042  0.31208  0.35197  1.0000
  H   H146      1.0  0.64066  0.30263  0.38249  1.0000
  C   C287      1.0  0.61117  0.33853  0.38931  1.0000
  C   C288      1.0  0.59103  0.34568  0.43589  1.0000
  H   H147      1.0  0.61397  0.35187  0.33415  1.0000
  H   H148      1.0  0.62338  0.34062  0.43785  1.0000
  H   H149      1.0  0.59168  0.36588  0.45523  1.0000
  H   H150      1.0  0.58930  0.33431  0.49704  1.0000
  C   C289      1.0  0.36495  0.08393  0.35401  1.0000
  C   C290      1.0  0.37131  0.05808  0.35852  1.0000
  H   H151      1.0  0.36491  0.04602  0.40457  1.0000
  C   C291      1.0  0.34507  0.16170  0.34284  1.0000
  C   C292      1.0  0.35047  0.13555  0.33568  1.0000
  H   H152      1.0  0.33092  0.16628  0.36447  1.0000
  C   C293      1.0  0.33632  0.11503  0.36446  1.0000
  C   C294      1.0  0.34789  0.09284  0.41088  1.0000
  H   H153      1.0  0.32857  0.10768  0.30510  1.0000
  H   H154      1.0  0.32496  0.12236  0.41085  1.0000
  H   H155      1.0  0.33732  0.07724  0.42396  1.0000
  H   H156      1.0  0.35385  0.09940  0.47529  1.0000
  C   C295      1.0  0.64036  0.92221  0.35989  1.0000
  C   C296      1.0  0.63387  0.94800  0.36481  1.0000
  H   H157      1.0  0.64021  0.96007  0.41098  1.0000
  C   C297      1.0  0.66092  0.84475  0.34543  1.0000
  C   C298      1.0  0.65532  0.87086  0.33949  1.0000
  H   H158      1.0  0.67507  0.84025  0.36723  1.0000
  C   C299      1.0  0.66924  0.89146  0.36975  1.0000
  C   C300      1.0  0.65741  0.91331  0.41684  1.0000
  H   H159      1.0  0.67703  0.89914  0.31102  1.0000
  H   H160      1.0  0.68058  0.88409  0.41617  1.0000
  H   H161      1.0  0.66783  0.92900  0.43104  1.0000
  H   H162      1.0  0.65141  0.90641  0.48073  1.0000
  C   C301      1.0  0.61813  0.04976  0.36658  1.0000
  C   C302      1.0  0.60987  0.06670  0.43044  1.0000
  C   C303      1.0  0.61601  0.09255  0.43650  1.0000
  C   C304      1.0  0.63042  0.10218  0.37445  1.0000
  C   C305      1.0  0.63594  0.12886  0.36917  1.0000
  C   C306      1.0  0.62189  0.14881  0.38371  1.0000
  C   C307      1.0  0.62737  0.17467  0.37598  1.0000
  C   C308      1.0  0.64711  0.18179  0.35176  1.0000
  H   H163      1.0  0.60718  0.14488  0.39709  1.0000
  H   H164      1.0  0.61667  0.18826  0.38887  1.0000
  H   H165      1.0  0.59892  0.06030  0.47325  1.0000
  N   N67       1.0  0.60842  0.10807  0.50685  1.0000
  O   O37       1.0  0.58957  0.10970  0.50491  1.0000
  O   O38       1.0  0.61362  0.09972  0.58246  1.0000
  C   C309      1.0  0.38848  0.95688  0.37417  1.0000
  C   C310      1.0  0.39750  0.93979  0.43547  1.0000
  C   C311      1.0  0.39151  0.91389  0.44223  1.0000
  C   C312      1.0  0.37641  0.90431  0.38341  1.0000
  C   C313      1.0  0.37082  0.87761  0.37885  1.0000
  C   C314      1.0  0.38495  0.85760  0.39027  1.0000
  C   C315      1.0  0.37939  0.83175  0.38271  1.0000
  C   C316      1.0  0.35945  0.82466  0.36179  1.0000
  H   H166      1.0  0.39980  0.86147  0.40069  1.0000
  H   H167      1.0  0.39023  0.81813  0.39290  1.0000
  H   H168      1.0  0.40890  0.94614  0.47602  1.0000
  N   N68       1.0  0.39995  0.89826  0.51030  1.0000
  O   O39       1.0  0.41875  0.89670  0.50388  1.0000
  O   O40       1.0  0.39563  0.90643  0.58725  1.0000
  C   C317      1.0  0.86512  0.58387  0.36150  1.0000
  C   C318      1.0  0.87154  0.55803  0.36454  1.0000
  H   H169      1.0  0.86544  0.54585  0.41103  1.0000
  C   C319      1.0  0.84506  0.66162  0.35465  1.0000
  C   C320      1.0  0.85046  0.63549  0.34642  1.0000
  H   H170      1.0  0.83104  0.66612  0.37809  1.0000
  C   C321      1.0  0.83654  0.61489  0.37664  1.0000
  C   C322      1.0  0.84844  0.59262  0.42084  1.0000
  H   H171      1.0  0.82838  0.60766  0.31820  1.0000
  H   H172      1.0  0.82550  0.62211  0.42478  1.0000
  H   H173      1.0  0.83797  0.57696  0.43489  1.0000
  H   H174      1.0  0.85481  0.59905  0.48462  1.0000
  C   C323      1.0  0.14016  0.42231  0.36816  1.0000
  C   C324      1.0  0.13365  0.44810  0.37142  1.0000
  H   H175      1.0  0.13965  0.46029  0.41815  1.0000
  C   C325      1.0  0.16090  0.34486  0.35820  1.0000
  C   C326      1.0  0.15530  0.37095  0.35123  1.0000
  H   H176      1.0  0.17489  0.34041  0.38208  1.0000
  C   C327      1.0  0.16896  0.39160  0.38331  1.0000
  C   C328      1.0  0.15676  0.41353  0.42797  1.0000
  H   H177      1.0  0.17723  0.39919  0.32574  1.0000
  H   H178      1.0  0.17991  0.38431  0.43171  1.0000
  H   H179      1.0  0.16704  0.42926  0.44347  1.0000
  H   H180      1.0  0.15025  0.40674  0.49102  1.0000
  C   C329      1.0  0.11837  0.54988  0.36287  1.0000
  C   C330      1.0  0.11055  0.56694  0.42739  1.0000
  C   C331      1.0  0.11676  0.59278  0.43202  1.0000
  C   C332      1.0  0.13070  0.60228  0.36762  1.0000
  C   C333      1.0  0.13621  0.62894  0.36098  1.0000
  C   C334      1.0  0.12233  0.64894  0.37762  1.0000
  C   C335      1.0  0.12780  0.67477  0.36908  1.0000
  C   C336      1.0  0.14736  0.68183  0.34168  1.0000
  H   H181      1.0  0.10772  0.64506  0.39338  1.0000
  H   H182      1.0  0.11723  0.68838  0.38378  1.0000
  H   H183      1.0  0.09990  0.56060  0.47186  1.0000
  N   N69       1.0  0.10972  0.60841  0.50322  1.0000
  O   O41       1.0  0.09087  0.61007  0.50417  1.0000
  O   O42       1.0  0.11550  0.60016  0.57814  1.0000
  C   C337      1.0  0.88847  0.45676  0.37042  1.0000
  C   C338      1.0  0.89716  0.43951  0.43212  1.0000
  C   C339      1.0  0.89107  0.41362  0.43745  1.0000
  C   C340      1.0  0.87631  0.40421  0.37657  1.0000
  C   C341      1.0  0.87070  0.37754  0.37063  1.0000
  C   C342      1.0  0.88471  0.35747  0.38356  1.0000
  C   C343      1.0  0.87912  0.33166  0.37523  1.0000
  C   C344      1.0  0.85930  0.32466  0.35171  1.0000
  H   H184      1.0  0.89949  0.36127  0.39590  1.0000
  H   H185      1.0  0.88986  0.31801  0.38679  1.0000
  H   H186      1.0  0.90832  0.44575  0.47411  1.0000
  N   N70       1.0  0.89907  0.39783  0.50614  1.0000
  O   O43       1.0  0.91791  0.39624  0.50201  1.0000
  O   O44       1.0  0.89428  0.40585  0.58274  1.0000
  C   C345      1.0  0.52441  0.98781  0.38377  1.0000
  C   C346      1.0  0.54558  0.98715  0.38611  1.0000
  H   H187      1.0  0.55275  0.97463  0.42832  1.0000
  C   C347      1.0  0.46096  0.98244  0.35853  1.0000
  C   C348      1.0  0.48216  0.98283  0.35573  1.0000
  H   H188      1.0  0.45389  0.96594  0.37815  1.0000
  C   C349      1.0  0.49388  0.96021  0.38689  1.0000
  C   C350      1.0  0.51272  0.96926  0.43909  1.0000
  H   H189      1.0  0.49849  0.94903  0.32837  1.0000
  H   H190      1.0  0.48497  0.94777  0.43050  1.0000
  H   H191      1.0  0.52167  0.95246  0.45714  1.0000
  H   H192      1.0  0.50811  0.97876  0.50119  1.0000
  C   C351      1.0  0.02448  0.48727  0.38119  1.0000
  C   C352      1.0  0.04565  0.48656  0.38322  1.0000
  H   H193      1.0  0.05281  0.47346  0.42322  1.0000
  C   C353      1.0  0.96100  0.48229  0.35553  1.0000
  C   C354      1.0  0.98220  0.48273  0.35278  1.0000
  H   H194      1.0  0.95394  0.46553  0.37221  1.0000
  C   C355      1.0  0.99393  0.45970  0.37982  1.0000
  C   C356      1.0  0.01280  0.46797  0.43333  1.0000
  H   H195      1.0  0.99850  0.44935  0.31937  1.0000
  H   H196      1.0  0.98503  0.44666  0.42131  1.0000
  H   H197      1.0  0.02175  0.45092  0.44833  1.0000
  H   H198      1.0  0.00823  0.47657  0.49706  1.0000
  C   C357      1.0  0.19893  0.26110  0.35645  1.0000
  C   C358      1.0  0.21136  0.27718  0.40883  1.0000
  C   C359      1.0  0.23259  0.27511  0.40890  1.0000
  C   C360      1.0  0.24224  0.25709  0.35137  1.0000
  C   C361      1.0  0.26395  0.25391  0.34571  1.0000
  C   C362      1.0  0.27806  0.27408  0.35732  1.0000
  C   C363      1.0  0.29900  0.26995  0.35275  1.0000
  C   C364      1.0  0.30699  0.24543  0.33440  1.0000
  H   H199      1.0  0.27331  0.29245  0.36711  1.0000
  H   H200      1.0  0.30841  0.28513  0.36366  1.0000
  H   H201      1.0  0.20485  0.29063  0.44955  1.0000
  N   N71       1.0  0.24380  0.29005  0.47050  1.0000
  O   O45       1.0  0.24117  0.31367  0.45874  1.0000
  O   O46       1.0  0.23956  0.28461  0.55045  1.0000
  C   C365      1.0  0.80732  0.74529  0.35606  1.0000
  C   C366      1.0  0.79488  0.72912  0.40807  1.0000
  C   C367      1.0  0.77365  0.73117  0.40812  1.0000
  C   C368      1.0  0.76400  0.74926  0.35085  1.0000
  C   C369      1.0  0.74230  0.75245  0.34522  1.0000
  C   C370      1.0  0.72818  0.73227  0.35660  1.0000
  C   C371      1.0  0.70724  0.73642  0.35204  1.0000
  C   C372      1.0  0.69926  0.76096  0.33408  1.0000
  H   H202      1.0  0.73292  0.71389  0.36605  1.0000
  H   H203      1.0  0.69782  0.72123  0.36275  1.0000
  H   H204      1.0  0.80140  0.71561  0.44859  1.0000
  N   N72       1.0  0.76244  0.71615  0.46946  1.0000
  O   O47       1.0  0.76508  0.69254  0.45734  1.0000
  O   O48       1.0  0.76667  0.72149  0.54951  1.0000
  C   C373      1.0  0.77658  0.23959  0.38064  1.0000
  C   C374      1.0  0.79782  0.24172  0.37893  1.0000
  H   H205      1.0  0.80637  0.22953  0.41691  1.0000
  C   C375      1.0  0.71336  0.22567  0.36361  1.0000
  C   C376      1.0  0.73437  0.22968  0.36094  1.0000
  H   H206      1.0  0.70835  0.20766  0.37876  1.0000
  C   C377      1.0  0.74830  0.20825  0.38326  1.0000
  C   C378      1.0  0.76709  0.21851  0.43298  1.0000
  H   H207      1.0  0.75288  0.19886  0.32094  1.0000
  H   H208      1.0  0.74103  0.19390  0.42576  1.0000
  H   H209      1.0  0.77749  0.20258  0.44387  1.0000
  H   H210      1.0  0.76268  0.22597  0.49866  1.0000
  C   C379      1.0  0.22974  0.76695  0.37867  1.0000
  C   C380      1.0  0.20851  0.76482  0.37514  1.0000
  H   H211      1.0  0.19980  0.77689  0.41285  1.0000
  C   C381      1.0  0.29304  0.78084  0.36769  1.0000
  C   C382      1.0  0.27204  0.77687  0.36305  1.0000
  H   H212      1.0  0.29801  0.79881  0.38383  1.0000
  C   C383      1.0  0.25803  0.79825  0.38483  1.0000
  C   C384      1.0  0.23901  0.78789  0.43251  1.0000
  H   H213      1.0  0.25373  0.80782  0.32242  1.0000
  H   H214      1.0  0.26512  0.81248  0.42844  1.0000
  H   H215      1.0  0.22857  0.80379  0.44295  1.0000
  H   H216      1.0  0.24312  0.78025  0.49835  1.0000
