data_image0
_chemical_formula_structural       C15OHOHCHC3OHOHCHC3OHOHCHC3OHOHCHC3OHOHCHC3OHOHCHC3O2H2CHC3O2H2CHC3O2H2CHC3O2H2CHC3O2H2CHC3O2H2CHC3O2H2CHC3O2H2CHC3O2H2CHC3O2H2CHC3O2H2CHC3O2H2CHC3OHOHCHC3OHOHCHC3OHOHCHC3OHOHCHC3OHOHCHC3OHOHCHC3O2H2CHC3O2H2CHC3O2H2CHC3O2H2CHC3O2H2CHC3O2H2CHC3O2H2CHC3O2H2CHC3O2H2CHC3O2H2CHC3O2H2CHC3O2H2CHCNCNCN4CNCNCN4CNCNCN4CNCNCN4CNCNCN4CNCNCN5CNCN5CNCN5CNCN5CNCN5CNCN5CNCN4CNCNCN4CNCNCN4CNCNCN4CNCNCN4CNCNCN4CNCNCN5CNCN5CNCN5CNCN5CNCN5CNCN5CNCN4C3O2H2CHC3O2H2CHC3O2H2CHC3O2H2CHC3O2H2CHC3O2H2CHC3OHOHCHC3OHOHCHC3OHOHCHC3OHOHCHC3OHOHCHC3OHOHCHC3OHOHCHC3OHOHCHC3OHOHCHC3OHOHCHC3OHOHCHC3OHOHCHC3O2H2CHC3O2H2CHC3O2H2CHC3O2H2CHC3O2H2CHC3O2H2CHC3OHOHCHC3OHOHCHC3OHOHCHC3OHOHCHC3OHOHCHC3OHOHCHC3OHOHCHC3OHOHCHC3OHOHCHC3OHOHCHC3OHOHCHC3OHOHCH
_chemical_formula_sum              "C360 O144 H216 N144"
_cell_length_a       82.8487
_cell_length_b       82.8486
_cell_length_c       14.7791
_cell_angle_alpha    90
_cell_angle_beta     90
_cell_angle_gamma    120

_space_group_name_H-M_alt    "P 1"
_space_group_IT_number       1

loop_
  _space_group_symop_operation_xyz
  'x, y, z'

loop_
  _atom_site_type_symbol
  _atom_site_label
  _atom_site_symmetry_multiplicity
  _atom_site_fract_x
  _atom_site_fract_y
  _atom_site_fract_z
  _atom_site_occupancy
  C   C1        1.0  0.53833  0.18334  0.35077  1.0000
  C   C2        1.0  0.65998  0.48038  0.35080  1.0000
  C   C3        1.0  0.83534  0.35872  0.35077  1.0000
  C   C4        1.0  0.48410  0.83160  0.35069  1.0000
  C   C5        1.0  0.36245  0.53459  0.35071  1.0000
  C   C6        1.0  0.18707  0.65623  0.35074  1.0000
  C   C7        1.0  0.33374  0.07878  0.34866  1.0000
  C   C8        1.0  0.75999  0.68494  0.34872  1.0000
  C   C9        1.0  0.93990  0.25870  0.34880  1.0000
  C   C10       1.0  0.68868  0.93617  0.34875  1.0000
  C   C11       1.0  0.26244  0.33001  0.34872  1.0000
  C   C12       1.0  0.08251  0.75624  0.34872  1.0000
  C   C13       1.0  0.13281  0.41216  0.33307  1.0000
  C   C14       1.0  0.13907  0.42450  0.25809  1.0000
  C   C15       1.0  0.14777  0.44402  0.27082  1.0000
  O   O1        1.0  0.15489  0.45527  0.19698  1.0000
  H   H1        1.0  0.14500  0.45758  0.17536  1.0000
  O   O2        1.0  0.13718  0.41774  0.17220  1.0000
  H   H2        1.0  0.14910  0.41851  0.15679  1.0000
  C   C16       1.0  0.12780  0.39357  0.32110  1.0000
  H   H3        1.0  0.13702  0.39108  0.29019  1.0000
  C   C17       1.0  0.60653  0.72438  0.33313  1.0000
  C   C18       1.0  0.59418  0.71831  0.25815  1.0000
  C   C19       1.0  0.57466  0.70749  0.27082  1.0000
  O   O3        1.0  0.56341  0.70338  0.19696  1.0000
  H   H4        1.0  0.56110  0.69118  0.17530  1.0000
  O   O4        1.0  0.60094  0.72320  0.17226  1.0000
  H   H5        1.0  0.60017  0.73434  0.15688  1.0000
  C   C20       1.0  0.62511  0.73796  0.32110  1.0000
  H   H6        1.0  0.62759  0.74967  0.29018  1.0000
  C   C21       1.0  0.29431  0.88589  0.33319  1.0000
  C   C22       1.0  0.30036  0.87960  0.25820  1.0000
  C   C23       1.0  0.31117  0.87088  0.27089  1.0000
  O   O5        1.0  0.31526  0.86373  0.19701  1.0000
  H   H7        1.0  0.32747  0.87359  0.17541  1.0000
  O   O6        1.0  0.29547  0.88147  0.17233  1.0000
  H   H8        1.0  0.28432  0.86955  0.15697  1.0000
  C   C24       1.0  0.28073  0.89089  0.32114  1.0000
  H   H9        1.0  0.26901  0.88166  0.29024  1.0000
  C   C25       1.0  0.88960  0.60279  0.33310  1.0000
  C   C26       1.0  0.88335  0.59045  0.25810  1.0000
  C   C27       1.0  0.87464  0.57092  0.27078  1.0000
  O   O7        1.0  0.86752  0.55968  0.19693  1.0000
  H   H10       1.0  0.87741  0.55737  0.17530  1.0000
  O   O8        1.0  0.88525  0.59722  0.17221  1.0000
  H   H11       1.0  0.87334  0.59645  0.15675  1.0000
  C   C28       1.0  0.89462  0.62137  0.32113  1.0000
  H   H12       1.0  0.88540  0.62387  0.29018  1.0000
  C   C29       1.0  0.41590  0.29056  0.33302  1.0000
  C   C30       1.0  0.42824  0.29665  0.25802  1.0000
  C   C31       1.0  0.44776  0.30747  0.27073  1.0000
  O   O9        1.0  0.45900  0.31160  0.19685  1.0000
  H   H13       1.0  0.46132  0.32381  0.17529  1.0000
  O   O10       1.0  0.42147  0.29178  0.17214  1.0000
  H   H14       1.0  0.42224  0.28064  0.15668  1.0000
  C   C32       1.0  0.39731  0.27699  0.32106  1.0000
  H   H15       1.0  0.39482  0.26527  0.29011  1.0000
  C   C33       1.0  0.72811  0.12906  0.33309  1.0000
  C   C34       1.0  0.72204  0.13533  0.25808  1.0000
  C   C35       1.0  0.71123  0.14404  0.27073  1.0000
  O   O11       1.0  0.70711  0.15116  0.19686  1.0000
  H   H16       1.0  0.69491  0.14127  0.17526  1.0000
  O   O12       1.0  0.72692  0.13343  0.17220  1.0000
  H   H17       1.0  0.73806  0.14535  0.15677  1.0000
  C   C36       1.0  0.74169  0.12405  0.32104  1.0000
  H   H18       1.0  0.75340  0.13328  0.29014  1.0000
  C   C37       1.0  0.45545  0.14749  0.33763  1.0000
  C   C38       1.0  0.44308  0.14102  0.26276  1.0000
  C   C39       1.0  0.42353  0.13148  0.27570  1.0000
  O   O13       1.0  0.44987  0.14438  0.17650  1.0000
  O   O14       1.0  0.41234  0.12684  0.20136  1.0000
  H   H19       1.0  0.44970  0.15558  0.15575  1.0000
  H   H20       1.0  0.40967  0.11431  0.18351  1.0000
  C   C40       1.0  0.47412  0.16058  0.32367  1.0000
  H   H21       1.0  0.47659  0.17173  0.28735  1.0000
  C   C41       1.0  0.70700  0.56325  0.33761  1.0000
  C   C42       1.0  0.71293  0.57563  0.26273  1.0000
  C   C43       1.0  0.72294  0.59518  0.27570  1.0000
  O   O15       1.0  0.70950  0.56884  0.17645  1.0000
  O   O16       1.0  0.72952  0.60637  0.20139  1.0000
  H   H22       1.0  0.72087  0.56901  0.15571  1.0000
  H   H23       1.0  0.71967  0.60904  0.18346  1.0000
  C   C44       1.0  0.70139  0.54457  0.32344  1.0000
  H   H24       1.0  0.71007  0.54211  0.28708  1.0000
  C   C45       1.0  0.87120  0.31171  0.33762  1.0000
  C   C46       1.0  0.87765  0.30577  0.26276  1.0000
  C   C47       1.0  0.88718  0.29575  0.27571  1.0000
  O   O17       1.0  0.87428  0.30919  0.17649  1.0000
  O   O18       1.0  0.89177  0.28917  0.20135  1.0000
  H   H25       1.0  0.86308  0.29783  0.15578  1.0000
  H   H26       1.0  0.90432  0.29900  0.18350  1.0000
  C   C48       1.0  0.85813  0.31731  0.32347  1.0000
  H   H27       1.0  0.84698  0.30862  0.28717  1.0000
  C   C49       1.0  0.56697  0.86746  0.33764  1.0000
  C   C50       1.0  0.57935  0.87392  0.26277  1.0000
  C   C51       1.0  0.59890  0.88347  0.27569  1.0000
  O   O19       1.0  0.57256  0.87056  0.17650  1.0000
  O   O20       1.0  0.61007  0.88806  0.20131  1.0000
  H   H28       1.0  0.57272  0.85936  0.15575  1.0000
  H   H29       1.0  0.61279  0.90061  0.18350  1.0000
  C   C52       1.0  0.54830  0.85439  0.32351  1.0000
  H   H30       1.0  0.54584  0.84324  0.28722  1.0000
  C   C53       1.0  0.31543  0.45172  0.33757  1.0000
  C   C54       1.0  0.30954  0.43934  0.26270  1.0000
  C   C55       1.0  0.29953  0.41979  0.27565  1.0000
  O   O21       1.0  0.31297  0.44613  0.17644  1.0000
  O   O22       1.0  0.29297  0.40860  0.20131  1.0000
  H   H31       1.0  0.30161  0.44596  0.15567  1.0000
  H   H32       1.0  0.30284  0.40593  0.18350  1.0000
  C   C56       1.0  0.32102  0.47039  0.32359  1.0000
  H   H33       1.0  0.31234  0.47285  0.28722  1.0000
  C   C57       1.0  0.15124  0.70327  0.33766  1.0000
  C   C58       1.0  0.14478  0.70919  0.26276  1.0000
  C   C59       1.0  0.13525  0.71920  0.27568  1.0000
  O   O23       1.0  0.14815  0.70576  0.17649  1.0000
  O   O24       1.0  0.13064  0.72578  0.20135  1.0000
  H   H34       1.0  0.15935  0.71713  0.15575  1.0000
  H   H35       1.0  0.11811  0.71592  0.18344  1.0000
  C   C60       1.0  0.16431  0.69767  0.32354  1.0000
  H   H36       1.0  0.17545  0.70634  0.28715  1.0000
  C   C61       1.0  0.25197  0.52307  0.33497  1.0000
  C   C62       1.0  0.26271  0.52319  0.26002  1.0000
  C   C63       1.0  0.27984  0.52367  0.27331  1.0000
  O   O25       1.0  0.25651  0.52248  0.17375  1.0000
  O   O26       1.0  0.28894  0.52233  0.19936  1.0000
  H   H37       1.0  0.25028  0.50931  0.15533  1.0000
  H   H38       1.0  0.29736  0.53519  0.17925  1.0000
  C   C64       1.0  0.23371  0.51877  0.32155  1.0000
  H   H39       1.0  0.22546  0.50711  0.28739  1.0000
  C   C65       1.0  0.49562  0.73264  0.33496  1.0000
  C   C66       1.0  0.49548  0.74325  0.26001  1.0000
  C   C67       1.0  0.49500  0.75990  0.27328  1.0000
  O   O27       1.0  0.49619  0.73775  0.17373  1.0000
  O   O28       1.0  0.49633  0.77033  0.19932  1.0000
  H   H40       1.0  0.50935  0.74469  0.15529  1.0000
  H   H41       1.0  0.48347  0.76589  0.17924  1.0000
  C   C68       1.0  0.49991  0.71867  0.32156  1.0000
  H   H42       1.0  0.51157  0.72208  0.28741  1.0000
  C   C69       1.0  0.28604  0.76671  0.33489  1.0000
  C   C70       1.0  0.27544  0.75597  0.25993  1.0000
  C   C71       1.0  0.25879  0.73884  0.27322  1.0000
  O   O29       1.0  0.28093  0.76216  0.17367  1.0000
  O   O30       1.0  0.24836  0.72971  0.19929  1.0000
  H   H43       1.0  0.27399  0.76839  0.15521  1.0000
  H   H44       1.0  0.25283  0.72132  0.17919  1.0000
  C   C72       1.0  0.30000  0.78498  0.32160  1.0000
  H   H45       1.0  0.29660  0.79322  0.28736  1.0000
  C   C73       1.0  0.77045  0.49189  0.33493  1.0000
  C   C74       1.0  0.75971  0.49176  0.25995  1.0000
  C   C75       1.0  0.74259  0.49129  0.27321  1.0000
  O   O31       1.0  0.76591  0.49246  0.17368  1.0000
  O   O32       1.0  0.73347  0.49261  0.19929  1.0000
  H   H46       1.0  0.77214  0.50563  0.15523  1.0000
  H   H47       1.0  0.72507  0.47975  0.17913  1.0000
  C   C76       1.0  0.78871  0.49618  0.32152  1.0000
  H   H48       1.0  0.79695  0.50783  0.28731  1.0000
  C   C77       1.0  0.52681  0.28231  0.33502  1.0000
  C   C78       1.0  0.52694  0.27170  0.26008  1.0000
  C   C79       1.0  0.52741  0.25504  0.27334  1.0000
  O   O33       1.0  0.52622  0.27718  0.17380  1.0000
  O   O34       1.0  0.52607  0.24460  0.19938  1.0000
  H   H49       1.0  0.51306  0.27024  0.15539  1.0000
  H   H50       1.0  0.53893  0.24904  0.17927  1.0000
  C   C80       1.0  0.52251  0.29627  0.32164  1.0000
  H   H51       1.0  0.51087  0.29287  0.28738  1.0000
  C   C81       1.0  0.73638  0.24824  0.33495  1.0000
  C   C82       1.0  0.74698  0.25898  0.26000  1.0000
  C   C83       1.0  0.76364  0.27611  0.27327  1.0000
  O   O35       1.0  0.74150  0.25279  0.17372  1.0000
  O   O36       1.0  0.77407  0.28522  0.19932  1.0000
  H   H52       1.0  0.74843  0.24656  0.15528  1.0000
  H   H53       1.0  0.76963  0.29364  0.17923  1.0000
  C   C84       1.0  0.72241  0.22998  0.32153  1.0000
  H   H54       1.0  0.72583  0.22174  0.28740  1.0000
  C   C85       1.0  0.18876  0.61339  0.33573  1.0000
  C   C86       1.0  0.18874  0.60279  0.26034  1.0000
  C   C87       1.0  0.18826  0.58560  0.27259  1.0000
  O   O37       1.0  0.18966  0.57668  0.19809  1.0000
  H   H55       1.0  0.17681  0.56815  0.17826  1.0000
  O   O38       1.0  0.18955  0.60918  0.17442  1.0000
  H   H56       1.0  0.20275  0.61550  0.15645  1.0000
  C   C88       1.0  0.19304  0.63175  0.32326  1.0000
  H   H57       1.0  0.20488  0.64009  0.29076  1.0000
  C   C89       1.0  0.40528  0.57913  0.33563  1.0000
  C   C90       1.0  0.41590  0.58970  0.26025  1.0000
  C   C91       1.0  0.43308  0.60640  0.27256  1.0000
  O   O39       1.0  0.44205  0.61672  0.19813  1.0000
  H   H58       1.0  0.45054  0.61234  0.17825  1.0000
  O   O40       1.0  0.40952  0.58411  0.17432  1.0000
  H   H59       1.0  0.40321  0.59099  0.15628  1.0000
  C   C92       1.0  0.38692  0.56505  0.32320  1.0000
  H   H60       1.0  0.37857  0.56854  0.29071  1.0000
  C   C93       1.0  0.43956  0.82989  0.33560  1.0000
  C   C94       1.0  0.42899  0.82995  0.26021  1.0000
  C   C95       1.0  0.41229  0.83043  0.27251  1.0000
  O   O41       1.0  0.40198  0.82908  0.19805  1.0000
  H   H61       1.0  0.40635  0.84194  0.17823  1.0000
  O   O42       1.0  0.43458  0.82915  0.17429  1.0000
  H   H62       1.0  0.42770  0.81596  0.15627  1.0000
  C   C96       1.0  0.45364  0.82561  0.32321  1.0000
  H   H63       1.0  0.45015  0.81378  0.29067  1.0000
  C   C97       1.0  0.83365  0.40155  0.33572  1.0000
  C   C98       1.0  0.83368  0.41216  0.26031  1.0000
  C   C99       1.0  0.83415  0.42934  0.27253  1.0000
  O   O43       1.0  0.83278  0.43829  0.19806  1.0000
  H   H64       1.0  0.84564  0.44679  0.17816  1.0000
  O   O44       1.0  0.83286  0.40576  0.17440  1.0000
  H   H65       1.0  0.81967  0.39945  0.15642  1.0000
  C   C100      1.0  0.82936  0.38320  0.32328  1.0000
  H   H66       1.0  0.81752  0.37485  0.29078  1.0000
  C   C101      1.0  0.61714  0.43585  0.33577  1.0000
  C   C102      1.0  0.60654  0.42526  0.26037  1.0000
  C   C103      1.0  0.58935  0.40855  0.27261  1.0000
  O   O45       1.0  0.58043  0.39823  0.19811  1.0000
  H   H67       1.0  0.57190  0.40255  0.17826  1.0000
  O   O46       1.0  0.61294  0.43084  0.17446  1.0000
  H   H68       1.0  0.61926  0.42396  0.15651  1.0000
  C   C104      1.0  0.63550  0.44992  0.32332  1.0000
  H   H69       1.0  0.64384  0.44642  0.29080  1.0000
  C   C105      1.0  0.58286  0.18505  0.33564  1.0000
  C   C106      1.0  0.59343  0.18500  0.26025  1.0000
  C   C107      1.0  0.61013  0.18452  0.27254  1.0000
  O   O47       1.0  0.62045  0.18587  0.19809  1.0000
  H   H70       1.0  0.61607  0.17301  0.17823  1.0000
  O   O48       1.0  0.58783  0.18578  0.17433  1.0000
  H   H71       1.0  0.59471  0.19898  0.15628  1.0000
  C   C108      1.0  0.56878  0.18933  0.32323  1.0000
  H   H72       1.0  0.57228  0.20117  0.29075  1.0000
  C   C109      1.0  0.03131  0.30593  0.34175  1.0000
  C   C110      1.0  0.01983  0.30025  0.26344  1.0000
  C   C111      1.0  0.00009  0.28999  0.27019  1.0000
  O   O49       1.0  0.02773  0.30510  0.17964  1.0000
  O   O50       1.0  0.98990  0.28619  0.19273  1.0000
  H   H73       1.0  0.02780  0.31663  0.16291  1.0000
  H   H74       1.0  0.98665  0.27347  0.17519  1.0000
  C   C112      1.0  0.05014  0.31963  0.33487  1.0000
  H   H75       1.0  0.05262  0.33222  0.31645  1.0000
  C   C113      1.0  0.71275  0.72912  0.34175  1.0000
  C   C114      1.0  0.71844  0.72335  0.26342  1.0000
  C   C115      1.0  0.72871  0.71387  0.27014  1.0000
  O   O51       1.0  0.71360  0.72641  0.17963  1.0000
  O   O52       1.0  0.73252  0.70750  0.19266  1.0000
  H   H76       1.0  0.70208  0.71496  0.16284  1.0000
  H   H77       1.0  0.74524  0.71698  0.17513  1.0000
  C   C116      1.0  0.69905  0.73426  0.33489  1.0000
  H   H78       1.0  0.68645  0.72414  0.31654  1.0000
  C   C117      1.0  0.28958  0.98737  0.34168  1.0000
  C   C118      1.0  0.29531  0.99884  0.26337  1.0000
  C   C119      1.0  0.30479  0.01858  0.27017  1.0000
  O   O53       1.0  0.29223  0.99094  0.17957  1.0000
  O   O54       1.0  0.31113  0.02879  0.19273  1.0000
  H   H79       1.0  0.30369  0.99088  0.16271  1.0000
  H   H80       1.0  0.30161  0.03196  0.17517  1.0000
  C   C120      1.0  0.28444  0.96854  0.33493  1.0000
  H   H81       1.0  0.29456  0.96606  0.31666  1.0000
  C   C121      1.0  0.99112  0.70898  0.34158  1.0000
  C   C122      1.0  0.00260  0.71467  0.26329  1.0000
  C   C123      1.0  0.02234  0.72493  0.27015  1.0000
  O   O55       1.0  0.99472  0.70983  0.17945  1.0000
  O   O56       1.0  0.03256  0.72877  0.19277  1.0000
  H   H82       1.0  0.99467  0.69832  0.16269  1.0000
  H   H83       1.0  0.03574  0.74147  0.17511  1.0000
  C   C124      1.0  0.97228  0.69531  0.33458  1.0000
  H   H84       1.0  0.96978  0.68273  0.31575  1.0000
  C   C125      1.0  0.30968  0.28584  0.34174  1.0000
  C   C126      1.0  0.30400  0.29163  0.26343  1.0000
  C   C127      1.0  0.29373  0.30111  0.27017  1.0000
  O   O57       1.0  0.30885  0.28858  0.17963  1.0000
  O   O58       1.0  0.28993  0.30750  0.19271  1.0000
  H   H85       1.0  0.32037  0.30004  0.16291  1.0000
  H   H86       1.0  0.27721  0.29803  0.17517  1.0000
  C   C128      1.0  0.32337  0.28070  0.33486  1.0000
  H   H87       1.0  0.33597  0.29081  0.31640  1.0000
  C   C129      1.0  0.73286  0.02758  0.34177  1.0000
  C   C130      1.0  0.72710  0.01611  0.26343  1.0000
  C   C131      1.0  0.71762  0.99637  0.27017  1.0000
  O   O59       1.0  0.73016  0.02401  0.17965  1.0000
  O   O60       1.0  0.71125  0.98618  0.19268  1.0000
  H   H88       1.0  0.71871  0.02408  0.16283  1.0000
  H   H89       1.0  0.72074  0.98295  0.17517  1.0000
  C   C132      1.0  0.73800  0.04641  0.33488  1.0000
  H   H90       1.0  0.72788  0.04889  0.31650  1.0000
  C   C133      1.0  0.19306  0.33642  0.33972  1.0000
  C   C134      1.0  0.18281  0.33637  0.26255  1.0000
  C   C135      1.0  0.16552  0.33590  0.27124  1.0000
  O   O61       1.0  0.18989  0.33746  0.17797  1.0000
  O   O62       1.0  0.15720  0.33748  0.19484  1.0000
  H   H91       1.0  0.19634  0.35072  0.16094  1.0000
  H   H92       1.0  0.14811  0.32467  0.17661  1.0000
  C   C136      1.0  0.21191  0.34175  0.33098  1.0000
  H   H93       1.0  0.22005  0.35453  0.30654  1.0000
  C   C137      1.0  0.68225  0.86036  0.33964  1.0000
  C   C138      1.0  0.68225  0.85013  0.26249  1.0000
  C   C139      1.0  0.68270  0.83329  0.27124  1.0000
  O   O63       1.0  0.68112  0.85608  0.17787  1.0000
  O   O64       1.0  0.68109  0.82337  0.19491  1.0000
  H   H94       1.0  0.66786  0.84927  0.16093  1.0000
  H   H95       1.0  0.69389  0.82707  0.17655  1.0000
  C   C140      1.0  0.67696  0.87390  0.33066  1.0000
  H   H96       1.0  0.66422  0.86931  0.30579  1.0000
  C   C141      1.0  0.15829  0.82564  0.33971  1.0000
  C   C142      1.0  0.16853  0.83586  0.26256  1.0000
  C   C143      1.0  0.18536  0.85315  0.27125  1.0000
  O   O65       1.0  0.16257  0.82878  0.17797  1.0000
  O   O66       1.0  0.19528  0.86143  0.19483  1.0000
  H   H97       1.0  0.16937  0.82232  0.16103  1.0000
  H   H98       1.0  0.19164  0.87059  0.17664  1.0000
  C   C144      1.0  0.14477  0.80679  0.33077  1.0000
  H   H99       1.0  0.14939  0.79866  0.30617  1.0000
  C   C145      1.0  0.82938  0.67855  0.33980  1.0000
  C   C146      1.0  0.83960  0.67855  0.26262  1.0000
  C   C147      1.0  0.85690  0.67902  0.27128  1.0000
  O   O67       1.0  0.83252  0.67744  0.17804  1.0000
  O   O68       1.0  0.86518  0.67740  0.19484  1.0000
  H   H100      1.0  0.82607  0.66419  0.16106  1.0000
  H   H101      1.0  0.87433  0.69020  0.17667  1.0000
  C   C148      1.0  0.81053  0.67322  0.33089  1.0000
  H   H102      1.0  0.80239  0.66045  0.30638  1.0000
  C   C149      1.0  0.34017  0.15458  0.33967  1.0000
  C   C150      1.0  0.34012  0.16478  0.26252  1.0000
  C   C151      1.0  0.33965  0.18161  0.27126  1.0000
  O   O69       1.0  0.34121  0.15880  0.17793  1.0000
  O   O70       1.0  0.34123  0.19151  0.19487  1.0000
  H   H103      1.0  0.35446  0.16561  0.16090  1.0000
  H   H104      1.0  0.32842  0.18779  0.17663  1.0000
  C   C152      1.0  0.34549  0.14106  0.33089  1.0000
  H   H105      1.0  0.35827  0.14569  0.30641  1.0000
  C   C153      1.0  0.86410  0.18931  0.33965  1.0000
  C   C154      1.0  0.85386  0.17909  0.26250  1.0000
  C   C155      1.0  0.83703  0.16180  0.27128  1.0000
  O   O71       1.0  0.85981  0.18616  0.17788  1.0000
  O   O72       1.0  0.82710  0.15349  0.19496  1.0000
  H   H106      1.0  0.85300  0.19260  0.16094  1.0000
  H   H107      1.0  0.83080  0.14439  0.17659  1.0000
  C   C156      1.0  0.87764  0.20815  0.33064  1.0000
  H   H108      1.0  0.87305  0.21629  0.30572  1.0000
  C   C157      1.0  0.18707  0.53458  0.34578  1.0000
  N   N1        1.0  0.17314  0.51642  0.34073  1.0000
  C   C158      1.0  0.17694  0.50220  0.34324  1.0000
  N   N2        1.0  0.19510  0.50666  0.34692  1.0000
  C   C159      1.0  0.20933  0.52453  0.34995  1.0000
  N   N3        1.0  0.20508  0.53834  0.35017  1.0000
  N   N4        1.0  0.18318  0.54837  0.34178  1.0000
  N   N5        1.0  0.22694  0.52851  0.35468  1.0000
  N   N6        1.0  0.16363  0.48429  0.33775  1.0000
  C   C160      1.0  0.48409  0.65623  0.34583  1.0000
  N   N7        1.0  0.50226  0.66045  0.34073  1.0000
  C   C161      1.0  0.51648  0.67848  0.34323  1.0000
  N   N8        1.0  0.51202  0.69218  0.34692  1.0000
  C   C162      1.0  0.49415  0.68853  0.34996  1.0000
  N   N9        1.0  0.48034  0.67048  0.35019  1.0000
  N   N10       1.0  0.47031  0.63855  0.34179  1.0000
  N   N11       1.0  0.49017  0.70217  0.35468  1.0000
  N   N12       1.0  0.53438  0.68307  0.33773  1.0000
  C   C163      1.0  0.36245  0.83161  0.34580  1.0000
  N   N13       1.0  0.35822  0.84554  0.34073  1.0000
  C   C164      1.0  0.34019  0.84173  0.34325  1.0000
  N   N14       1.0  0.32650  0.82358  0.34694  1.0000
  C   C165      1.0  0.33014  0.80935  0.34997  1.0000
  N   N15       1.0  0.34820  0.81360  0.35018  1.0000
  N   N16       1.0  0.38013  0.83551  0.34178  1.0000
  N   N17       1.0  0.31650  0.79174  0.35470  1.0000
  N   N18       1.0  0.33559  0.85504  0.33774  1.0000
  C   C166      1.0  0.83534  0.48037  0.34579  1.0000
  N   N19       1.0  0.84927  0.49854  0.34070  1.0000
  C   C167      1.0  0.84547  0.51276  0.34321  1.0000
  N   N20       1.0  0.82731  0.50829  0.34691  1.0000
  C   C168      1.0  0.81308  0.49042  0.34996  1.0000
  N   N21       1.0  0.81733  0.47662  0.35018  1.0000
  N   N22       1.0  0.83924  0.46659  0.34177  1.0000
  N   N23       1.0  0.79547  0.48645  0.35468  1.0000
  N   N24       1.0  0.85877  0.53066  0.33769  1.0000
  C   C169      1.0  0.53833  0.35872  0.34579  1.0000
  N   N25       1.0  0.52017  0.35449  0.34067  1.0000
  C   C170      1.0  0.50594  0.33646  0.34313  1.0000
  N   N26       1.0  0.51040  0.32277  0.34689  1.0000
  C   C171      1.0  0.52828  0.32641  0.34999  1.0000
  N   N27       1.0  0.54208  0.34447  0.35021  1.0000
  N   N28       1.0  0.55211  0.37640  0.34177  1.0000
  N   N29       1.0  0.53225  0.31278  0.35475  1.0000
  N   N30       1.0  0.48804  0.33187  0.33765  1.0000
  C   C172      1.0  0.65997  0.18335  0.34579  1.0000
  N   N31       1.0  0.66420  0.16941  0.34068  1.0000
  C   C173      1.0  0.68223  0.17322  0.34314  1.0000
  N   N32       1.0  0.69592  0.19137  0.34688  1.0000
  C   C174      1.0  0.69227  0.20560  0.34997  1.0000
  N   N33       1.0  0.67422  0.20135  0.35018  1.0000
  N   N34       1.0  0.64229  0.17945  0.34176  1.0000
  N   N35       1.0  0.70591  0.22321  0.35467  1.0000
  N   N36       1.0  0.68682  0.15991  0.33766  1.0000
  N   N37       1.0  0.52016  0.16941  0.35590  1.0000
  C   C175      1.0  0.50594  0.17321  0.35351  1.0000
  N   N38       1.0  0.51040  0.19137  0.34984  1.0000
  C   C176      1.0  0.52828  0.20560  0.34673  1.0000
  N   N39       1.0  0.54208  0.20135  0.34642  1.0000
  N   N40       1.0  0.55211  0.17945  0.35469  1.0000
  N   N41       1.0  0.53225  0.22321  0.34206  1.0000
  N   N42       1.0  0.48804  0.15991  0.35903  1.0000
  N   N43       1.0  0.66420  0.49854  0.35590  1.0000
  C   C177      1.0  0.68223  0.51276  0.35344  1.0000
  N   N44       1.0  0.69593  0.50830  0.34976  1.0000
  C   C178      1.0  0.69228  0.49043  0.34668  1.0000
  N   N45       1.0  0.67422  0.47662  0.34642  1.0000
  N   N46       1.0  0.64229  0.46659  0.35477  1.0000
  N   N47       1.0  0.70592  0.48646  0.34196  1.0000
  N   N48       1.0  0.68683  0.53067  0.35899  1.0000
  N   N49       1.0  0.84928  0.35449  0.35588  1.0000
  C   C179      1.0  0.84547  0.33647  0.35344  1.0000
  N   N50       1.0  0.82732  0.32277  0.34979  1.0000
  C   C180      1.0  0.81309  0.32641  0.34672  1.0000
  N   N51       1.0  0.81734  0.34447  0.34642  1.0000
  N   N52       1.0  0.83924  0.37640  0.35472  1.0000
  N   N53       1.0  0.79548  0.31278  0.34202  1.0000
  N   N54       1.0  0.85878  0.33187  0.35897  1.0000
  N   N55       1.0  0.50226  0.84554  0.35583  1.0000
  C   C181      1.0  0.51649  0.84174  0.35343  1.0000
  N   N56       1.0  0.51202  0.82358  0.34979  1.0000
  C   C182      1.0  0.49415  0.80935  0.34671  1.0000
  N   N57       1.0  0.48035  0.81360  0.34638  1.0000
  N   N58       1.0  0.47031  0.83549  0.35466  1.0000
  N   N59       1.0  0.49018  0.79174  0.34202  1.0000
  N   N60       1.0  0.53439  0.85504  0.35896  1.0000
  N   N61       1.0  0.35822  0.51643  0.35583  1.0000
  C   C183      1.0  0.34020  0.50220  0.35342  1.0000
  N   N62       1.0  0.32650  0.50667  0.34979  1.0000
  C   C184      1.0  0.33014  0.52454  0.34671  1.0000
  N   N63       1.0  0.34820  0.53834  0.34639  1.0000
  N   N64       1.0  0.38013  0.54837  0.35466  1.0000
  N   N65       1.0  0.31650  0.52851  0.34203  1.0000
  N   N66       1.0  0.33560  0.48430  0.35897  1.0000
  N   N67       1.0  0.17314  0.66047  0.35588  1.0000
  C   C185      1.0  0.17695  0.67849  0.35345  1.0000
  N   N68       1.0  0.19511  0.69219  0.34977  1.0000
  C   C186      1.0  0.20933  0.68854  0.34668  1.0000
  N   N69       1.0  0.20507  0.67048  0.34638  1.0000
  N   N70       1.0  0.18316  0.63855  0.35471  1.0000
  N   N71       1.0  0.22694  0.70217  0.34198  1.0000
  N   N72       1.0  0.16365  0.68310  0.35902  1.0000
  C   C187      1.0  0.08253  0.33000  0.34854  1.0000
  N   N73       1.0  0.09569  0.32459  0.34698  1.0000
  C   C188      1.0  0.11440  0.33722  0.34631  1.0000
  N   N74       1.0  0.11958  0.35561  0.34614  1.0000
  C   C189      1.0  0.10708  0.36168  0.34743  1.0000
  N   N75       1.0  0.08867  0.34868  0.34980  1.0000
  N   N76       1.0  0.06419  0.31730  0.35136  1.0000
  N   N77       1.0  0.11247  0.37977  0.35089  1.0000
  N   N78       1.0  0.12743  0.33201  0.34313  1.0000
  C   C190      1.0  0.68868  0.75627  0.34851  1.0000
  N   N79       1.0  0.69408  0.77484  0.34695  1.0000
  C   C191      1.0  0.68146  0.78093  0.34631  1.0000
  N   N80       1.0  0.66306  0.76771  0.34615  1.0000
  C   C192      1.0  0.65700  0.74914  0.34744  1.0000
  N   N81       1.0  0.67000  0.74374  0.34979  1.0000
  N   N82       1.0  0.70138  0.75064  0.35131  1.0000
  N   N83       1.0  0.63891  0.73644  0.35092  1.0000
  N   N84       1.0  0.68666  0.79916  0.34313  1.0000
  C   C193      1.0  0.26242  0.93615  0.34849  1.0000
  N   N85       1.0  0.24385  0.92299  0.34692  1.0000
  C   C194      1.0  0.23776  0.90428  0.34629  1.0000
  N   N86       1.0  0.25098  0.89910  0.34615  1.0000
  C   C195      1.0  0.26955  0.91160  0.34744  1.0000
  N   N87       1.0  0.27495  0.93001  0.34978  1.0000
  N   N88       1.0  0.26805  0.95449  0.35125  1.0000
  N   N89       1.0  0.28224  0.90621  0.35093  1.0000
  N   N90       1.0  0.21952  0.89124  0.34312  1.0000
  C   C196      1.0  0.93990  0.68494  0.34861  1.0000
  N   N91       1.0  0.92674  0.69035  0.34706  1.0000
  C   C197      1.0  0.90803  0.67773  0.34640  1.0000
  N   N92       1.0  0.90285  0.65933  0.34619  1.0000
  C   C198      1.0  0.91535  0.65326  0.34746  1.0000
  N   N93       1.0  0.93375  0.66626  0.34984  1.0000
  N   N94       1.0  0.95824  0.69763  0.35146  1.0000
  N   N95       1.0  0.90995  0.63517  0.35093  1.0000
  N   N96       1.0  0.89500  0.68294  0.34320  1.0000
  C   C199      1.0  0.33375  0.25869  0.34855  1.0000
  N   N97       1.0  0.32834  0.24012  0.34700  1.0000
  C   C200      1.0  0.34096  0.23403  0.34633  1.0000
  N   N98       1.0  0.35936  0.24724  0.34613  1.0000
  C   C201      1.0  0.36542  0.26582  0.34737  1.0000
  N   N99       1.0  0.35242  0.27122  0.34978  1.0000
  N   N100      1.0  0.32104  0.26432  0.35137  1.0000
  N   N101      1.0  0.38351  0.27851  0.35086  1.0000
  N   N102      1.0  0.33575  0.21579  0.34313  1.0000
  C   C202      1.0  0.76001  0.07880  0.34853  1.0000
  N   N103      1.0  0.77858  0.09197  0.34699  1.0000
  C   C203      1.0  0.78466  0.11068  0.34636  1.0000
  N   N104      1.0  0.77145  0.11585  0.34615  1.0000
  C   C204      1.0  0.75287  0.10335  0.34739  1.0000
  N   N105      1.0  0.74748  0.08494  0.34977  1.0000
  N   N106      1.0  0.75438  0.06046  0.35134  1.0000
  N   N107      1.0  0.74018  0.10874  0.35088  1.0000
  N   N108      1.0  0.80290  0.12371  0.34317  1.0000
  N   N109      1.0  0.32834  0.09194  0.35021  1.0000
  C   C205      1.0  0.34096  0.11065  0.35085  1.0000
  N   N110      1.0  0.35936  0.11583  0.35100  1.0000
  C   C206      1.0  0.36542  0.10332  0.34970  1.0000
  N   N111      1.0  0.35242  0.08492  0.34736  1.0000
  N   N112      1.0  0.32104  0.06044  0.34584  1.0000
  N   N113      1.0  0.38351  0.10872  0.34619  1.0000
  N   N114      1.0  0.33576  0.12369  0.35404  1.0000
  N   N115      1.0  0.77856  0.69035  0.35029  1.0000
  C   C207      1.0  0.78465  0.67773  0.35092  1.0000
  N   N116      1.0  0.77143  0.65933  0.35105  1.0000
  C   C208      1.0  0.75286  0.65326  0.34975  1.0000
  N   N117      1.0  0.74746  0.66627  0.34740  1.0000
  N   N118      1.0  0.75435  0.69764  0.34590  1.0000
  N   N119      1.0  0.74017  0.63518  0.34622  1.0000
  N   N120      1.0  0.80288  0.68294  0.35413  1.0000
  N   N121      1.0  0.92674  0.24013  0.35042  1.0000
  C   C209      1.0  0.90802  0.23403  0.35101  1.0000
  N   N122      1.0  0.90284  0.24725  0.35108  1.0000
  C   C210      1.0  0.91534  0.26582  0.34974  1.0000
  N   N123      1.0  0.93375  0.27122  0.34743  1.0000
  N   N124      1.0  0.95824  0.26434  0.34604  1.0000
  N   N125      1.0  0.90995  0.27851  0.34619  1.0000
  N   N126      1.0  0.89499  0.21580  0.35427  1.0000
  N   N127      1.0  0.69409  0.92300  0.35035  1.0000
  C   C211      1.0  0.68146  0.90429  0.35098  1.0000
  N   N128      1.0  0.66307  0.89911  0.35106  1.0000
  C   C212      1.0  0.65700  0.91162  0.34972  1.0000
  N   N129      1.0  0.67001  0.93002  0.34739  1.0000
  N   N130      1.0  0.70139  0.95450  0.34594  1.0000
  N   N131      1.0  0.63892  0.90622  0.34617  1.0000
  N   N132      1.0  0.68666  0.89125  0.35422  1.0000
  N   N133      1.0  0.24387  0.32460  0.35031  1.0000
  C   C213      1.0  0.23778  0.33722  0.35094  1.0000
  N   N134      1.0  0.25100  0.35562  0.35103  1.0000
  C   C214      1.0  0.26957  0.36169  0.34971  1.0000
  N   N135      1.0  0.27497  0.34869  0.34740  1.0000
  N   N136      1.0  0.26808  0.31731  0.34597  1.0000
  N   N137      1.0  0.28226  0.37977  0.34617  1.0000
  N   N138      1.0  0.21954  0.33201  0.35410  1.0000
  N   N139      1.0  0.09567  0.77481  0.35030  1.0000
  C   C215      1.0  0.11438  0.78090  0.35092  1.0000
  N   N140      1.0  0.11957  0.76769  0.35103  1.0000
  C   C216      1.0  0.10707  0.74912  0.34972  1.0000
  N   N141      1.0  0.08866  0.74371  0.34740  1.0000
  N   N142      1.0  0.06417  0.75059  0.34593  1.0000
  N   N143      1.0  0.11247  0.73643  0.34617  1.0000
  N   N144      1.0  0.12740  0.79914  0.35413  1.0000
  C   C217      1.0  0.15122  0.45171  0.35917  1.0000
  C   C218      1.0  0.14477  0.43934  0.43407  1.0000
  C   C219      1.0  0.13523  0.41979  0.42120  1.0000
  O   O73       1.0  0.14813  0.44614  0.52032  1.0000
  O   O74       1.0  0.13065  0.40862  0.49561  1.0000
  H   H109      1.0  0.15934  0.44598  0.54106  1.0000
  H   H110      1.0  0.11810  0.40591  0.51344  1.0000
  C   C220      1.0  0.16429  0.47039  0.37326  1.0000
  H   H111      1.0  0.17544  0.47285  0.40955  1.0000
  C   C221      1.0  0.56696  0.70324  0.35916  1.0000
  C   C222      1.0  0.57933  0.70915  0.43408  1.0000
  C   C223      1.0  0.59888  0.71916  0.42122  1.0000
  O   O75       1.0  0.57253  0.70570  0.52032  1.0000
  O   O76       1.0  0.61005  0.72573  0.49565  1.0000
  H   H112      1.0  0.57269  0.71707  0.54110  1.0000
  H   H113      1.0  0.61276  0.71589  0.51344  1.0000
  C   C224      1.0  0.54829  0.69764  0.37325  1.0000
  H   H114      1.0  0.54583  0.70633  0.40954  1.0000
  C   C225      1.0  0.31542  0.86745  0.35927  1.0000
  C   C226      1.0  0.30954  0.87393  0.43417  1.0000
  C   C227      1.0  0.29952  0.88347  0.42129  1.0000
  O   O77       1.0  0.31299  0.87057  0.52041  1.0000
  O   O78       1.0  0.29298  0.88810  0.49566  1.0000
  H   H115      1.0  0.30162  0.85938  0.54120  1.0000
  H   H116      1.0  0.30284  0.90063  0.51348  1.0000
  C   C228      1.0  0.32102  0.85437  0.37319  1.0000
  H   H117      1.0  0.31234  0.84322  0.40957  1.0000
  C   C229      1.0  0.87118  0.56324  0.35915  1.0000
  C   C230      1.0  0.87763  0.57560  0.43409  1.0000
  C   C231      1.0  0.88717  0.59515  0.42123  1.0000
  O   O79       1.0  0.87427  0.56880  0.52034  1.0000
  O   O80       1.0  0.89178  0.60633  0.49561  1.0000
  H   H118      1.0  0.86307  0.56897  0.54110  1.0000
  H   H119      1.0  0.90431  0.60900  0.51352  1.0000
  C   C232      1.0  0.85811  0.54457  0.37322  1.0000
  H   H120      1.0  0.84697  0.54209  0.40961  1.0000
  C   C233      1.0  0.45546  0.31171  0.35906  1.0000
  C   C234      1.0  0.44309  0.30578  0.43398  1.0000
  C   C235      1.0  0.42353  0.29576  0.42114  1.0000
  O   O81       1.0  0.44989  0.30921  0.52023  1.0000
  O   O82       1.0  0.41237  0.28918  0.49556  1.0000
  H   H121      1.0  0.44973  0.29784  0.54093  1.0000
  H   H122      1.0  0.40966  0.29901  0.51343  1.0000
  C   C236      1.0  0.47413  0.31730  0.37311  1.0000
  H   H123      1.0  0.47659  0.30861  0.40941  1.0000
  C   C237      1.0  0.70698  0.14749  0.35908  1.0000
  C   C238      1.0  0.71290  0.14104  0.43401  1.0000
  C   C239      1.0  0.72291  0.13150  0.42117  1.0000
  O   O83       1.0  0.70946  0.14441  0.52024  1.0000
  O   O84       1.0  0.72948  0.12691  0.49560  1.0000
  H   H124      1.0  0.72083  0.15562  0.54097  1.0000
  H   H125      1.0  0.71965  0.11437  0.51344  1.0000
  C   C240      1.0  0.70139  0.16057  0.37311  1.0000
  H   H126      1.0  0.71008  0.17172  0.40940  1.0000
  C   C241      1.0  0.41590  0.12905  0.36382  1.0000
  C   C242      1.0  0.42825  0.13534  0.43877  1.0000
  C   C243      1.0  0.44778  0.14405  0.42602  1.0000
  O   O85       1.0  0.45902  0.15120  0.49988  1.0000
  H   H127      1.0  0.46139  0.14135  0.52143  1.0000
  O   O86       1.0  0.42150  0.13346  0.52467  1.0000
  H   H128      1.0  0.42226  0.14538  0.54005  1.0000
  C   C244      1.0  0.39731  0.12404  0.37594  1.0000
  H   H129      1.0  0.39483  0.13327  0.40680  1.0000
  C   C245      1.0  0.72813  0.60279  0.36388  1.0000
  C   C246      1.0  0.72203  0.59043  0.43882  1.0000
  C   C247      1.0  0.71122  0.57091  0.42602  1.0000
  O   O87       1.0  0.70707  0.55964  0.49982  1.0000
  H   H130      1.0  0.69488  0.55735  0.52143  1.0000
  O   O88       1.0  0.72688  0.59718  0.52474  1.0000
  H   H131      1.0  0.73803  0.59641  0.54021  1.0000
  C   C248      1.0  0.74169  0.62137  0.37597  1.0000
  H   H132      1.0  0.75341  0.62386  0.40687  1.0000
  C   C249      1.0  0.88961  0.29056  0.36386  1.0000
  C   C250      1.0  0.88335  0.29666  0.43880  1.0000
  C   C251      1.0  0.87464  0.30747  0.42599  1.0000
  O   O89       1.0  0.86752  0.31161  0.49981  1.0000
  H   H133      1.0  0.87741  0.32381  0.52140  1.0000
  O   O90       1.0  0.88523  0.29179  0.52472  1.0000
  H   H134      1.0  0.87332  0.28065  0.54016  1.0000
  C   C252      1.0  0.89462  0.27699  0.37592  1.0000
  H   H135      1.0  0.88539  0.26527  0.40683  1.0000
  C   C253      1.0  0.60653  0.88589  0.36381  1.0000
  C   C254      1.0  0.59417  0.87962  0.43876  1.0000
  C   C255      1.0  0.57465  0.87090  0.42602  1.0000
  O   O91       1.0  0.56339  0.86377  0.49984  1.0000
  H   H136      1.0  0.56108  0.87365  0.52147  1.0000
  O   O92       1.0  0.60092  0.88150  0.52467  1.0000
  H   H137      1.0  0.60015  0.86958  0.54007  1.0000
  C   C256      1.0  0.62511  0.89090  0.37592  1.0000
  H   H138      1.0  0.62759  0.88167  0.40685  1.0000
  C   C257      1.0  0.29432  0.41216  0.36378  1.0000
  C   C258      1.0  0.30038  0.42452  0.43872  1.0000
  C   C259      1.0  0.31119  0.44405  0.42597  1.0000
  O   O93       1.0  0.31528  0.45529  0.49982  1.0000
  H   H139      1.0  0.32750  0.45766  0.52139  1.0000
  O   O94       1.0  0.29550  0.41777  0.52462  1.0000
  H   H140      1.0  0.28435  0.41853  0.53998  1.0000
  C   C260      1.0  0.28074  0.39358  0.37589  1.0000
  H   H141      1.0  0.26903  0.39110  0.40678  1.0000
  C   C261      1.0  0.13282  0.72439  0.36385  1.0000
  C   C262      1.0  0.13907  0.71830  0.43881  1.0000
  C   C263      1.0  0.14778  0.70749  0.42605  1.0000
  O   O95       1.0  0.15490  0.70335  0.49987  1.0000
  H   H142      1.0  0.14501  0.69115  0.52147  1.0000
  O   O96       1.0  0.13717  0.72315  0.52472  1.0000
  H   H143      1.0  0.14909  0.73430  0.54020  1.0000
  C   C264      1.0  0.12780  0.73796  0.37588  1.0000
  H   H144      1.0  0.13702  0.74967  0.40682  1.0000
  C   C265      1.0  0.28603  0.52306  0.36196  1.0000
  C   C266      1.0  0.27544  0.52322  0.43692  1.0000
  C   C267      1.0  0.25879  0.52368  0.42359  1.0000
  O   O97       1.0  0.24836  0.52240  0.49751  1.0000
  H   H145      1.0  0.25283  0.53527  0.51753  1.0000
  O   O98       1.0  0.28094  0.52254  0.52319  1.0000
  H   H146      1.0  0.27400  0.50937  0.54171  1.0000
  C   C268      1.0  0.30001  0.51878  0.37533  1.0000
  H   H147      1.0  0.29662  0.50714  0.40963  1.0000
  C   C269      1.0  0.49561  0.76671  0.36190  1.0000
  C   C270      1.0  0.49547  0.75597  0.43686  1.0000
  C   C271      1.0  0.49500  0.73884  0.42359  1.0000
  O   O99       1.0  0.49630  0.72972  0.49752  1.0000
  H   H148      1.0  0.48344  0.72131  0.51758  1.0000
  O   O100      1.0  0.49616  0.76216  0.52315  1.0000
  H   H149      1.0  0.50932  0.76838  0.54164  1.0000
  C   C272      1.0  0.49990  0.78497  0.37534  1.0000
  H   H150      1.0  0.51153  0.79321  0.40964  1.0000
  C   C273      1.0  0.25198  0.73263  0.36184  1.0000
  C   C274      1.0  0.26271  0.74323  0.43681  1.0000
  C   C275      1.0  0.27984  0.75989  0.42353  1.0000
  O   O101      1.0  0.28894  0.77032  0.49749  1.0000
  H   H151      1.0  0.29738  0.76590  0.51750  1.0000
  O   O102      1.0  0.25653  0.73774  0.52308  1.0000
  H   H152      1.0  0.25030  0.74467  0.54157  1.0000
  C   C276      1.0  0.23372  0.71866  0.37529  1.0000
  H   H153      1.0  0.22548  0.72206  0.40957  1.0000
  C   C277      1.0  0.73639  0.49190  0.36187  1.0000
  C   C278      1.0  0.74697  0.49173  0.43684  1.0000
  C   C279      1.0  0.76363  0.49127  0.42356  1.0000
  O   O103      1.0  0.77405  0.49255  0.49749  1.0000
  H   H154      1.0  0.76958  0.47968  0.51752  1.0000
  O   O104      1.0  0.74146  0.49241  0.52311  1.0000
  H   H155      1.0  0.74840  0.50557  0.54167  1.0000
  C   C280      1.0  0.72242  0.49618  0.37522  1.0000
  H   H156      1.0  0.72580  0.50781  0.40957  1.0000
  C   C281      1.0  0.52680  0.24824  0.36199  1.0000
  C   C282      1.0  0.52697  0.25899  0.43695  1.0000
  C   C283      1.0  0.52744  0.27611  0.42365  1.0000
  O   O105      1.0  0.52615  0.28524  0.49758  1.0000
  H   H157      1.0  0.53902  0.29365  0.51758  1.0000
  O   O106      1.0  0.52629  0.25280  0.52323  1.0000
  H   H158      1.0  0.51313  0.24658  0.54175  1.0000
  C   C284      1.0  0.52252  0.22998  0.37534  1.0000
  H   H159      1.0  0.51089  0.22173  0.40963  1.0000
  C   C285      1.0  0.77045  0.28231  0.36190  1.0000
  C   C286      1.0  0.75971  0.27172  0.43685  1.0000
  C   C287      1.0  0.74258  0.25506  0.42358  1.0000
  O   O107      1.0  0.73345  0.24463  0.49750  1.0000
  H   H160      1.0  0.72505  0.24909  0.51757  1.0000
  O   O108      1.0  0.76589  0.27721  0.52314  1.0000
  H   H161      1.0  0.77212  0.27027  0.54164  1.0000
  C   C288      1.0  0.78870  0.29629  0.37535  1.0000
  H   H162      1.0  0.79694  0.29289  0.40965  1.0000
  C   C289      1.0  0.18878  0.57912  0.36072  1.0000
  C   C290      1.0  0.18870  0.58967  0.43610  1.0000
  C   C291      1.0  0.18821  0.60638  0.42383  1.0000
  O   O109      1.0  0.18948  0.58407  0.52202  1.0000
  O   O110      1.0  0.18954  0.61668  0.49831  1.0000
  H   H163      1.0  0.20267  0.59096  0.54011  1.0000
  H   H164      1.0  0.17667  0.61229  0.51810  1.0000
  C   C292      1.0  0.19307  0.56506  0.37307  1.0000
  H   H165      1.0  0.20492  0.56856  0.40555  1.0000
  C   C293      1.0  0.43955  0.61340  0.36070  1.0000
  C   C294      1.0  0.42898  0.60277  0.43608  1.0000
  C   C295      1.0  0.41227  0.58559  0.42379  1.0000
  O   O111      1.0  0.43457  0.60914  0.52202  1.0000
  O   O112      1.0  0.40196  0.57662  0.49823  1.0000
  H   H166      1.0  0.42769  0.61546  0.54009  1.0000
  H   H167      1.0  0.40634  0.56814  0.51809  1.0000
  C   C296      1.0  0.45363  0.63175  0.37322  1.0000
  H   H168      1.0  0.45014  0.64009  0.40574  1.0000
  C   C297      1.0  0.40529  0.82991  0.36063  1.0000
  C   C298      1.0  0.41591  0.82996  0.43599  1.0000
  C   C299      1.0  0.43310  0.83043  0.42373  1.0000
  O   O113      1.0  0.40953  0.82917  0.52192  1.0000
  O   O114      1.0  0.44204  0.82906  0.49823  1.0000
  H   H169      1.0  0.40321  0.81597  0.53995  1.0000
  H   H170      1.0  0.45055  0.84192  0.51804  1.0000
  C   C300      1.0  0.38693  0.82562  0.37310  1.0000
  H   H171      1.0  0.37859  0.81377  0.40553  1.0000
  C   C301      1.0  0.83365  0.43585  0.36064  1.0000
  C   C302      1.0  0.83371  0.42528  0.43603  1.0000
  C   C303      1.0  0.83420  0.40858  0.42381  1.0000
  O   O115      1.0  0.83293  0.43088  0.52195  1.0000
  O   O116      1.0  0.83284  0.39828  0.49833  1.0000
  H   H172      1.0  0.81974  0.42401  0.54003  1.0000
  H   H173      1.0  0.84570  0.40262  0.51808  1.0000
  C   C304      1.0  0.82936  0.44991  0.37309  1.0000
  H   H174      1.0  0.81750  0.44639  0.40549  1.0000
  C   C305      1.0  0.58286  0.40155  0.36074  1.0000
  C   C306      1.0  0.59342  0.41219  0.43612  1.0000
  C   C307      1.0  0.61012  0.42937  0.42387  1.0000
  O   O117      1.0  0.58781  0.40581  0.52204  1.0000
  O   O118      1.0  0.62041  0.43835  0.49835  1.0000
  H   H175      1.0  0.59469  0.39950  0.54016  1.0000
  H   H176      1.0  0.61603  0.44683  0.51813  1.0000
  C   C308      1.0  0.56880  0.38320  0.37308  1.0000
  H   H177      1.0  0.57230  0.37485  0.40559  1.0000
  C   C309      1.0  0.61713  0.18505  0.36067  1.0000
  C   C310      1.0  0.60651  0.18500  0.43606  1.0000
  C   C311      1.0  0.58933  0.18452  0.42379  1.0000
  O   O119      1.0  0.61289  0.18578  0.52199  1.0000
  O   O120      1.0  0.58037  0.18587  0.49825  1.0000
  H   H178      1.0  0.61920  0.19898  0.54005  1.0000
  H   H179      1.0  0.57188  0.17301  0.51812  1.0000
  C   C312      1.0  0.63549  0.18933  0.37316  1.0000
  H   H180      1.0  0.64383  0.20117  0.40568  1.0000
  C   C313      1.0  0.99112  0.28587  0.35572  1.0000
  C   C314      1.0  0.00258  0.29161  0.43405  1.0000
  C   C315      1.0  0.02232  0.30108  0.42725  1.0000
  O   O121      1.0  0.03252  0.30743  0.50469  1.0000
  H   H181      1.0  0.03571  0.29792  0.52226  1.0000
  O   O122      1.0  0.99468  0.28855  0.51785  1.0000
  H   H182      1.0  0.99462  0.30002  0.53463  1.0000
  C   C316      1.0  0.97228  0.28072  0.36251  1.0000
  H   H183      1.0  0.96979  0.29083  0.38088  1.0000
  C   C317      1.0  0.73283  0.70901  0.35562  1.0000
  C   C318      1.0  0.72706  0.71469  0.43397  1.0000
  C   C319      1.0  0.71758  0.72496  0.42723  1.0000
  O   O123      1.0  0.71122  0.72879  0.50469  1.0000
  H   H184      1.0  0.72073  0.74149  0.52232  1.0000
  O   O124      1.0  0.73011  0.70984  0.51776  1.0000
  H   H185      1.0  0.71864  0.69832  0.53451  1.0000
  C   C320      1.0  0.73798  0.69532  0.36253  1.0000
  H   H186      1.0  0.72787  0.68273  0.38107  1.0000
  C   C321      1.0  0.30967  0.02756  0.35567  1.0000
  C   C322      1.0  0.30400  0.01609  0.43399  1.0000
  C   C323      1.0  0.29374  0.99635  0.42721  1.0000
  O   O125      1.0  0.28995  0.98616  0.50467  1.0000
  H   H187      1.0  0.27722  0.98289  0.52224  1.0000
  O   O126      1.0  0.30887  0.02398  0.51779  1.0000
  H   H188      1.0  0.32040  0.02404  0.53446  1.0000
  C   C324      1.0  0.32336  0.04640  0.36261  1.0000
  H   H189      1.0  0.33594  0.04888  0.38127  1.0000
  C   C325      1.0  0.03129  0.72906  0.35575  1.0000
  C   C326      1.0  0.01981  0.72332  0.43403  1.0000
  C   C327      1.0  0.00007  0.71384  0.42715  1.0000
  O   O127      1.0  0.98985  0.70749  0.50452  1.0000
  H   H190      1.0  0.98669  0.71702  0.52211  1.0000
  O   O128      1.0  0.02770  0.72639  0.51786  1.0000
  H   H191      1.0  0.02775  0.71493  0.53475  1.0000
  C   C328      1.0  0.05013  0.73422  0.36266  1.0000
  H   H192      1.0  0.05263  0.72413  0.38130  1.0000
  C   C329      1.0  0.28961  0.30596  0.35571  1.0000
  C   C330      1.0  0.29535  0.30024  0.43404  1.0000
  C   C331      1.0  0.30482  0.28997  0.42723  1.0000
  O   O129      1.0  0.31118  0.28612  0.50467  1.0000
  H   H193      1.0  0.30166  0.27342  0.52225  1.0000
  O   O130      1.0  0.29229  0.30508  0.51783  1.0000
  H   H194      1.0  0.30376  0.31660  0.53463  1.0000
  C   C332      1.0  0.28446  0.31965  0.36250  1.0000
  H   H195      1.0  0.29457  0.33224  0.38093  1.0000
  C   C333      1.0  0.71275  0.98738  0.35564  1.0000
  C   C334      1.0  0.71844  0.99885  0.43399  1.0000
  C   C335      1.0  0.72870  0.01859  0.42725  1.0000
  O   O131      1.0  0.73253  0.02879  0.50470  1.0000
  H   H196      1.0  0.74523  0.03197  0.52235  1.0000
  O   O132      1.0  0.71358  0.99095  0.51778  1.0000
  H   H197      1.0  0.70206  0.99089  0.53451  1.0000
  C   C336      1.0  0.69906  0.96855  0.36255  1.0000
  H   H198      1.0  0.68647  0.96606  0.38107  1.0000
  C   C337      1.0  0.15832  0.33641  0.35761  1.0000
  C   C338      1.0  0.16856  0.33645  0.43481  1.0000
  C   C339      1.0  0.18539  0.33598  0.42613  1.0000
  O   O133      1.0  0.19530  0.33764  0.50256  1.0000
  H   H199      1.0  0.19169  0.32486  0.52076  1.0000
  O   O134      1.0  0.16260  0.33759  0.51938  1.0000
  H   H200      1.0  0.16941  0.35085  0.53624  1.0000
  C   C340      1.0  0.14479  0.34172  0.36655  1.0000
  H   H201      1.0  0.14941  0.35448  0.39118  1.0000
  C   C341      1.0  0.68225  0.82564  0.35772  1.0000
  C   C342      1.0  0.68229  0.83589  0.43487  1.0000
  C   C343      1.0  0.68276  0.85318  0.42608  1.0000
  O   O135      1.0  0.68118  0.86151  0.50243  1.0000
  H   H202      1.0  0.69398  0.87060  0.52070  1.0000
  O   O136      1.0  0.68121  0.82883  0.51948  1.0000
  H   H203      1.0  0.66795  0.82239  0.53656  1.0000
  C   C344      1.0  0.67695  0.80680  0.36663  1.0000
  H   H204      1.0  0.66420  0.79866  0.39137  1.0000
  C   C345      1.0  0.19304  0.86035  0.35768  1.0000
  C   C346      1.0  0.18281  0.85015  0.43485  1.0000
  C   C347      1.0  0.16551  0.83332  0.42610  1.0000
  O   O137      1.0  0.15720  0.82342  0.50248  1.0000
  H   H205      1.0  0.14810  0.82712  0.52074  1.0000
  O   O138      1.0  0.18989  0.85611  0.51944  1.0000
  H   H206      1.0  0.19633  0.84930  0.53640  1.0000
  C   C348      1.0  0.21189  0.87388  0.36649  1.0000
  H   H207      1.0  0.22003  0.86927  0.39113  1.0000
  C   C349      1.0  0.86412  0.67854  0.35764  1.0000
  C   C350      1.0  0.85389  0.67853  0.43485  1.0000
  C   C351      1.0  0.83706  0.67900  0.42617  1.0000
  O   O139      1.0  0.82715  0.67739  0.50257  1.0000
  H   H208      1.0  0.83084  0.69018  0.52087  1.0000
  O   O140      1.0  0.85986  0.67741  0.51942  1.0000
  H   H209      1.0  0.85305  0.66416  0.53637  1.0000
  C   C352      1.0  0.87764  0.67323  0.36661  1.0000
  H   H210      1.0  0.87302  0.66047  0.39124  1.0000
  C   C353      1.0  0.34016  0.18931  0.35764  1.0000
  C   C354      1.0  0.34019  0.17910  0.43481  1.0000
  C   C355      1.0  0.33973  0.16180  0.42610  1.0000
  O   O141      1.0  0.34138  0.15353  0.50251  1.0000
  H   H211      1.0  0.32860  0.14437  0.52072  1.0000
  O   O142      1.0  0.34133  0.18619  0.51940  1.0000
  H   H212      1.0  0.35460  0.19264  0.53627  1.0000
  C   C356      1.0  0.34546  0.20815  0.36662  1.0000
  H   H213      1.0  0.35822  0.21629  0.39132  1.0000
  C   C357      1.0  0.82938  0.15461  0.35776  1.0000
  C   C358      1.0  0.83963  0.16481  0.43491  1.0000
  C   C359      1.0  0.85692  0.18164  0.42610  1.0000
  O   O143      1.0  0.86526  0.19155  0.50243  1.0000
  H   H214      1.0  0.87434  0.18783  0.52069  1.0000
  O   O144      1.0  0.83257  0.15884  0.51952  1.0000
  H   H215      1.0  0.82613  0.16565  0.53660  1.0000
  C   C360      1.0  0.81054  0.14106  0.36670  1.0000
  H   H216      1.0  0.80240  0.14567  0.39147  1.0000
