data_image0
_chemical_formula_structural       C4HOCHNC2HCNC4H3OC4HOCHNC2HCNC4H3OC3HOCONCH3C2H2C4H3OCNH2C3HOCONCH3C2H2C4H3OCNH2C8HNCHNCHC4HC2NC3HOC2NC3HOC8HNCHNCHC4HC2NC3HOC2NC3HOC4OHC3OH2CONCHNCHC2H4C2H4C2NC3H3OC2NC3H3OC4OHC3OH2CONCHNCHC2H4C2H4C2NC3H3OC2NC3H3OC4HOC4OHC4HOC4OHC4HOC4OHNCHNCHNCHNCHNCHNCHC4H4C4H4C4H4C2NC3H3OC2NC3H3OC2NC3H3OC2NC3H3OC2NC3H3OC2NC3H3OC4HOC4OHC4HOC4OHC4HOC4OHNCHNCHNCHNCHNCHNCHC4H4C4H4C4H4C2NC3H3OC2NC3H3OC2NC3H3OC2NC3H3OC2NC3H3OC2NC3H3O
_chemical_formula_sum              "C288 H168 O48 N48"
_cell_length_a       46.5155
_cell_length_b       46.5155
_cell_length_c       14.8227
_cell_angle_alpha    90
_cell_angle_beta     90
_cell_angle_gamma    120

_space_group_name_H-M_alt    "P 1"
_space_group_IT_number       1

loop_
  _space_group_symop_operation_xyz
  'x, y, z'

loop_
  _atom_site_type_symbol
  _atom_site_label
  _atom_site_symmetry_multiplicity
  _atom_site_fract_x
  _atom_site_fract_y
  _atom_site_fract_z
  _atom_site_occupancy
  C   C1        1.0  0.02724  0.26528  0.34250  1.0000
  C   C2        1.0  0.04667  0.30085  0.34322  1.0000
  C   C3        1.0  0.08182  0.31884  0.34301  1.0000
  C   C4        1.0  0.09900  0.30097  0.34304  1.0000
  H   H1        1.0  0.03562  0.31495  0.34479  1.0000
  O   O1        1.0  0.13290  0.31785  0.34386  1.0000
  C   C5        1.0  0.11747  0.25001  0.26253  1.0000
  H   H2        1.0  0.11063  0.25446  0.20085  1.0000
  N   N1        1.0  0.11686  0.36869  0.26753  1.0000
  C   C6        1.0  0.08162  0.26591  0.34100  1.0000
  C   C7        1.0  0.04648  0.24893  0.34150  1.0000
  H   H3        1.0  0.03528  0.22376  0.34089  1.0000
  C   C8        1.0  0.10012  0.24929  0.34158  1.0000
  N   N2        1.0  0.11547  0.25002  0.42044  1.0000
  C   C9        1.0  0.10059  0.35401  0.34548  1.0000
  C   C10       1.0  0.11665  0.37088  0.42652  1.0000
  C   C11       1.0  0.10666  0.35712  0.51163  1.0000
  C   C12       1.0  0.07440  0.34795  0.54881  1.0000
  H   H4        1.0  0.05934  0.35305  0.50207  1.0000
  H   H5        1.0  0.07746  0.36190  0.61074  1.0000
  H   H6        1.0  0.06106  0.32147  0.56451  1.0000
  O   O2        1.0  0.12644  0.35410  0.55950  1.0000
  C   C13       1.0  0.02724  0.76528  0.34250  1.0000
  C   C14       1.0  0.04667  0.80085  0.34322  1.0000
  C   C15       1.0  0.08182  0.81884  0.34301  1.0000
  C   C16       1.0  0.09899  0.80096  0.34304  1.0000
  H   H7        1.0  0.03562  0.81495  0.34479  1.0000
  O   O3        1.0  0.13290  0.81785  0.34386  1.0000
  C   C17       1.0  0.11747  0.75001  0.26253  1.0000
  H   H8        1.0  0.11063  0.75446  0.20085  1.0000
  N   N3        1.0  0.11686  0.86868  0.26753  1.0000
  C   C18       1.0  0.08162  0.76590  0.34100  1.0000
  C   C19       1.0  0.04648  0.74894  0.34150  1.0000
  H   H9        1.0  0.03528  0.72376  0.34089  1.0000
  C   C20       1.0  0.10012  0.74928  0.34158  1.0000
  N   N4        1.0  0.11547  0.75002  0.42044  1.0000
  C   C21       1.0  0.10059  0.85401  0.34548  1.0000
  C   C22       1.0  0.11665  0.87088  0.42652  1.0000
  C   C23       1.0  0.10666  0.85712  0.51163  1.0000
  C   C24       1.0  0.07440  0.84795  0.54881  1.0000
  H   H10       1.0  0.05934  0.85305  0.50207  1.0000
  H   H11       1.0  0.07746  0.86190  0.61074  1.0000
  H   H12       1.0  0.06106  0.82147  0.56451  1.0000
  O   O4        1.0  0.12644  0.85410  0.55950  1.0000
  C   C25       1.0  0.21458  0.24913  0.34530  1.0000
  C   C26       1.0  0.19660  0.26628  0.34727  1.0000
  C   C27       1.0  0.21448  0.30133  0.34888  1.0000
  H   H13       1.0  0.20049  0.22396  0.34597  1.0000
  O   O5        1.0  0.19759  0.31834  0.35068  1.0000
  C   C28       1.0  0.21407  0.41656  0.34634  1.0000
  O   O6        1.0  0.19704  0.38265  0.34730  1.0000
  N   N5        1.0  0.14747  0.25185  0.26992  1.0000
  C   C29       1.0  0.14500  0.39876  0.26179  1.0000
  H   H14       1.0  0.15652  0.40625  0.20055  1.0000
  H   H15       1.0  0.13932  0.32007  0.40777  1.0000
  H   H16       1.0  0.19534  0.32229  0.41480  1.0000
  C   C30       1.0  0.19642  0.43395  0.34306  1.0000
  C   C31       1.0  0.21463  0.46910  0.34169  1.0000
  H   H17       1.0  0.19280  0.37624  0.41121  1.0000
  H   H18       1.0  0.20068  0.48030  0.33936  1.0000
  C   C32       1.0  0.16142  0.24980  0.34874  1.0000
  C   C33       1.0  0.14399  0.24871  0.42878  1.0000
  C   C34       1.0  0.15714  0.25202  0.51453  1.0000
  C   C35       1.0  0.16641  0.22895  0.55130  1.0000
  H   H19       1.0  0.16192  0.20920  0.50370  1.0000
  H   H20       1.0  0.15204  0.21749  0.61228  1.0000
  H   H21       1.0  0.19276  0.24223  0.56852  1.0000
  O   O7        1.0  0.15946  0.27432  0.56333  1.0000
  C   C36       1.0  0.16128  0.41547  0.34176  1.0000
  N   N6        1.0  0.14648  0.39950  0.41983  1.0000
  H   H22       1.0  0.21251  0.05646  0.50078  1.0000
  H   H23       1.0  0.22204  0.07437  0.60969  1.0000
  C   C37       1.0  0.21458  0.74913  0.34530  1.0000
  C   C38       1.0  0.19660  0.76628  0.34727  1.0000
  C   C39       1.0  0.21448  0.80133  0.34888  1.0000
  H   H24       1.0  0.20049  0.72396  0.34597  1.0000
  O   O8        1.0  0.19759  0.81834  0.35068  1.0000
  C   C40       1.0  0.21407  0.91656  0.34634  1.0000
  O   O9        1.0  0.19704  0.88265  0.34730  1.0000
  N   N7        1.0  0.14747  0.75185  0.26992  1.0000
  C   C41       1.0  0.14500  0.89876  0.26179  1.0000
  H   H25       1.0  0.15652  0.90625  0.20055  1.0000
  H   H26       1.0  0.13933  0.82007  0.40777  1.0000
  H   H27       1.0  0.19534  0.82229  0.41480  1.0000
  C   C42       1.0  0.19642  0.93395  0.34306  1.0000
  C   C43       1.0  0.21463  0.96909  0.34169  1.0000
  H   H28       1.0  0.19280  0.87625  0.41121  1.0000
  H   H29       1.0  0.20068  0.98030  0.33936  1.0000
  C   C44       1.0  0.16141  0.74980  0.34874  1.0000
  C   C45       1.0  0.14399  0.74871  0.42878  1.0000
  C   C46       1.0  0.15714  0.75202  0.51453  1.0000
  C   C47       1.0  0.16641  0.72895  0.55130  1.0000
  H   H30       1.0  0.16192  0.70920  0.50370  1.0000
  H   H31       1.0  0.15204  0.71749  0.61228  1.0000
  H   H32       1.0  0.19276  0.74223  0.56852  1.0000
  O   O10       1.0  0.15947  0.77432  0.56333  1.0000
  C   C48       1.0  0.16128  0.91547  0.34176  1.0000
  N   N8        1.0  0.14648  0.89950  0.41983  1.0000
  H   H33       1.0  0.21251  0.55646  0.50078  1.0000
  H   H34       1.0  0.22204  0.57437  0.60969  1.0000
  C   C49       1.0  0.25014  0.26528  0.34364  1.0000
  C   C50       1.0  0.26809  0.24716  0.34295  1.0000
  C   C51       1.0  0.25022  0.48831  0.34317  1.0000
  C   C52       1.0  0.26632  0.46886  0.34485  1.0000
  C   C53       1.0  0.24912  0.43372  0.34597  1.0000
  C   C54       1.0  0.26841  0.02439  0.34275  1.0000
  C   C55       1.0  0.26948  0.07898  0.34245  1.0000
  C   C56       1.0  0.25231  0.04384  0.34275  1.0000
  H   H35       1.0  0.22715  0.03281  0.34347  1.0000
  N   N9        1.0  0.26406  0.39880  0.27040  1.0000
  C   C57       1.0  0.26608  0.37070  0.26446  1.0000
  H   H36       1.0  0.26188  0.35918  0.20319  1.0000
  N   N10       1.0  0.25494  0.11398  0.26575  1.0000
  C   C58       1.0  0.25297  0.14208  0.25939  1.0000
  H   H37       1.0  0.25722  0.15360  0.19809  1.0000
  C   C59       1.0  0.24952  0.31902  0.34519  1.0000
  C   C60       1.0  0.26647  0.30085  0.34251  1.0000
  C   C61       1.0  0.25179  0.21160  0.34034  1.0000
  C   C62       1.0  0.26880  0.19346  0.34036  1.0000
  H   H38       1.0  0.22663  0.19762  0.33777  1.0000
  C   C63       1.0  0.26553  0.41496  0.34842  1.0000
  C   C64       1.0  0.26614  0.35412  0.34428  1.0000
  N   N11       1.0  0.26486  0.36893  0.42226  1.0000
  C   C65       1.0  0.26622  0.39881  0.42934  1.0000
  C   C66       1.0  0.26229  0.40860  0.51456  1.0000
  C   C67       1.0  0.28501  0.44096  0.55181  1.0000
  H   H39       1.0  0.27159  0.45408  0.56683  1.0000
  O   O11       1.0  0.23929  0.38878  0.56181  1.0000
  C   C68       1.0  0.25307  0.09774  0.34397  1.0000
  C   C69       1.0  0.25219  0.15834  0.33902  1.0000
  N   N12       1.0  0.25308  0.14356  0.41743  1.0000
  C   C70       1.0  0.25187  0.11374  0.42469  1.0000
  C   C71       1.0  0.25551  0.10395  0.51019  1.0000
  C   C72       1.0  0.23279  0.07154  0.54717  1.0000
  H   H40       1.0  0.24617  0.05836  0.56182  1.0000
  O   O12       1.0  0.27874  0.12358  0.55714  1.0000
  C   C73       1.0  0.25014  0.76528  0.34364  1.0000
  C   C74       1.0  0.26809  0.74716  0.34295  1.0000
  C   C75       1.0  0.25022  0.98831  0.34317  1.0000
  C   C76       1.0  0.26632  0.96886  0.34485  1.0000
  C   C77       1.0  0.24912  0.93371  0.34596  1.0000
  C   C78       1.0  0.26842  0.52439  0.34275  1.0000
  C   C79       1.0  0.26948  0.57898  0.34245  1.0000
  C   C80       1.0  0.25230  0.54384  0.34275  1.0000
  H   H41       1.0  0.22714  0.53281  0.34347  1.0000
  N   N13       1.0  0.26406  0.89880  0.27040  1.0000
  C   C81       1.0  0.26608  0.87070  0.26446  1.0000
  H   H42       1.0  0.26188  0.85918  0.20319  1.0000
  N   N14       1.0  0.25494  0.61398  0.26575  1.0000
  C   C82       1.0  0.25297  0.64208  0.25939  1.0000
  H   H43       1.0  0.25722  0.65360  0.19809  1.0000
  C   C83       1.0  0.24952  0.81902  0.34519  1.0000
  C   C84       1.0  0.26647  0.80085  0.34251  1.0000
  C   C85       1.0  0.25179  0.71160  0.34034  1.0000
  C   C86       1.0  0.26880  0.69346  0.34036  1.0000
  H   H44       1.0  0.22663  0.69762  0.33777  1.0000
  C   C87       1.0  0.26553  0.91496  0.34842  1.0000
  C   C88       1.0  0.26614  0.85412  0.34428  1.0000
  N   N15       1.0  0.26486  0.86893  0.42226  1.0000
  C   C89       1.0  0.26622  0.89881  0.42934  1.0000
  C   C90       1.0  0.26229  0.90860  0.51456  1.0000
  C   C91       1.0  0.28500  0.94096  0.55181  1.0000
  H   H45       1.0  0.27159  0.95408  0.56683  1.0000
  O   O13       1.0  0.23929  0.88878  0.56181  1.0000
  C   C92       1.0  0.25307  0.59774  0.34397  1.0000
  C   C93       1.0  0.25219  0.65834  0.33902  1.0000
  N   N16       1.0  0.25308  0.64356  0.41743  1.0000
  C   C94       1.0  0.25187  0.61374  0.42469  1.0000
  C   C95       1.0  0.25551  0.60395  0.51019  1.0000
  C   C96       1.0  0.23279  0.57154  0.54717  1.0000
  H   H46       1.0  0.24617  0.55836  0.56182  1.0000
  O   O14       1.0  0.27873  0.62358  0.55714  1.0000
  C   C97       1.0  0.49117  0.24735  0.34403  1.0000
  C   C98       1.0  0.41953  0.21176  0.35528  1.0000
  C   C99       1.0  0.43664  0.19384  0.35164  1.0000
  C   C100      1.0  0.47173  0.21179  0.34606  1.0000
  O   O15       1.0  0.38564  0.19488  0.35851  1.0000
  H   H47       1.0  0.48276  0.19765  0.34477  1.0000
  C   C101      1.0  0.30385  0.21117  0.34345  1.0000
  C   C102      1.0  0.32168  0.24622  0.34469  1.0000
  C   C103      1.0  0.30365  0.26333  0.34537  1.0000
  O   O16       1.0  0.32078  0.19419  0.34405  1.0000
  H   H48       1.0  0.31771  0.28847  0.34855  1.0000
  H   H49       1.0  0.29148  0.47988  0.34569  1.0000
  C   C104      1.0  0.30454  0.09615  0.34295  1.0000
  O   O17       1.0  0.32157  0.13006  0.34330  1.0000
  N   N17       1.0  0.37212  0.26137  0.27198  1.0000
  C   C105      1.0  0.40233  0.26352  0.26760  1.0000
  H   H50       1.0  0.41007  0.25947  0.20679  1.0000
  N   N18       1.0  0.40266  0.14467  0.27387  1.0000
  C   C106      1.0  0.37459  0.11464  0.26517  1.0000
  H   H51       1.0  0.36380  0.10783  0.20290  1.0000
  C   C107      1.0  0.47193  0.26368  0.34374  1.0000
  C   C108      1.0  0.43684  0.24677  0.34941  1.0000
  H   H52       1.0  0.37977  0.19304  0.42280  1.0000
  H   H53       1.0  0.48308  0.28882  0.33971  1.0000
  H   H54       1.0  0.32293  0.18985  0.40789  1.0000
  H   H55       1.0  0.29163  0.31483  0.33927  1.0000
  C   C109      1.0  0.30400  0.04361  0.34256  1.0000
  C   C110      1.0  0.32221  0.07876  0.34193  1.0000
  H   H56       1.0  0.32552  0.13661  0.40716  1.0000
  H   H57       1.0  0.31797  0.03240  0.34251  1.0000
  H   H58       1.0  0.30526  0.45615  0.50543  1.0000
  H   H59       1.0  0.29581  0.43808  0.61416  1.0000
  C   C111      1.0  0.35681  0.26267  0.34905  1.0000
  C   C112      1.0  0.41832  0.26336  0.34853  1.0000
  N   N19       1.0  0.40173  0.26190  0.42556  1.0000
  C   C113      1.0  0.37315  0.26321  0.43082  1.0000
  C   C114      1.0  0.35878  0.25912  0.51518  1.0000
  C   C115      1.0  0.34985  0.28238  0.55235  1.0000
  H   H60       1.0  0.35538  0.30275  0.50593  1.0000
  H   H61       1.0  0.36360  0.29297  0.61474  1.0000
  H   H62       1.0  0.32332  0.26947  0.56726  1.0000
  O   O18       1.0  0.35543  0.23616  0.56288  1.0000
  C   C116      1.0  0.41795  0.15867  0.35348  1.0000
  C   C117      1.0  0.35735  0.09725  0.34343  1.0000
  N   N20       1.0  0.37116  0.11254  0.42300  1.0000
  C   C118      1.0  0.40082  0.14119  0.43266  1.0000
  C   C119      1.0  0.41022  0.15451  0.51848  1.0000
  C   C120      1.0  0.43979  0.15713  0.55917  1.0000
  H   H63       1.0  0.43885  0.13320  0.55701  1.0000
  H   H64       1.0  0.44234  0.16503  0.62956  1.0000
  H   H65       1.0  0.46182  0.17541  0.52293  1.0000
  O   O19       1.0  0.38899  0.15391  0.56857  1.0000
  C   C121      1.0  0.49117  0.74735  0.34403  1.0000
  C   C122      1.0  0.41953  0.71176  0.35528  1.0000
  C   C123      1.0  0.43664  0.69384  0.35164  1.0000
  C   C124      1.0  0.47173  0.71179  0.34606  1.0000
  O   O20       1.0  0.38564  0.69488  0.35851  1.0000
  H   H66       1.0  0.48276  0.69765  0.34477  1.0000
  C   C125      1.0  0.30385  0.71117  0.34345  1.0000
  C   C126      1.0  0.32168  0.74622  0.34469  1.0000
  C   C127      1.0  0.30365  0.76333  0.34537  1.0000
  O   O21       1.0  0.32078  0.69419  0.34405  1.0000
  H   H67       1.0  0.31771  0.78847  0.34855  1.0000
  H   H68       1.0  0.29147  0.97988  0.34569  1.0000
  C   C128      1.0  0.30454  0.59615  0.34295  1.0000
  O   O22       1.0  0.32156  0.63006  0.34330  1.0000
  N   N21       1.0  0.37212  0.76137  0.27198  1.0000
  C   C129      1.0  0.40232  0.76352  0.26760  1.0000
  H   H69       1.0  0.41007  0.75947  0.20679  1.0000
  N   N22       1.0  0.40266  0.64467  0.27387  1.0000
  C   C130      1.0  0.37459  0.61464  0.26517  1.0000
  H   H70       1.0  0.36380  0.60783  0.20290  1.0000
  C   C131      1.0  0.47192  0.76368  0.34374  1.0000
  C   C132      1.0  0.43684  0.74677  0.34941  1.0000
  H   H71       1.0  0.37976  0.69304  0.42280  1.0000
  H   H72       1.0  0.48308  0.78882  0.33971  1.0000
  H   H73       1.0  0.32293  0.68985  0.40789  1.0000
  H   H74       1.0  0.29163  0.81483  0.33927  1.0000
  C   C133      1.0  0.30400  0.54361  0.34256  1.0000
  C   C134      1.0  0.32221  0.57876  0.34193  1.0000
  H   H75       1.0  0.32552  0.63660  0.40716  1.0000
  H   H76       1.0  0.31797  0.53240  0.34251  1.0000
  H   H77       1.0  0.30525  0.95615  0.50543  1.0000
  H   H78       1.0  0.29581  0.93808  0.61416  1.0000
  C   C135      1.0  0.35681  0.76267  0.34905  1.0000
  C   C136      1.0  0.41832  0.76336  0.34853  1.0000
  N   N23       1.0  0.40173  0.76190  0.42556  1.0000
  C   C137      1.0  0.37315  0.76321  0.43082  1.0000
  C   C138      1.0  0.35878  0.75912  0.51518  1.0000
  C   C139      1.0  0.34985  0.78238  0.55235  1.0000
  H   H79       1.0  0.35538  0.80275  0.50593  1.0000
  H   H80       1.0  0.36360  0.79297  0.61474  1.0000
  H   H81       1.0  0.32332  0.76947  0.56726  1.0000
  O   O23       1.0  0.35543  0.73616  0.56288  1.0000
  C   C140      1.0  0.41795  0.65867  0.35348  1.0000
  C   C141      1.0  0.35735  0.59725  0.34343  1.0000
  N   N24       1.0  0.37116  0.61254  0.42300  1.0000
  C   C142      1.0  0.40082  0.64119  0.43266  1.0000
  C   C143      1.0  0.41022  0.65451  0.51848  1.0000
  C   C144      1.0  0.43979  0.65713  0.55917  1.0000
  H   H82       1.0  0.43885  0.63320  0.55701  1.0000
  H   H83       1.0  0.44234  0.66504  0.62956  1.0000
  H   H84       1.0  0.46181  0.67541  0.52293  1.0000
  O   O24       1.0  0.38899  0.65391  0.56857  1.0000
  C   C145      1.0  0.52724  0.26528  0.34250  1.0000
  C   C146      1.0  0.54667  0.30085  0.34322  1.0000
  C   C147      1.0  0.58182  0.31884  0.34301  1.0000
  C   C148      1.0  0.59900  0.30097  0.34304  1.0000
  H   H85       1.0  0.53562  0.31495  0.34479  1.0000
  O   O25       1.0  0.63290  0.31785  0.34386  1.0000
  C   C149      1.0  0.99117  0.24735  0.34403  1.0000
  C   C150      1.0  0.91953  0.21176  0.35528  1.0000
  C   C151      1.0  0.93664  0.19384  0.35164  1.0000
  C   C152      1.0  0.97173  0.21179  0.34606  1.0000
  O   O26       1.0  0.88564  0.19488  0.35851  1.0000
  H   H86       1.0  0.98276  0.19765  0.34477  1.0000
  C   C153      1.0  0.75014  0.26528  0.34364  1.0000
  C   C154      1.0  0.71458  0.24913  0.34530  1.0000
  C   C155      1.0  0.69659  0.26628  0.34727  1.0000
  C   C156      1.0  0.71448  0.30133  0.34888  1.0000
  H   H87       1.0  0.70049  0.22396  0.34597  1.0000
  O   O27       1.0  0.69759  0.31834  0.35068  1.0000
  C   C157      1.0  0.76809  0.24716  0.34295  1.0000
  C   C158      1.0  0.80385  0.21117  0.34345  1.0000
  C   C159      1.0  0.82168  0.24622  0.34469  1.0000
  C   C160      1.0  0.80365  0.26333  0.34537  1.0000
  O   O28       1.0  0.82078  0.19419  0.34405  1.0000
  H   H88       1.0  0.81771  0.28847  0.34855  1.0000
  C   C161      1.0  0.75022  0.48831  0.34317  1.0000
  C   C162      1.0  0.76632  0.46886  0.34485  1.0000
  C   C163      1.0  0.74912  0.43372  0.34597  1.0000
  C   C164      1.0  0.71407  0.41656  0.34634  1.0000
  H   H89       1.0  0.79147  0.47988  0.34569  1.0000
  O   O29       1.0  0.69704  0.38265  0.34730  1.0000
  C   C165      1.0  0.76841  0.02439  0.34275  1.0000
  C   C166      1.0  0.80454  0.09615  0.34295  1.0000
  C   C167      1.0  0.76948  0.07898  0.34245  1.0000
  C   C168      1.0  0.75231  0.04384  0.34275  1.0000
  O   O30       1.0  0.82156  0.13006  0.34330  1.0000
  H   H90       1.0  0.72714  0.03281  0.34347  1.0000
  N   N25       1.0  0.64747  0.25185  0.26992  1.0000
  C   C169      1.0  0.61747  0.25001  0.26253  1.0000
  H   H91       1.0  0.61063  0.25446  0.20085  1.0000
  N   N26       1.0  0.76405  0.39880  0.27040  1.0000
  C   C170      1.0  0.76607  0.37070  0.26446  1.0000
  H   H92       1.0  0.76188  0.35918  0.20319  1.0000
  N   N27       1.0  0.61686  0.36869  0.26753  1.0000
  C   C171      1.0  0.64500  0.39876  0.26179  1.0000
  H   H93       1.0  0.65652  0.40625  0.20055  1.0000
  N   N28       1.0  0.87212  0.26137  0.27198  1.0000
  C   C172      1.0  0.90232  0.26352  0.26760  1.0000
  H   H94       1.0  0.91007  0.25947  0.20679  1.0000
  N   N29       1.0  0.75494  0.11398  0.26575  1.0000
  C   C173      1.0  0.75297  0.14208  0.25939  1.0000
  H   H95       1.0  0.75722  0.15360  0.19809  1.0000
  N   N30       1.0  0.90266  0.14467  0.27387  1.0000
  C   C174      1.0  0.87459  0.11464  0.26517  1.0000
  H   H96       1.0  0.86380  0.10783  0.20290  1.0000
  C   C175      1.0  0.58162  0.26591  0.34100  1.0000
  C   C176      1.0  0.54648  0.24893  0.34150  1.0000
  C   C177      1.0  0.97193  0.26368  0.34374  1.0000
  C   C178      1.0  0.93685  0.24677  0.34941  1.0000
  H   H97       1.0  0.63932  0.32007  0.40777  1.0000
  H   H98       1.0  0.87977  0.19304  0.42280  1.0000
  H   H99       1.0  0.53528  0.22376  0.34089  1.0000
  H   H100      1.0  0.98309  0.28882  0.33971  1.0000
  C   C179      1.0  0.74952  0.31902  0.34519  1.0000
  C   C180      1.0  0.76647  0.30085  0.34251  1.0000
  C   C181      1.0  0.75179  0.21160  0.34034  1.0000
  C   C182      1.0  0.76880  0.19346  0.34036  1.0000
  H   H101      1.0  0.69534  0.32229  0.41480  1.0000
  H   H102      1.0  0.82293  0.18985  0.40789  1.0000
  H   H103      1.0  0.79163  0.31483  0.33927  1.0000
  H   H104      1.0  0.72663  0.19762  0.33777  1.0000
  C   C183      1.0  0.69642  0.43395  0.34306  1.0000
  C   C184      1.0  0.71463  0.46910  0.34169  1.0000
  C   C185      1.0  0.80400  0.04361  0.34256  1.0000
  C   C186      1.0  0.82221  0.07876  0.34193  1.0000
  H   H105      1.0  0.69280  0.37624  0.41121  1.0000
  H   H106      1.0  0.82552  0.13661  0.40716  1.0000
  H   H107      1.0  0.70068  0.48030  0.33936  1.0000
  H   H108      1.0  0.81797  0.03240  0.34251  1.0000
  C   C187      1.0  0.66141  0.24980  0.34874  1.0000
  C   C188      1.0  0.60012  0.24929  0.34158  1.0000
  N   N31       1.0  0.61547  0.25002  0.42044  1.0000
  C   C189      1.0  0.64399  0.24871  0.42878  1.0000
  C   C190      1.0  0.65714  0.25202  0.51453  1.0000
  C   C191      1.0  0.66641  0.22895  0.55130  1.0000
  H   H109      1.0  0.66192  0.20920  0.50370  1.0000
  H   H110      1.0  0.65204  0.21749  0.61228  1.0000
  H   H111      1.0  0.69276  0.24223  0.56852  1.0000
  O   O31       1.0  0.65946  0.27432  0.56333  1.0000
  C   C192      1.0  0.76553  0.41496  0.34842  1.0000
  C   C193      1.0  0.76614  0.35412  0.34428  1.0000
  N   N32       1.0  0.76486  0.36893  0.42226  1.0000
  C   C194      1.0  0.76622  0.39881  0.42934  1.0000
  C   C195      1.0  0.76229  0.40860  0.51456  1.0000
  C   C196      1.0  0.78500  0.44096  0.55181  1.0000
  H   H112      1.0  0.80526  0.45615  0.50543  1.0000
  H   H113      1.0  0.79581  0.43808  0.61416  1.0000
  H   H114      1.0  0.77159  0.45408  0.56683  1.0000
  O   O32       1.0  0.73929  0.38878  0.56181  1.0000
  C   C197      1.0  0.60059  0.35401  0.34548  1.0000
  C   C198      1.0  0.66128  0.41547  0.34176  1.0000
  N   N33       1.0  0.64648  0.39950  0.41983  1.0000
  C   C199      1.0  0.61664  0.37088  0.42652  1.0000
  C   C200      1.0  0.60666  0.35712  0.51163  1.0000
  C   C201      1.0  0.57440  0.34795  0.54881  1.0000
  H   H115      1.0  0.55934  0.35305  0.50207  1.0000
  H   H116      1.0  0.57746  0.36190  0.61074  1.0000
  H   H117      1.0  0.56106  0.32147  0.56451  1.0000
  O   O33       1.0  0.62644  0.35410  0.55950  1.0000
  C   C202      1.0  0.85681  0.26267  0.34905  1.0000
  C   C203      1.0  0.91832  0.26336  0.34853  1.0000
  N   N34       1.0  0.90173  0.26190  0.42556  1.0000
  C   C204      1.0  0.87315  0.26321  0.43082  1.0000
  C   C205      1.0  0.85878  0.25912  0.51518  1.0000
  C   C206      1.0  0.84985  0.28238  0.55235  1.0000
  H   H118      1.0  0.85537  0.30275  0.50593  1.0000
  H   H119      1.0  0.86360  0.29297  0.61474  1.0000
  H   H120      1.0  0.82332  0.26947  0.56726  1.0000
  O   O34       1.0  0.85543  0.23616  0.56288  1.0000
  C   C207      1.0  0.75307  0.09774  0.34397  1.0000
  C   C208      1.0  0.75219  0.15834  0.33902  1.0000
  N   N35       1.0  0.75308  0.14356  0.41743  1.0000
  C   C209      1.0  0.75187  0.11374  0.42469  1.0000
  C   C210      1.0  0.75551  0.10395  0.51019  1.0000
  C   C211      1.0  0.73279  0.07154  0.54717  1.0000
  H   H121      1.0  0.71251  0.05646  0.50078  1.0000
  H   H122      1.0  0.72204  0.07437  0.60969  1.0000
  H   H123      1.0  0.74617  0.05836  0.56182  1.0000
  O   O35       1.0  0.77873  0.12358  0.55714  1.0000
  C   C212      1.0  0.91795  0.15867  0.35348  1.0000
  C   C213      1.0  0.85734  0.09725  0.34343  1.0000
  N   N36       1.0  0.87116  0.11254  0.42300  1.0000
  C   C214      1.0  0.90082  0.14119  0.43266  1.0000
  C   C215      1.0  0.91022  0.15451  0.51848  1.0000
  C   C216      1.0  0.93979  0.15713  0.55917  1.0000
  H   H124      1.0  0.93885  0.13320  0.55701  1.0000
  H   H125      1.0  0.94234  0.16503  0.62956  1.0000
  H   H126      1.0  0.96181  0.17541  0.52293  1.0000
  O   O36       1.0  0.88899  0.15391  0.56857  1.0000
  C   C217      1.0  0.52724  0.76528  0.34250  1.0000
  C   C218      1.0  0.54667  0.80085  0.34322  1.0000
  C   C219      1.0  0.58182  0.81884  0.34301  1.0000
  C   C220      1.0  0.59899  0.80096  0.34304  1.0000
  H   H127      1.0  0.53562  0.81495  0.34479  1.0000
  O   O37       1.0  0.63290  0.81785  0.34386  1.0000
  C   C221      1.0  0.99117  0.74735  0.34403  1.0000
  C   C222      1.0  0.91953  0.71176  0.35528  1.0000
  C   C223      1.0  0.93664  0.69384  0.35164  1.0000
  C   C224      1.0  0.97173  0.71179  0.34606  1.0000
  O   O38       1.0  0.88564  0.69488  0.35851  1.0000
  H   H128      1.0  0.98276  0.69765  0.34477  1.0000
  C   C225      1.0  0.75014  0.76528  0.34364  1.0000
  C   C226      1.0  0.71458  0.74913  0.34530  1.0000
  C   C227      1.0  0.69660  0.76628  0.34727  1.0000
  C   C228      1.0  0.71447  0.80133  0.34888  1.0000
  H   H129      1.0  0.70049  0.72396  0.34597  1.0000
  O   O39       1.0  0.69759  0.81834  0.35068  1.0000
  C   C229      1.0  0.76809  0.74716  0.34295  1.0000
  C   C230      1.0  0.80385  0.71117  0.34345  1.0000
  C   C231      1.0  0.82168  0.74622  0.34469  1.0000
  C   C232      1.0  0.80365  0.76333  0.34537  1.0000
  O   O40       1.0  0.82078  0.69419  0.34405  1.0000
  H   H130      1.0  0.81771  0.78847  0.34855  1.0000
  C   C233      1.0  0.75022  0.98831  0.34317  1.0000
  C   C234      1.0  0.76632  0.96886  0.34485  1.0000
  C   C235      1.0  0.74912  0.93371  0.34596  1.0000
  C   C236      1.0  0.71407  0.91656  0.34634  1.0000
  H   H131      1.0  0.79148  0.97988  0.34569  1.0000
  O   O41       1.0  0.69704  0.88265  0.34730  1.0000
  C   C237      1.0  0.76841  0.52439  0.34275  1.0000
  C   C238      1.0  0.80454  0.59615  0.34295  1.0000
  C   C239      1.0  0.76948  0.57898  0.34245  1.0000
  C   C240      1.0  0.75230  0.54384  0.34275  1.0000
  O   O42       1.0  0.82156  0.63006  0.34330  1.0000
  H   H132      1.0  0.72715  0.53281  0.34347  1.0000
  N   N37       1.0  0.64747  0.75185  0.26992  1.0000
  C   C241      1.0  0.61747  0.75001  0.26253  1.0000
  H   H133      1.0  0.61063  0.75446  0.20085  1.0000
  N   N38       1.0  0.76406  0.89880  0.27040  1.0000
  C   C242      1.0  0.76607  0.87070  0.26446  1.0000
  H   H134      1.0  0.76188  0.85918  0.20319  1.0000
  N   N39       1.0  0.61686  0.86868  0.26753  1.0000
  C   C243      1.0  0.64500  0.89876  0.26179  1.0000
  H   H135      1.0  0.65652  0.90625  0.20055  1.0000
  N   N40       1.0  0.87212  0.76137  0.27198  1.0000
  C   C244      1.0  0.90232  0.76352  0.26760  1.0000
  H   H136      1.0  0.91007  0.75947  0.20679  1.0000
  N   N41       1.0  0.75494  0.61398  0.26575  1.0000
  C   C245      1.0  0.75297  0.64208  0.25939  1.0000
  H   H137      1.0  0.75722  0.65360  0.19809  1.0000
  N   N42       1.0  0.90266  0.64467  0.27387  1.0000
  C   C246      1.0  0.87459  0.61464  0.26517  1.0000
  H   H138      1.0  0.86380  0.60783  0.20290  1.0000
  C   C247      1.0  0.58162  0.76590  0.34100  1.0000
  C   C248      1.0  0.54648  0.74894  0.34150  1.0000
  C   C249      1.0  0.97192  0.76368  0.34374  1.0000
  C   C250      1.0  0.93684  0.74677  0.34941  1.0000
  H   H139      1.0  0.63932  0.82007  0.40777  1.0000
  H   H140      1.0  0.87976  0.69304  0.42280  1.0000
  H   H141      1.0  0.53528  0.72376  0.34089  1.0000
  H   H142      1.0  0.98308  0.78882  0.33971  1.0000
  C   C251      1.0  0.74951  0.81902  0.34519  1.0000
  C   C252      1.0  0.76647  0.80085  0.34251  1.0000
  C   C253      1.0  0.75179  0.71160  0.34034  1.0000
  C   C254      1.0  0.76880  0.69346  0.34036  1.0000
  H   H143      1.0  0.69534  0.82229  0.41480  1.0000
  H   H144      1.0  0.82293  0.68985  0.40789  1.0000
  H   H145      1.0  0.79162  0.81483  0.33927  1.0000
  H   H146      1.0  0.72663  0.69762  0.33777  1.0000
  C   C255      1.0  0.69642  0.93395  0.34306  1.0000
  C   C256      1.0  0.71463  0.96909  0.34169  1.0000
  C   C257      1.0  0.80400  0.54361  0.34256  1.0000
  C   C258      1.0  0.82221  0.57876  0.34193  1.0000
  H   H147      1.0  0.69280  0.87625  0.41121  1.0000
  H   H148      1.0  0.82552  0.63660  0.40716  1.0000
  H   H149      1.0  0.70068  0.98030  0.33936  1.0000
  H   H150      1.0  0.81797  0.53240  0.34251  1.0000
  C   C259      1.0  0.66141  0.74980  0.34874  1.0000
  C   C260      1.0  0.60012  0.74928  0.34158  1.0000
  N   N43       1.0  0.61547  0.75002  0.42044  1.0000
  C   C261      1.0  0.64399  0.74871  0.42878  1.0000
  C   C262      1.0  0.65714  0.75202  0.51453  1.0000
  C   C263      1.0  0.66641  0.72895  0.55130  1.0000
  H   H151      1.0  0.66192  0.70920  0.50370  1.0000
  H   H152      1.0  0.65204  0.71749  0.61228  1.0000
  H   H153      1.0  0.69276  0.74223  0.56852  1.0000
  O   O43       1.0  0.65946  0.77432  0.56333  1.0000
  C   C264      1.0  0.76553  0.91496  0.34842  1.0000
  C   C265      1.0  0.76614  0.85412  0.34428  1.0000
  N   N44       1.0  0.76486  0.86893  0.42226  1.0000
  C   C266      1.0  0.76622  0.89881  0.42934  1.0000
  C   C267      1.0  0.76229  0.90860  0.51456  1.0000
  C   C268      1.0  0.78500  0.94096  0.55181  1.0000
  H   H154      1.0  0.80526  0.95615  0.50543  1.0000
  H   H155      1.0  0.79581  0.93808  0.61416  1.0000
  H   H156      1.0  0.77159  0.95408  0.56683  1.0000
  O   O44       1.0  0.73929  0.88878  0.56181  1.0000
  C   C269      1.0  0.60059  0.85401  0.34548  1.0000
  C   C270      1.0  0.66128  0.91547  0.34176  1.0000
  N   N45       1.0  0.64648  0.89950  0.41983  1.0000
  C   C271      1.0  0.61665  0.87088  0.42652  1.0000
  C   C272      1.0  0.60666  0.85712  0.51163  1.0000
  C   C273      1.0  0.57440  0.84795  0.54881  1.0000
  H   H157      1.0  0.55934  0.85305  0.50207  1.0000
  H   H158      1.0  0.57746  0.86190  0.61074  1.0000
  H   H159      1.0  0.56106  0.82147  0.56451  1.0000
  O   O45       1.0  0.62644  0.85410  0.55950  1.0000
  C   C274      1.0  0.85681  0.76267  0.34905  1.0000
  C   C275      1.0  0.91832  0.76336  0.34853  1.0000
  N   N46       1.0  0.90173  0.76190  0.42556  1.0000
  C   C276      1.0  0.87315  0.76321  0.43082  1.0000
  C   C277      1.0  0.85878  0.75912  0.51518  1.0000
  C   C278      1.0  0.84985  0.78238  0.55235  1.0000
  H   H160      1.0  0.85538  0.80275  0.50593  1.0000
  H   H161      1.0  0.86360  0.79297  0.61474  1.0000
  H   H162      1.0  0.82332  0.76947  0.56726  1.0000
  O   O46       1.0  0.85543  0.73616  0.56288  1.0000
  C   C279      1.0  0.75307  0.59774  0.34397  1.0000
  C   C280      1.0  0.75219  0.65834  0.33902  1.0000
  N   N47       1.0  0.75308  0.64356  0.41743  1.0000
  C   C281      1.0  0.75187  0.61374  0.42469  1.0000
  C   C282      1.0  0.75551  0.60395  0.51019  1.0000
  C   C283      1.0  0.73279  0.57154  0.54717  1.0000
  H   H163      1.0  0.71251  0.55646  0.50078  1.0000
  H   H164      1.0  0.72204  0.57437  0.60969  1.0000
  H   H165      1.0  0.74617  0.55836  0.56182  1.0000
  O   O47       1.0  0.77873  0.62358  0.55714  1.0000
  C   C284      1.0  0.91795  0.65867  0.35348  1.0000
  C   C285      1.0  0.85734  0.59725  0.34343  1.0000
  N   N48       1.0  0.87115  0.61254  0.42300  1.0000
  C   C286      1.0  0.90082  0.64119  0.43266  1.0000
  C   C287      1.0  0.91022  0.65451  0.51848  1.0000
  C   C288      1.0  0.93979  0.65713  0.55917  1.0000
  H   H166      1.0  0.93885  0.63320  0.55701  1.0000
  H   H167      1.0  0.94234  0.66504  0.62956  1.0000
  H   H168      1.0  0.96181  0.67541  0.52293  1.0000
  O   O48       1.0  0.88899  0.65391  0.56857  1.0000
