data_image0
_chemical_formula_structural       C2OCHC2OCH3CH2CHCH2CH2CHC4H2CHC4HC3OH4C6O2H4C6O2H4NC2H4NCHCH4NCH2NCHCH4NCHCH4NCHCH4C3HO2C3HOC3OHC3HOC3OHCNCNCNHCH2C2NCNCNHCH2CNCNCNHC2NCNCNHCH2C2NCNCNHCH2C2NCNCNHCH2C3OH4C6O2H4C6O2H4NC2H4NCHCH4NCH2NCHCH4NCHCH4NCHCH4C3HO2C3HOC3OHC3HOC3OHCNCNCNHCH2C2NCNCNHCH2CNCNCNHC2NCNCNHCH2C2NCNCNHCH2C2NCNCNHCH2C6O2H3C6O2H4C6O2H4NCHCH4NCHCH4NCHCH4NCHCH4NCHCH4NCHCH4C3HOC3OHC3HOC3OHC3HOC3OHC2NCNCNHCH2C2NCNCNHCH2C2NCNCNHCH2C2NCNCNHCH2C2NCNCNHCH2C2NCNCNHCH2C6O2H3C6O2H4C6O2H4NCHCH4NCHCH4NCHCH4NCHCH4NCHCH4NCHCH4C3HOC3OHC3HOC3OHC3HOC3OHC2NCNCNHCH2C2NCNCNHCH2C2NCNCNHCH2C2NCNCNHCH2C2NCNCNHCH2C2NCNCNHCH2
_chemical_formula_sum              "C312 O48 H264 N96"
_cell_length_a       46.1227
_cell_length_b       46.1227
_cell_length_c       14.9364
_cell_angle_alpha    90
_cell_angle_beta     90
_cell_angle_gamma    120

_space_group_name_H-M_alt    "P 1"
_space_group_IT_number       1

loop_
  _space_group_symop_operation_xyz
  'x, y, z'

loop_
  _atom_site_type_symbol
  _atom_site_label
  _atom_site_symmetry_multiplicity
  _atom_site_fract_x
  _atom_site_fract_y
  _atom_site_fract_z
  _atom_site_occupancy
  C   C1        1.0  0.02131  0.26139  0.31493  1.0000
  C   C2        1.0  0.04131  0.29736  0.30872  1.0000
  O   O1        1.0  0.02938  0.31708  0.27693  1.0000
  C   C3        1.0  0.04002  0.24470  0.32976  1.0000
  H   H1        1.0  0.02841  0.21963  0.34028  1.0000
  C   C4        1.0  0.02131  0.76139  0.31493  1.0000
  C   C5        1.0  0.04131  0.79736  0.30872  1.0000
  O   O2        1.0  0.02938  0.81708  0.27693  1.0000
  C   C6        1.0  0.04002  0.74470  0.32976  1.0000
  H   H2        1.0  0.02841  0.71964  0.34028  1.0000
  H   H3        1.0  0.02557  0.31241  0.21244  1.0000
  H   H4        1.0  0.02557  0.81241  0.21244  1.0000
  C   C7        1.0  0.07561  0.31504  0.33342  1.0000
  H   H5        1.0  0.07094  0.34101  0.00937  1.0000
  H   H6        1.0  0.07173  0.27279  0.01540  1.0000
  C   C8        1.0  0.07502  0.26145  0.34143  1.0000
  H   H7        1.0  0.05701  0.28480  0.58730  1.0000
  C   C9        1.0  0.07561  0.81504  0.33342  1.0000
  H   H8        1.0  0.07094  0.84101  0.00937  1.0000
  H   H9        1.0  0.07173  0.77279  0.01540  1.0000
  C   C10       1.0  0.07503  0.76145  0.34143  1.0000
  H   H10       1.0  0.05701  0.78480  0.58730  1.0000
  H   H11       1.0  0.09479  0.23681  0.20843  1.0000
  C   C11       1.0  0.09188  0.33918  0.03731  1.0000
  H   H12       1.0  0.08360  0.32471  0.09924  1.0000
  C   C12       1.0  0.09232  0.29668  0.34614  1.0000
  C   C13       1.0  0.09335  0.24447  0.34847  1.0000
  C   C14       1.0  0.09444  0.35029  0.34539  1.0000
  C   C15       1.0  0.07933  0.28724  0.62006  1.0000
  H   H13       1.0  0.09032  0.27622  0.57672  1.0000
  H   H14       1.0  0.09479  0.73681  0.20843  1.0000
  C   C16       1.0  0.09188  0.83917  0.03731  1.0000
  H   H15       1.0  0.08360  0.82471  0.09924  1.0000
  C   C17       1.0  0.09232  0.79668  0.34614  1.0000
  C   C18       1.0  0.09335  0.74447  0.34847  1.0000
  C   C19       1.0  0.09444  0.85029  0.34539  1.0000
  C   C20       1.0  0.07933  0.78724  0.62006  1.0000
  H   H16       1.0  0.09032  0.77622  0.57672  1.0000
  C   C21       1.0  0.48498  0.24297  0.31495  1.0000
  C   C22       1.0  0.43063  0.18932  0.33280  1.0000
  C   C23       1.0  0.46496  0.20702  0.30832  1.0000
  O   O3        1.0  0.47689  0.18732  0.27639  1.0000
  H   H17       1.0  0.98071  0.19204  0.21192  1.0000
  H   H18       1.0  0.52557  0.31241  0.21244  1.0000
  H   H19       1.0  0.37169  0.18716  0.29033  1.0000
  H   H20       1.0  0.13458  0.31732  0.29077  1.0000
  C   C24       1.0  0.26241  0.24325  0.31556  1.0000
  C   C25       1.0  0.31608  0.24263  0.33417  1.0000
  C   C26       1.0  0.29838  0.25922  0.30927  1.0000
  C   C27       1.0  0.24395  0.26113  0.31513  1.0000
  C   C28       1.0  0.20800  0.24516  0.30834  1.0000
  C   C29       1.0  0.19028  0.26185  0.33201  1.0000
  O   O4        1.0  0.31809  0.29085  0.27732  1.0000
  O   O5        1.0  0.18830  0.21347  0.27683  1.0000
  H   H21       1.0  0.31341  0.28993  0.21282  1.0000
  H   H22       1.0  0.19302  0.21425  0.21239  1.0000
  H   H23       1.0  0.31824  0.18579  0.29257  1.0000
  H   H24       1.0  0.18810  0.31860  0.28911  1.0000
  C   C30       1.0  0.26214  0.02033  0.31517  1.0000
  C   C31       1.0  0.26283  0.07466  0.33341  1.0000
  C   C32       1.0  0.24619  0.04034  0.30884  1.0000
  C   C33       1.0  0.24424  0.48400  0.31545  1.0000
  C   C34       1.0  0.26017  0.46397  0.30911  1.0000
  C   C35       1.0  0.24356  0.42968  0.33402  1.0000
  O   O6        1.0  0.21454  0.02843  0.27711  1.0000
  O   O7        1.0  0.29177  0.47584  0.27702  1.0000
  H   H25       1.0  0.21538  0.52456  0.21264  1.0000
  H   H26       1.0  0.29082  0.97959  0.21252  1.0000
  H   H27       1.0  0.31954  0.13359  0.29051  1.0000
  H   H28       1.0  0.18674  0.37074  0.29202  1.0000
  N   N1        1.0  0.13623  0.24018  0.26960  1.0000
  C   C36       1.0  0.10541  0.23742  0.26900  1.0000
  C   C37       1.0  0.16596  0.25341  0.03654  1.0000
  H   H29       1.0  0.14087  0.24847  0.05388  1.0000
  H   H30       1.0  0.18043  0.25953  0.09844  1.0000
  H   H31       1.0  0.16404  0.23061  0.00848  1.0000
  H   H32       1.0  0.23240  0.29953  0.01470  1.0000
  N   N2        1.0  0.26535  0.39757  0.27041  1.0000
  C   C38       1.0  0.26802  0.36946  0.26910  1.0000
  H   H33       1.0  0.26883  0.35976  0.20821  1.0000
  C   C39       1.0  0.25189  0.41317  0.03757  1.0000
  H   H34       1.0  0.25699  0.39311  0.05467  1.0000
  H   H35       1.0  0.24577  0.42143  0.09962  1.0000
  H   H36       1.0  0.27460  0.43413  0.00943  1.0000
  H   H37       1.0  0.20548  0.43315  0.01646  1.0000
  N   N3        1.0  0.10784  0.36929  0.27066  1.0000
  C   C40       1.0  0.13598  0.40004  0.27023  1.0000
  H   H38       1.0  0.14574  0.41096  0.20975  1.0000
  H   H39       1.0  0.11198  0.36429  0.05459  1.0000
  N   N4        1.0  0.37003  0.26434  0.27114  1.0000
  C   C41       1.0  0.40083  0.26705  0.27002  1.0000
  H   H40       1.0  0.41135  0.26770  0.20927  1.0000
  C   C42       1.0  0.34061  0.25104  0.03799  1.0000
  H   H41       1.0  0.36578  0.25620  0.05524  1.0000
  H   H42       1.0  0.32617  0.24488  0.09996  1.0000
  H   H43       1.0  0.34232  0.27372  0.00980  1.0000
  H   H44       1.0  0.27427  0.20455  0.01650  1.0000
  N   N5        1.0  0.24088  0.10696  0.27076  1.0000
  C   C43       1.0  0.23828  0.13511  0.27047  1.0000
  H   H45       1.0  0.23713  0.14490  0.21002  1.0000
  C   C44       1.0  0.25469  0.09062  0.03743  1.0000
  H   H46       1.0  0.24963  0.11068  0.05480  1.0000
  H   H47       1.0  0.26084  0.08229  0.09932  1.0000
  H   H48       1.0  0.23195  0.06969  0.00929  1.0000
  H   H49       1.0  0.30102  0.07057  0.01559  1.0000
  N   N6        1.0  0.39840  0.13510  0.26974  1.0000
  C   C45       1.0  0.37039  0.10424  0.26909  1.0000
  H   H50       1.0  0.36047  0.09353  0.20855  1.0000
  C   C46       1.0  0.41433  0.16483  0.03670  1.0000
  H   H51       1.0  0.39416  0.13974  0.05391  1.0000
  H   H52       1.0  0.42265  0.17926  0.09867  1.0000
  H   H53       1.0  0.43521  0.16289  0.00874  1.0000
  H   H54       1.0  0.43473  0.23129  0.01506  1.0000
  C   C47       1.0  0.46629  0.25966  0.33028  1.0000
  C   C48       1.0  0.43128  0.24292  0.34159  1.0000
  C   C49       1.0  0.41394  0.20769  0.34573  1.0000
  H   H55       1.0  0.47792  0.28470  0.34108  1.0000
  O   O8        1.0  0.37985  0.19097  0.35244  1.0000
  O   O9        1.0  0.12641  0.31341  0.35287  1.0000
  C   C50       1.0  0.24573  0.20787  0.33070  1.0000
  C   C51       1.0  0.26249  0.18964  0.34274  1.0000
  C   C52       1.0  0.29772  0.20760  0.34750  1.0000
  H   H56       1.0  0.22065  0.19440  0.34087  1.0000
  O   O10       1.0  0.31448  0.19028  0.35458  1.0000
  C   C53       1.0  0.20862  0.29691  0.34478  1.0000
  C   C54       1.0  0.24386  0.31482  0.34093  1.0000
  C   C55       1.0  0.26061  0.29653  0.33012  1.0000
  O   O11       1.0  0.19187  0.31426  0.35126  1.0000
  H   H57       1.0  0.28566  0.30997  0.34094  1.0000
  C   C56       1.0  0.29756  0.03904  0.32993  1.0000
  C   C57       1.0  0.31583  0.07404  0.34163  1.0000
  C   C58       1.0  0.29790  0.09136  0.34609  1.0000
  H   H58       1.0  0.31100  0.02743  0.34046  1.0000
  O   O12       1.0  0.31527  0.12545  0.35265  1.0000
  C   C59       1.0  0.20852  0.41302  0.34727  1.0000
  C   C60       1.0  0.19060  0.43034  0.34271  1.0000
  C   C61       1.0  0.20885  0.46531  0.33066  1.0000
  O   O13       1.0  0.19116  0.37893  0.35410  1.0000
  H   H59       1.0  0.19540  0.47694  0.34081  1.0000
  C   C62       1.0  0.15506  0.24538  0.34455  1.0000
  N   N7        1.0  0.11291  0.25101  0.42223  1.0000
  C   C63       1.0  0.14180  0.24995  0.42567  1.0000
  N   N8        1.0  0.15937  0.25727  0.50096  1.0000
  C   C64       1.0  0.16294  0.27784  0.56383  1.0000
  N   N9        1.0  0.18227  0.28183  0.63905  1.0000
  H   H60       1.0  0.15173  0.29142  0.56004  1.0000
  C   C65       1.0  0.21794  0.29272  0.61936  1.0000
  H   H61       1.0  0.22902  0.31473  0.57604  1.0000
  H   H62       1.0  0.22031  0.27281  0.58658  1.0000
  C   C66       1.0  0.25998  0.41083  0.34582  1.0000
  C   C67       1.0  0.26090  0.35013  0.34804  1.0000
  N   N10       1.0  0.25424  0.36280  0.42237  1.0000
  C   C68       1.0  0.25530  0.39274  0.42656  1.0000
  N   N11       1.0  0.24797  0.40283  0.50213  1.0000
  C   C69       1.0  0.22741  0.38572  0.56490  1.0000
  N   N12       1.0  0.22339  0.40093  0.64032  1.0000
  H   H63       1.0  0.21382  0.36094  0.56079  1.0000
  C   C70       1.0  0.21231  0.42560  0.62097  1.0000
  H   H64       1.0  0.19025  0.41458  0.57780  1.0000
  H   H65       1.0  0.23212  0.44795  0.58818  1.0000
  C   C71       1.0  0.15529  0.41204  0.34933  1.0000
  N   N13       1.0  0.14232  0.39233  0.42295  1.0000
  C   C72       1.0  0.11238  0.36344  0.42650  1.0000
  N   N14       1.0  0.10222  0.34587  0.50184  1.0000
  C   C73       1.0  0.11929  0.34228  0.56447  1.0000
  N   N15       1.0  0.10404  0.32294  0.63973  1.0000
  H   H66       1.0  0.14407  0.35345  0.56040  1.0000
  C   C74       1.0  0.35131  0.25909  0.34636  1.0000
  C   C75       1.0  0.41300  0.25994  0.34917  1.0000
  N   N16       1.0  0.39358  0.25339  0.42322  1.0000
  C   C76       1.0  0.36473  0.25451  0.42719  1.0000
  N   N17       1.0  0.34726  0.24718  0.50265  1.0000
  C   C77       1.0  0.34375  0.22659  0.56542  1.0000
  N   N18       1.0  0.32444  0.22254  0.64071  1.0000
  H   H67       1.0  0.35491  0.21298  0.56135  1.0000
  C   C78       1.0  0.28869  0.21139  0.62110  1.0000
  H   H68       1.0  0.27773  0.18932  0.57797  1.0000
  H   H69       1.0  0.28614  0.23116  0.58816  1.0000
  C   C79       1.0  0.24642  0.09349  0.34543  1.0000
  C   C80       1.0  0.24552  0.15435  0.34973  1.0000
  N   N19       1.0  0.25222  0.14131  0.42325  1.0000
  C   C81       1.0  0.25118  0.11138  0.42663  1.0000
  N   N20       1.0  0.25856  0.10115  0.50190  1.0000
  C   C82       1.0  0.27910  0.11818  0.56482  1.0000
  N   N21       1.0  0.28314  0.10287  0.64000  1.0000
  H   H70       1.0  0.29260  0.14297  0.56109  1.0000
  C   C83       1.0  0.29419  0.07821  0.62025  1.0000
  H   H71       1.0  0.31623  0.08926  0.57704  1.0000
  H   H72       1.0  0.27436  0.05591  0.58733  1.0000
  C   C84       1.0  0.41180  0.15406  0.34455  1.0000
  C   C85       1.0  0.35115  0.09235  0.34830  1.0000
  N   N22       1.0  0.36396  0.11191  0.42217  1.0000
  C   C86       1.0  0.39387  0.14083  0.42568  1.0000
  N   N23       1.0  0.40406  0.15835  0.50107  1.0000
  C   C87       1.0  0.38701  0.16191  0.56385  1.0000
  N   N24       1.0  0.40229  0.18119  0.63917  1.0000
  H   H73       1.0  0.36223  0.15072  0.55990  1.0000
  C   C88       1.0  0.42713  0.21687  0.61966  1.0000
  H   H74       1.0  0.41624  0.22798  0.57630  1.0000
  H   H75       1.0  0.44942  0.21923  0.58700  1.0000
  C   C89       1.0  0.48499  0.74297  0.31495  1.0000
  C   C90       1.0  0.43063  0.68932  0.33280  1.0000
  C   C91       1.0  0.46496  0.70701  0.30832  1.0000
  O   O14       1.0  0.47689  0.68732  0.27639  1.0000
  H   H76       1.0  0.98071  0.69204  0.21192  1.0000
  H   H77       1.0  0.52557  0.81241  0.21244  1.0000
  H   H78       1.0  0.37169  0.68716  0.29033  1.0000
  H   H79       1.0  0.13458  0.81732  0.29077  1.0000
  C   C92       1.0  0.26241  0.74326  0.31556  1.0000
  C   C93       1.0  0.31608  0.74264  0.33417  1.0000
  C   C94       1.0  0.29838  0.75923  0.30927  1.0000
  C   C95       1.0  0.24395  0.76113  0.31513  1.0000
  C   C96       1.0  0.20800  0.74516  0.30834  1.0000
  C   C97       1.0  0.19028  0.76185  0.33201  1.0000
  O   O15       1.0  0.31809  0.79085  0.27732  1.0000
  O   O16       1.0  0.18830  0.71347  0.27683  1.0000
  H   H80       1.0  0.31341  0.78993  0.21282  1.0000
  H   H81       1.0  0.19302  0.71425  0.21239  1.0000
  H   H82       1.0  0.31824  0.68579  0.29257  1.0000
  H   H83       1.0  0.18810  0.81860  0.28911  1.0000
  C   C98       1.0  0.26214  0.52033  0.31517  1.0000
  C   C99       1.0  0.26283  0.57466  0.33341  1.0000
  C   C100      1.0  0.24619  0.54034  0.30884  1.0000
  C   C101      1.0  0.24424  0.98400  0.31545  1.0000
  C   C102      1.0  0.26017  0.96397  0.30911  1.0000
  C   C103      1.0  0.24356  0.92968  0.33402  1.0000
  O   O17       1.0  0.21454  0.52843  0.27711  1.0000
  O   O18       1.0  0.29177  0.97584  0.27702  1.0000
  H   H84       1.0  0.21538  0.02456  0.21264  1.0000
  H   H85       1.0  0.29082  0.47959  0.21252  1.0000
  H   H86       1.0  0.31954  0.63359  0.29051  1.0000
  H   H87       1.0  0.18673  0.87074  0.29202  1.0000
  N   N25       1.0  0.13623  0.74018  0.26960  1.0000
  C   C104      1.0  0.10541  0.73742  0.26900  1.0000
  C   C105      1.0  0.16596  0.75341  0.03654  1.0000
  H   H88       1.0  0.14087  0.74847  0.05388  1.0000
  H   H89       1.0  0.18043  0.75953  0.09844  1.0000
  H   H90       1.0  0.16404  0.73062  0.00848  1.0000
  H   H91       1.0  0.23240  0.79953  0.01470  1.0000
  N   N26       1.0  0.26535  0.89758  0.27041  1.0000
  C   C106      1.0  0.26802  0.86947  0.26910  1.0000
  H   H92       1.0  0.26883  0.85976  0.20821  1.0000
  C   C107      1.0  0.25189  0.91317  0.03757  1.0000
  H   H93       1.0  0.25699  0.89311  0.05467  1.0000
  H   H94       1.0  0.24577  0.92143  0.09962  1.0000
  H   H95       1.0  0.27460  0.93413  0.00943  1.0000
  H   H96       1.0  0.20548  0.93315  0.01646  1.0000
  N   N27       1.0  0.10784  0.86929  0.27066  1.0000
  C   C108      1.0  0.13598  0.90004  0.27023  1.0000
  H   H97       1.0  0.14574  0.91096  0.20975  1.0000
  H   H98       1.0  0.11198  0.86430  0.05459  1.0000
  N   N28       1.0  0.37003  0.76434  0.27114  1.0000
  C   C109      1.0  0.40083  0.76705  0.27002  1.0000
  H   H99       1.0  0.41135  0.76770  0.20927  1.0000
  C   C110      1.0  0.34061  0.75104  0.03799  1.0000
  H   H100      1.0  0.36578  0.75620  0.05524  1.0000
  H   H101      1.0  0.32617  0.74488  0.09996  1.0000
  H   H102      1.0  0.34232  0.77372  0.00980  1.0000
  H   H103      1.0  0.27427  0.70455  0.01650  1.0000
  N   N29       1.0  0.24088  0.60696  0.27076  1.0000
  C   C111      1.0  0.23828  0.63511  0.27047  1.0000
  H   H104      1.0  0.23713  0.64490  0.21002  1.0000
  C   C112      1.0  0.25469  0.59062  0.03743  1.0000
  H   H105      1.0  0.24963  0.61068  0.05480  1.0000
  H   H106      1.0  0.26085  0.58229  0.09932  1.0000
  H   H107      1.0  0.23195  0.56969  0.00929  1.0000
  H   H108      1.0  0.30102  0.57058  0.01559  1.0000
  N   N30       1.0  0.39840  0.63510  0.26974  1.0000
  C   C113      1.0  0.37039  0.60424  0.26909  1.0000
  H   H109      1.0  0.36047  0.59353  0.20855  1.0000
  C   C114      1.0  0.41433  0.66483  0.03670  1.0000
  H   H110      1.0  0.39416  0.63974  0.05391  1.0000
  H   H111      1.0  0.42265  0.67926  0.09867  1.0000
  H   H112      1.0  0.43521  0.66289  0.00874  1.0000
  H   H113      1.0  0.43473  0.73129  0.01506  1.0000
  C   C115      1.0  0.46629  0.75965  0.33028  1.0000
  C   C116      1.0  0.43128  0.74293  0.34159  1.0000
  C   C117      1.0  0.41394  0.70769  0.34573  1.0000
  H   H114      1.0  0.47792  0.78471  0.34108  1.0000
  O   O19       1.0  0.37985  0.69097  0.35244  1.0000
  O   O20       1.0  0.12640  0.81341  0.35287  1.0000
  C   C118      1.0  0.24573  0.70787  0.33070  1.0000
  C   C119      1.0  0.26249  0.68964  0.34274  1.0000
  C   C120      1.0  0.29772  0.70760  0.34750  1.0000
  H   H115      1.0  0.22065  0.69439  0.34087  1.0000
  O   O21       1.0  0.31448  0.69028  0.35458  1.0000
  C   C121      1.0  0.20862  0.79691  0.34478  1.0000
  C   C122      1.0  0.24386  0.81482  0.34093  1.0000
  C   C123      1.0  0.26061  0.79653  0.33012  1.0000
  O   O22       1.0  0.19187  0.81426  0.35126  1.0000
  H   H116      1.0  0.28566  0.80997  0.34094  1.0000
  C   C124      1.0  0.29756  0.53904  0.32993  1.0000
  C   C125      1.0  0.31583  0.57404  0.34163  1.0000
  C   C126      1.0  0.29791  0.59136  0.34609  1.0000
  H   H117      1.0  0.31101  0.52743  0.34046  1.0000
  O   O23       1.0  0.31527  0.62545  0.35265  1.0000
  C   C127      1.0  0.20852  0.91302  0.34727  1.0000
  C   C128      1.0  0.19060  0.93034  0.34271  1.0000
  C   C129      1.0  0.20885  0.96531  0.33066  1.0000
  O   O24       1.0  0.19117  0.87893  0.35410  1.0000
  H   H118      1.0  0.19540  0.97694  0.34081  1.0000
  C   C130      1.0  0.15507  0.74538  0.34455  1.0000
  N   N31       1.0  0.11291  0.75101  0.42223  1.0000
  C   C131      1.0  0.14180  0.74995  0.42567  1.0000
  N   N32       1.0  0.15937  0.75727  0.50096  1.0000
  C   C132      1.0  0.16294  0.77784  0.56383  1.0000
  N   N33       1.0  0.18227  0.78183  0.63905  1.0000
  H   H119      1.0  0.15173  0.79142  0.56004  1.0000
  C   C133      1.0  0.21794  0.79272  0.61936  1.0000
  H   H120      1.0  0.22902  0.81473  0.57604  1.0000
  H   H121      1.0  0.22031  0.77281  0.58658  1.0000
  C   C134      1.0  0.25998  0.91083  0.34582  1.0000
  C   C135      1.0  0.26090  0.85013  0.34804  1.0000
  N   N34       1.0  0.25424  0.86280  0.42237  1.0000
  C   C136      1.0  0.25530  0.89275  0.42656  1.0000
  N   N35       1.0  0.24797  0.90283  0.50213  1.0000
  C   C137      1.0  0.22741  0.88572  0.56490  1.0000
  N   N36       1.0  0.22339  0.90093  0.64032  1.0000
  H   H122      1.0  0.21382  0.86094  0.56079  1.0000
  C   C138      1.0  0.21231  0.92560  0.62097  1.0000
  H   H123      1.0  0.19025  0.91458  0.57780  1.0000
  H   H124      1.0  0.23212  0.94795  0.58818  1.0000
  C   C139      1.0  0.15529  0.91204  0.34933  1.0000
  N   N37       1.0  0.14232  0.89233  0.42295  1.0000
  C   C140      1.0  0.11238  0.86344  0.42650  1.0000
  N   N38       1.0  0.10222  0.84587  0.50184  1.0000
  C   C141      1.0  0.11929  0.84228  0.56447  1.0000
  N   N39       1.0  0.10404  0.82294  0.63973  1.0000
  H   H125      1.0  0.14407  0.85345  0.56040  1.0000
  C   C142      1.0  0.35131  0.75909  0.34636  1.0000
  C   C143      1.0  0.41300  0.75994  0.34917  1.0000
  N   N40       1.0  0.39358  0.75339  0.42322  1.0000
  C   C144      1.0  0.36473  0.75451  0.42719  1.0000
  N   N41       1.0  0.34726  0.74718  0.50265  1.0000
  C   C145      1.0  0.34375  0.72659  0.56542  1.0000
  N   N42       1.0  0.32444  0.72254  0.64071  1.0000
  H   H126      1.0  0.35491  0.71298  0.56135  1.0000
  C   C146      1.0  0.28870  0.71139  0.62110  1.0000
  H   H127      1.0  0.27773  0.68932  0.57797  1.0000
  H   H128      1.0  0.28614  0.73116  0.58816  1.0000
  C   C147      1.0  0.24642  0.59349  0.34543  1.0000
  C   C148      1.0  0.24552  0.65435  0.34973  1.0000
  N   N43       1.0  0.25222  0.64131  0.42325  1.0000
  C   C149      1.0  0.25118  0.61138  0.42663  1.0000
  N   N44       1.0  0.25856  0.60115  0.50190  1.0000
  C   C150      1.0  0.27910  0.61818  0.56482  1.0000
  N   N45       1.0  0.28314  0.60287  0.64000  1.0000
  H   H129      1.0  0.29260  0.64297  0.56109  1.0000
  C   C151      1.0  0.29419  0.57820  0.62025  1.0000
  H   H130      1.0  0.31624  0.58926  0.57704  1.0000
  H   H131      1.0  0.27436  0.55591  0.58733  1.0000
  C   C152      1.0  0.41180  0.65406  0.34455  1.0000
  C   C153      1.0  0.35115  0.59235  0.34830  1.0000
  N   N46       1.0  0.36396  0.61191  0.42217  1.0000
  C   C154      1.0  0.39388  0.64083  0.42568  1.0000
  N   N47       1.0  0.40406  0.65836  0.50107  1.0000
  C   C155      1.0  0.38701  0.66191  0.56385  1.0000
  N   N48       1.0  0.40229  0.68119  0.63917  1.0000
  H   H132      1.0  0.36223  0.65072  0.55990  1.0000
  C   C156      1.0  0.42713  0.71687  0.61966  1.0000
  H   H133      1.0  0.41624  0.72798  0.57630  1.0000
  H   H134      1.0  0.44943  0.71923  0.58700  1.0000
  C   C157      1.0  0.98498  0.24297  0.31495  1.0000
  C   C158      1.0  0.93063  0.18932  0.33280  1.0000
  C   C159      1.0  0.96497  0.20702  0.30832  1.0000
  C   C160      1.0  0.52131  0.26139  0.31493  1.0000
  C   C161      1.0  0.54131  0.29736  0.30872  1.0000
  C   C162      1.0  0.57561  0.31504  0.33342  1.0000
  O   O25       1.0  0.97689  0.18732  0.27639  1.0000
  O   O26       1.0  0.52938  0.31708  0.27693  1.0000
  H   H135      1.0  0.48071  0.19204  0.21192  1.0000
  H   H136      1.0  0.87169  0.18716  0.29033  1.0000
  H   H137      1.0  0.63458  0.31732  0.29077  1.0000
  C   C163      1.0  0.76241  0.24325  0.31556  1.0000
  C   C164      1.0  0.81608  0.24263  0.33417  1.0000
  C   C165      1.0  0.79837  0.25922  0.30927  1.0000
  C   C166      1.0  0.74396  0.26113  0.31513  1.0000
  C   C167      1.0  0.70800  0.24516  0.30834  1.0000
  C   C168      1.0  0.69028  0.26185  0.33201  1.0000
  O   O27       1.0  0.81809  0.29085  0.27732  1.0000
  O   O28       1.0  0.68830  0.21347  0.27683  1.0000
  H   H138      1.0  0.81341  0.28993  0.21282  1.0000
  H   H139      1.0  0.69302  0.21425  0.21239  1.0000
  H   H140      1.0  0.81824  0.18579  0.29257  1.0000
  H   H141      1.0  0.68810  0.31860  0.28911  1.0000
  C   C169      1.0  0.76214  0.02033  0.31517  1.0000
  C   C170      1.0  0.76284  0.07466  0.33341  1.0000
  C   C171      1.0  0.74619  0.04034  0.30884  1.0000
  C   C172      1.0  0.74424  0.48400  0.31545  1.0000
  C   C173      1.0  0.76017  0.46397  0.30911  1.0000
  C   C174      1.0  0.74356  0.42968  0.33402  1.0000
  O   O29       1.0  0.71454  0.02843  0.27711  1.0000
  O   O30       1.0  0.79177  0.47584  0.27702  1.0000
  H   H142      1.0  0.71538  0.52456  0.21264  1.0000
  H   H143      1.0  0.79082  0.97959  0.21252  1.0000
  H   H144      1.0  0.81954  0.13359  0.29051  1.0000
  H   H145      1.0  0.68673  0.37074  0.29202  1.0000
  N   N49       1.0  0.63623  0.24018  0.26960  1.0000
  C   C175      1.0  0.60541  0.23742  0.26900  1.0000
  H   H146      1.0  0.59479  0.23681  0.20843  1.0000
  C   C176      1.0  0.66596  0.25341  0.03654  1.0000
  H   H147      1.0  0.64087  0.24847  0.05388  1.0000
  H   H148      1.0  0.68043  0.25953  0.09844  1.0000
  H   H149      1.0  0.66404  0.23061  0.00848  1.0000
  H   H150      1.0  0.73240  0.29953  0.01470  1.0000
  N   N50       1.0  0.76535  0.39757  0.27041  1.0000
  C   C177      1.0  0.76802  0.36946  0.26910  1.0000
  H   H151      1.0  0.76883  0.35976  0.20821  1.0000
  C   C178      1.0  0.75189  0.41317  0.03757  1.0000
  H   H152      1.0  0.75699  0.39311  0.05467  1.0000
  H   H153      1.0  0.74577  0.42143  0.09962  1.0000
  H   H154      1.0  0.77460  0.43413  0.00943  1.0000
  H   H155      1.0  0.70548  0.43315  0.01646  1.0000
  N   N51       1.0  0.60784  0.36929  0.27066  1.0000
  C   C179      1.0  0.63598  0.40004  0.27023  1.0000
  H   H156      1.0  0.64574  0.41096  0.20975  1.0000
  C   C180      1.0  0.59188  0.33918  0.03731  1.0000
  H   H157      1.0  0.61198  0.36429  0.05459  1.0000
  H   H158      1.0  0.58360  0.32471  0.09924  1.0000
  H   H159      1.0  0.57094  0.34101  0.00937  1.0000
  H   H160      1.0  0.57173  0.27279  0.01540  1.0000
  N   N52       1.0  0.87003  0.26434  0.27114  1.0000
  C   C181      1.0  0.90082  0.26705  0.27002  1.0000
  H   H161      1.0  0.91135  0.26770  0.20927  1.0000
  C   C182      1.0  0.84061  0.25104  0.03799  1.0000
  H   H162      1.0  0.86578  0.25620  0.05524  1.0000
  H   H163      1.0  0.82617  0.24488  0.09996  1.0000
  H   H164      1.0  0.84231  0.27372  0.00980  1.0000
  H   H165      1.0  0.77427  0.20455  0.01650  1.0000
  N   N53       1.0  0.74088  0.10696  0.27076  1.0000
  C   C183      1.0  0.73828  0.13511  0.27047  1.0000
  H   H166      1.0  0.73713  0.14490  0.21002  1.0000
  C   C184      1.0  0.75469  0.09062  0.03743  1.0000
  H   H167      1.0  0.74963  0.11068  0.05480  1.0000
  H   H168      1.0  0.76084  0.08229  0.09932  1.0000
  H   H169      1.0  0.73195  0.06969  0.00929  1.0000
  H   H170      1.0  0.80102  0.07057  0.01559  1.0000
  N   N54       1.0  0.89840  0.13510  0.26974  1.0000
  C   C185      1.0  0.87039  0.10424  0.26909  1.0000
  H   H171      1.0  0.86047  0.09353  0.20855  1.0000
  C   C186      1.0  0.91433  0.16483  0.03670  1.0000
  H   H172      1.0  0.89416  0.13974  0.05391  1.0000
  H   H173      1.0  0.92265  0.17926  0.09867  1.0000
  H   H174      1.0  0.93522  0.16289  0.00874  1.0000
  H   H175      1.0  0.93473  0.23129  0.01506  1.0000
  C   C187      1.0  0.96629  0.25966  0.33028  1.0000
  C   C188      1.0  0.93127  0.24292  0.34159  1.0000
  C   C189      1.0  0.91394  0.20769  0.34573  1.0000
  H   H176      1.0  0.97792  0.28470  0.34108  1.0000
  O   O31       1.0  0.87986  0.19097  0.35244  1.0000
  C   C190      1.0  0.59232  0.29668  0.34614  1.0000
  C   C191      1.0  0.57503  0.26145  0.34143  1.0000
  C   C192      1.0  0.54002  0.24470  0.32976  1.0000
  O   O32       1.0  0.62641  0.31341  0.35287  1.0000
  H   H177      1.0  0.52841  0.21963  0.34028  1.0000
  C   C193      1.0  0.74574  0.20787  0.33070  1.0000
  C   C194      1.0  0.76249  0.18964  0.34274  1.0000
  C   C195      1.0  0.79772  0.20760  0.34750  1.0000
  H   H178      1.0  0.72065  0.19440  0.34087  1.0000
  O   O33       1.0  0.81448  0.19028  0.35458  1.0000
  C   C196      1.0  0.70862  0.29691  0.34478  1.0000
  C   C197      1.0  0.74386  0.31482  0.34093  1.0000
  C   C198      1.0  0.76061  0.29653  0.33012  1.0000
  O   O34       1.0  0.69187  0.31426  0.35126  1.0000
  H   H179      1.0  0.78566  0.30997  0.34094  1.0000
  C   C199      1.0  0.79756  0.03904  0.32993  1.0000
  C   C200      1.0  0.81582  0.07404  0.34163  1.0000
  C   C201      1.0  0.79790  0.09136  0.34609  1.0000
  H   H180      1.0  0.81101  0.02743  0.34046  1.0000
  O   O35       1.0  0.81527  0.12545  0.35265  1.0000
  C   C202      1.0  0.70852  0.41302  0.34727  1.0000
  C   C203      1.0  0.69060  0.43034  0.34271  1.0000
  C   C204      1.0  0.70885  0.46531  0.33066  1.0000
  O   O36       1.0  0.69116  0.37893  0.35410  1.0000
  H   H181      1.0  0.69539  0.47694  0.34081  1.0000
  C   C205      1.0  0.65506  0.24538  0.34455  1.0000
  C   C206      1.0  0.59335  0.24447  0.34847  1.0000
  N   N55       1.0  0.61291  0.25101  0.42223  1.0000
  C   C207      1.0  0.64180  0.24995  0.42567  1.0000
  N   N56       1.0  0.65937  0.25727  0.50096  1.0000
  C   C208      1.0  0.66294  0.27784  0.56383  1.0000
  N   N57       1.0  0.68227  0.28183  0.63905  1.0000
  H   H182      1.0  0.65173  0.29142  0.56004  1.0000
  C   C209      1.0  0.71794  0.29272  0.61936  1.0000
  H   H183      1.0  0.72902  0.31473  0.57604  1.0000
  H   H184      1.0  0.72031  0.27281  0.58658  1.0000
  C   C210      1.0  0.75998  0.41083  0.34582  1.0000
  C   C211      1.0  0.76090  0.35013  0.34804  1.0000
  N   N58       1.0  0.75424  0.36280  0.42237  1.0000
  C   C212      1.0  0.75530  0.39274  0.42656  1.0000
  N   N59       1.0  0.74797  0.40283  0.50213  1.0000
  C   C213      1.0  0.72741  0.38572  0.56490  1.0000
  N   N60       1.0  0.72339  0.40093  0.64032  1.0000
  H   H185      1.0  0.71383  0.36094  0.56079  1.0000
  C   C214      1.0  0.71231  0.42560  0.62097  1.0000
  H   H186      1.0  0.69025  0.41458  0.57780  1.0000
  H   H187      1.0  0.73212  0.44795  0.58818  1.0000
  C   C215      1.0  0.59444  0.35029  0.34539  1.0000
  C   C216      1.0  0.65529  0.41204  0.34933  1.0000
  N   N61       1.0  0.64232  0.39233  0.42295  1.0000
  C   C217      1.0  0.61238  0.36344  0.42650  1.0000
  N   N62       1.0  0.60222  0.34587  0.50184  1.0000
  C   C218      1.0  0.61929  0.34228  0.56447  1.0000
  N   N63       1.0  0.60404  0.32294  0.63973  1.0000
  H   H188      1.0  0.64407  0.35345  0.56040  1.0000
  C   C219      1.0  0.57932  0.28724  0.62006  1.0000
  H   H189      1.0  0.59032  0.27622  0.57672  1.0000
  H   H190      1.0  0.55701  0.28480  0.58730  1.0000
  C   C220      1.0  0.85131  0.25909  0.34636  1.0000
  C   C221      1.0  0.91300  0.25994  0.34917  1.0000
  N   N64       1.0  0.89358  0.25339  0.42322  1.0000
  C   C222      1.0  0.86473  0.25451  0.42719  1.0000
  N   N65       1.0  0.84725  0.24718  0.50265  1.0000
  C   C223      1.0  0.84375  0.22659  0.56542  1.0000
  N   N66       1.0  0.82444  0.22254  0.64071  1.0000
  H   H191      1.0  0.85491  0.21298  0.56135  1.0000
  C   C224      1.0  0.78870  0.21139  0.62110  1.0000
  H   H192      1.0  0.77773  0.18932  0.57797  1.0000
  H   H193      1.0  0.78614  0.23116  0.58816  1.0000
  C   C225      1.0  0.74642  0.09349  0.34543  1.0000
  C   C226      1.0  0.74552  0.15435  0.34973  1.0000
  N   N67       1.0  0.75222  0.14131  0.42325  1.0000
  C   C227      1.0  0.75119  0.11138  0.42663  1.0000
  N   N68       1.0  0.75856  0.10115  0.50190  1.0000
  C   C228      1.0  0.77910  0.11818  0.56482  1.0000
  N   N69       1.0  0.78314  0.10287  0.64000  1.0000
  H   H194      1.0  0.79260  0.14297  0.56109  1.0000
  C   C229      1.0  0.79419  0.07821  0.62025  1.0000
  H   H195      1.0  0.81624  0.08926  0.57704  1.0000
  H   H196      1.0  0.77436  0.05591  0.58733  1.0000
  C   C230      1.0  0.91180  0.15406  0.34455  1.0000
  C   C231      1.0  0.85115  0.09235  0.34830  1.0000
  N   N70       1.0  0.86396  0.11191  0.42217  1.0000
  C   C232      1.0  0.89387  0.14083  0.42568  1.0000
  N   N71       1.0  0.90406  0.15835  0.50107  1.0000
  C   C233      1.0  0.88701  0.16191  0.56385  1.0000
  N   N72       1.0  0.90229  0.18119  0.63917  1.0000
  H   H197      1.0  0.86223  0.15072  0.55990  1.0000
  C   C234      1.0  0.92713  0.21687  0.61966  1.0000
  H   H198      1.0  0.91624  0.22798  0.57630  1.0000
  H   H199      1.0  0.94942  0.21923  0.58700  1.0000
  C   C235      1.0  0.98499  0.74297  0.31495  1.0000
  C   C236      1.0  0.93063  0.68932  0.33280  1.0000
  C   C237      1.0  0.96496  0.70701  0.30832  1.0000
  C   C238      1.0  0.52131  0.76139  0.31493  1.0000
  C   C239      1.0  0.54131  0.79736  0.30872  1.0000
  C   C240      1.0  0.57561  0.81504  0.33342  1.0000
  O   O37       1.0  0.97689  0.68732  0.27639  1.0000
  O   O38       1.0  0.52938  0.81708  0.27693  1.0000
  H   H200      1.0  0.48071  0.69204  0.21192  1.0000
  H   H201      1.0  0.87169  0.68716  0.29033  1.0000
  H   H202      1.0  0.63458  0.81732  0.29077  1.0000
  C   C241      1.0  0.76241  0.74326  0.31556  1.0000
  C   C242      1.0  0.81608  0.74264  0.33417  1.0000
  C   C243      1.0  0.79837  0.75923  0.30927  1.0000
  C   C244      1.0  0.74396  0.76113  0.31513  1.0000
  C   C245      1.0  0.70800  0.74516  0.30834  1.0000
  C   C246      1.0  0.69028  0.76185  0.33201  1.0000
  O   O39       1.0  0.81809  0.79085  0.27732  1.0000
  O   O40       1.0  0.68830  0.71347  0.27683  1.0000
  H   H203      1.0  0.81341  0.78993  0.21282  1.0000
  H   H204      1.0  0.69302  0.71425  0.21239  1.0000
  H   H205      1.0  0.81824  0.68579  0.29257  1.0000
  H   H206      1.0  0.68810  0.81860  0.28911  1.0000
  C   C247      1.0  0.76214  0.52033  0.31517  1.0000
  C   C248      1.0  0.76284  0.57466  0.33341  1.0000
  C   C249      1.0  0.74619  0.54034  0.30884  1.0000
  C   C250      1.0  0.74424  0.98400  0.31545  1.0000
  C   C251      1.0  0.76017  0.96397  0.30911  1.0000
  C   C252      1.0  0.74356  0.92968  0.33402  1.0000
  O   O41       1.0  0.71454  0.52843  0.27711  1.0000
  O   O42       1.0  0.79177  0.97584  0.27702  1.0000
  H   H207      1.0  0.71538  0.02456  0.21264  1.0000
  H   H208      1.0  0.79082  0.47959  0.21252  1.0000
  H   H209      1.0  0.81954  0.63359  0.29051  1.0000
  H   H210      1.0  0.68674  0.87074  0.29202  1.0000
  N   N73       1.0  0.63623  0.74018  0.26960  1.0000
  C   C253      1.0  0.60541  0.73742  0.26900  1.0000
  H   H211      1.0  0.59479  0.73681  0.20843  1.0000
  C   C254      1.0  0.66596  0.75341  0.03654  1.0000
  H   H212      1.0  0.64087  0.74847  0.05388  1.0000
  H   H213      1.0  0.68043  0.75953  0.09844  1.0000
  H   H214      1.0  0.66404  0.73062  0.00848  1.0000
  H   H215      1.0  0.73240  0.79953  0.01470  1.0000
  N   N74       1.0  0.76535  0.89758  0.27041  1.0000
  C   C255      1.0  0.76802  0.86947  0.26910  1.0000
  H   H216      1.0  0.76883  0.85976  0.20821  1.0000
  C   C256      1.0  0.75189  0.91317  0.03757  1.0000
  H   H217      1.0  0.75699  0.89311  0.05467  1.0000
  H   H218      1.0  0.74577  0.92143  0.09962  1.0000
  H   H219      1.0  0.77460  0.93413  0.00943  1.0000
  H   H220      1.0  0.70549  0.93315  0.01646  1.0000
  N   N75       1.0  0.60784  0.86929  0.27066  1.0000
  C   C257      1.0  0.63598  0.90004  0.27023  1.0000
  H   H221      1.0  0.64574  0.91096  0.20975  1.0000
  C   C258      1.0  0.59188  0.83917  0.03731  1.0000
  H   H222      1.0  0.61198  0.86430  0.05459  1.0000
  H   H223      1.0  0.58360  0.82471  0.09924  1.0000
  H   H224      1.0  0.57094  0.84101  0.00937  1.0000
  H   H225      1.0  0.57173  0.77279  0.01540  1.0000
  N   N76       1.0  0.87003  0.76434  0.27114  1.0000
  C   C259      1.0  0.90082  0.76705  0.27002  1.0000
  H   H226      1.0  0.91135  0.76770  0.20927  1.0000
  C   C260      1.0  0.84061  0.75104  0.03799  1.0000
  H   H227      1.0  0.86578  0.75620  0.05524  1.0000
  H   H228      1.0  0.82617  0.74488  0.09996  1.0000
  H   H229      1.0  0.84231  0.77372  0.00980  1.0000
  H   H230      1.0  0.77427  0.70455  0.01650  1.0000
  N   N77       1.0  0.74088  0.60696  0.27076  1.0000
  C   C261      1.0  0.73828  0.63511  0.27047  1.0000
  H   H231      1.0  0.73713  0.64490  0.21002  1.0000
  C   C262      1.0  0.75469  0.59062  0.03743  1.0000
  H   H232      1.0  0.74963  0.61068  0.05480  1.0000
  H   H233      1.0  0.76085  0.58229  0.09932  1.0000
  H   H234      1.0  0.73195  0.56969  0.00929  1.0000
  H   H235      1.0  0.80102  0.57058  0.01559  1.0000
  N   N78       1.0  0.89840  0.63510  0.26974  1.0000
  C   C263      1.0  0.87039  0.60424  0.26909  1.0000
  H   H236      1.0  0.86047  0.59353  0.20855  1.0000
  C   C264      1.0  0.91433  0.66483  0.03670  1.0000
  H   H237      1.0  0.89416  0.63974  0.05391  1.0000
  H   H238      1.0  0.92265  0.67926  0.09867  1.0000
  H   H239      1.0  0.93522  0.66289  0.00874  1.0000
  H   H240      1.0  0.93473  0.73129  0.01506  1.0000
  C   C265      1.0  0.96629  0.75965  0.33028  1.0000
  C   C266      1.0  0.93128  0.74293  0.34159  1.0000
  C   C267      1.0  0.91394  0.70769  0.34573  1.0000
  H   H241      1.0  0.97792  0.78471  0.34108  1.0000
  O   O43       1.0  0.87986  0.69097  0.35244  1.0000
  C   C268      1.0  0.59232  0.79668  0.34614  1.0000
  C   C269      1.0  0.57503  0.76145  0.34143  1.0000
  C   C270      1.0  0.54002  0.74470  0.32976  1.0000
  O   O44       1.0  0.62641  0.81341  0.35287  1.0000
  H   H242      1.0  0.52841  0.71964  0.34028  1.0000
  C   C271      1.0  0.74573  0.70787  0.33070  1.0000
  C   C272      1.0  0.76249  0.68964  0.34274  1.0000
  C   C273      1.0  0.79772  0.70760  0.34750  1.0000
  H   H243      1.0  0.72065  0.69439  0.34087  1.0000
  O   O45       1.0  0.81448  0.69028  0.35458  1.0000
  C   C274      1.0  0.70862  0.79691  0.34478  1.0000
  C   C275      1.0  0.74386  0.81482  0.34093  1.0000
  C   C276      1.0  0.76061  0.79653  0.33012  1.0000
  O   O46       1.0  0.69187  0.81426  0.35126  1.0000
  H   H244      1.0  0.78566  0.80997  0.34094  1.0000
  C   C277      1.0  0.79756  0.53904  0.32993  1.0000
  C   C278      1.0  0.81582  0.57404  0.34163  1.0000
  C   C279      1.0  0.79790  0.59136  0.34609  1.0000
  H   H245      1.0  0.81101  0.52743  0.34046  1.0000
  O   O47       1.0  0.81527  0.62545  0.35265  1.0000
  C   C280      1.0  0.70852  0.91302  0.34727  1.0000
  C   C281      1.0  0.69060  0.93034  0.34271  1.0000
  C   C282      1.0  0.70885  0.96531  0.33066  1.0000
  O   O48       1.0  0.69116  0.87893  0.35410  1.0000
  H   H246      1.0  0.69540  0.97694  0.34081  1.0000
  C   C283      1.0  0.65506  0.74538  0.34455  1.0000
  C   C284      1.0  0.59335  0.74447  0.34847  1.0000
  N   N79       1.0  0.61291  0.75101  0.42223  1.0000
  C   C285      1.0  0.64180  0.74995  0.42567  1.0000
  N   N80       1.0  0.65937  0.75727  0.50096  1.0000
  C   C286      1.0  0.66295  0.77784  0.56383  1.0000
  N   N81       1.0  0.68227  0.78183  0.63905  1.0000
  H   H247      1.0  0.65173  0.79142  0.56004  1.0000
  C   C287      1.0  0.71794  0.79272  0.61936  1.0000
  H   H248      1.0  0.72902  0.81473  0.57604  1.0000
  H   H249      1.0  0.72031  0.77281  0.58658  1.0000
  C   C288      1.0  0.75998  0.91083  0.34582  1.0000
  C   C289      1.0  0.76090  0.85013  0.34804  1.0000
  N   N82       1.0  0.75424  0.86280  0.42237  1.0000
  C   C290      1.0  0.75530  0.89275  0.42656  1.0000
  N   N83       1.0  0.74797  0.90283  0.50213  1.0000
  C   C291      1.0  0.72741  0.88572  0.56490  1.0000
  N   N84       1.0  0.72339  0.90093  0.64032  1.0000
  H   H250      1.0  0.71383  0.86094  0.56079  1.0000
  C   C292      1.0  0.71231  0.92560  0.62097  1.0000
  H   H251      1.0  0.69025  0.91458  0.57780  1.0000
  H   H252      1.0  0.73212  0.94795  0.58818  1.0000
  C   C293      1.0  0.59444  0.85029  0.34539  1.0000
  C   C294      1.0  0.65529  0.91204  0.34933  1.0000
  N   N85       1.0  0.64232  0.89233  0.42295  1.0000
  C   C295      1.0  0.61238  0.86344  0.42650  1.0000
  N   N86       1.0  0.60222  0.84587  0.50184  1.0000
  C   C296      1.0  0.61929  0.84228  0.56447  1.0000
  N   N87       1.0  0.60404  0.82294  0.63973  1.0000
  H   H253      1.0  0.64407  0.85345  0.56040  1.0000
  C   C297      1.0  0.57933  0.78724  0.62006  1.0000
  H   H254      1.0  0.59032  0.77622  0.57672  1.0000
  H   H255      1.0  0.55701  0.78480  0.58730  1.0000
  C   C298      1.0  0.85131  0.75909  0.34636  1.0000
  C   C299      1.0  0.91300  0.75994  0.34917  1.0000
  N   N88       1.0  0.89358  0.75339  0.42322  1.0000
  C   C300      1.0  0.86473  0.75451  0.42719  1.0000
  N   N89       1.0  0.84726  0.74718  0.50265  1.0000
  C   C301      1.0  0.84375  0.72659  0.56542  1.0000
  N   N90       1.0  0.82444  0.72254  0.64071  1.0000
  H   H256      1.0  0.85491  0.71298  0.56135  1.0000
  C   C302      1.0  0.78870  0.71139  0.62110  1.0000
  H   H257      1.0  0.77773  0.68932  0.57797  1.0000
  H   H258      1.0  0.78614  0.73116  0.58816  1.0000
  C   C303      1.0  0.74642  0.59349  0.34543  1.0000
  C   C304      1.0  0.74552  0.65435  0.34973  1.0000
  N   N91       1.0  0.75222  0.64131  0.42325  1.0000
  C   C305      1.0  0.75119  0.61138  0.42663  1.0000
  N   N92       1.0  0.75856  0.60115  0.50190  1.0000
  C   C306      1.0  0.77910  0.61818  0.56482  1.0000
  N   N93       1.0  0.78314  0.60287  0.64000  1.0000
  H   H259      1.0  0.79260  0.64297  0.56109  1.0000
  C   C307      1.0  0.79419  0.57820  0.62025  1.0000
  H   H260      1.0  0.81624  0.58926  0.57704  1.0000
  H   H261      1.0  0.77436  0.55591  0.58733  1.0000
  C   C308      1.0  0.91180  0.65406  0.34455  1.0000
  C   C309      1.0  0.85115  0.59235  0.34830  1.0000
  N   N94       1.0  0.86396  0.61191  0.42217  1.0000
  C   C310      1.0  0.89388  0.64083  0.42568  1.0000
  N   N95       1.0  0.90406  0.65836  0.50107  1.0000
  C   C311      1.0  0.88701  0.66191  0.56385  1.0000
  N   N96       1.0  0.90229  0.68119  0.63917  1.0000
  H   H262      1.0  0.86223  0.65072  0.55990  1.0000
  C   C312      1.0  0.92713  0.71687  0.61966  1.0000
  H   H263      1.0  0.91624  0.72798  0.57630  1.0000
  H   H264      1.0  0.94943  0.71923  0.58700  1.0000
