data_image0
_chemical_formula_structural       CH4CH4C6H3CHCHCHC6H3CHCHCHC3NC3NC5NC5NC20H18NHNHNHNHC3NC3NC5NC5NC20H18NHNHNHNHC3NC3NC5NC5NC20H18NHNHNHNHC3NC3NC5NC5NC20H18NHNHNHNHC5H2CHCHCHC5H2CHCHCH7C8H8C8H8C8H8C8H8CH4CH4C6H3CHCHCHC6H3CHCHCHC3NC3NC5NC5NC20H18NHNHNHNHC3NC3NC5NC5NC20H18NHNHNHNHC3NC3NC5NC5NC20H18NHNHNHNHC3NC3NC5NC5NC20H18NHNHNHNHC5H2CHCHCHC5H2CHCHCH7C8H8C8H8C8H8C8H8
_chemical_formula_sum              "C424 H312 N64"
_cell_length_a       66.5571
_cell_length_b       48.974
_cell_length_c       14.9993
_cell_angle_alpha    90
_cell_angle_beta     89.9538
_cell_angle_gamma    89.9451

_space_group_name_H-M_alt    "P 1"
_space_group_IT_number       1

loop_
  _space_group_symop_operation_xyz
  'x, y, z'

loop_
  _atom_site_type_symbol
  _atom_site_label
  _atom_site_symmetry_multiplicity
  _atom_site_fract_x
  _atom_site_fract_y
  _atom_site_fract_z
  _atom_site_occupancy
  C   C1        1.0  0.16391  0.48874  0.35244  1.0000
  H   H1        1.0  0.14987  0.48193  0.36872  1.0000
  H   H2        1.0  0.14051  0.02495  0.42710  1.0000
  H   H3        1.0  0.22314  0.03552  0.24861  1.0000
  H   H4        1.0  0.17699  0.43595  0.23436  1.0000
  C   C2        1.0  0.86646  0.01148  0.35227  1.0000
  H   H5        1.0  0.88049  0.01829  0.36853  1.0000
  H   H6        1.0  0.88984  0.47527  0.42683  1.0000
  H   H7        1.0  0.80725  0.46472  0.24858  1.0000
  H   H8        1.0  0.85343  0.06427  0.23418  1.0000
  C   C3        1.0  0.66857  0.26708  0.36350  1.0000
  C   C4        1.0  0.66389  0.23913  0.35152  1.0000
  C   C5        1.0  0.67826  0.22048  0.31801  1.0000
  C   C6        1.0  0.69764  0.23044  0.29774  1.0000
  C   C7        1.0  0.70296  0.25816  0.30970  1.0000
  C   C8        1.0  0.68809  0.27627  0.34197  1.0000
  H   H9        1.0  0.70817  0.21683  0.27547  1.0000
  H   H10       1.0  0.69169  0.29636  0.35217  1.0000
  H   H11       1.0  0.64984  0.23233  0.36761  1.0000
  C   C9        1.0  0.65349  0.28652  0.40063  1.0000
  H   H12       1.0  0.64044  0.27538  0.42564  1.0000
  C   C10       1.0  0.72377  0.26853  0.29439  1.0000
  H   H13       1.0  0.72320  0.28584  0.24835  1.0000
  C   C11       1.0  0.67441  0.19077  0.30426  1.0000
  H   H14       1.0  0.67700  0.18631  0.23364  1.0000
  C   C12       1.0  0.36176  0.23311  0.36352  1.0000
  C   C13       1.0  0.36644  0.26107  0.35158  1.0000
  C   C14       1.0  0.35209  0.27971  0.31808  1.0000
  C   C15       1.0  0.33271  0.26976  0.29782  1.0000
  C   C16       1.0  0.32739  0.24204  0.30972  1.0000
  C   C17       1.0  0.34225  0.22392  0.34197  1.0000
  H   H15       1.0  0.32219  0.28337  0.27553  1.0000
  H   H16       1.0  0.33865  0.20383  0.35215  1.0000
  H   H17       1.0  0.38048  0.26787  0.36769  1.0000
  C   C18       1.0  0.37682  0.21368  0.40065  1.0000
  H   H18       1.0  0.38986  0.22482  0.42568  1.0000
  C   C19       1.0  0.30659  0.23167  0.29439  1.0000
  H   H19       1.0  0.30717  0.21437  0.24833  1.0000
  C   C20       1.0  0.35594  0.30942  0.30436  1.0000
  H   H20       1.0  0.35337  0.31389  0.23375  1.0000
  C   C21       1.0  0.41331  0.43903  0.33438  1.0000
  C   C22       1.0  0.42742  0.45960  0.32973  1.0000
  C   C23       1.0  0.41730  0.48438  0.31848  1.0000
  N   N1        1.0  0.39751  0.47802  0.31770  1.0000
  C   C24       1.0  0.39427  0.45081  0.32568  1.0000
  C   C25       1.0  0.37589  0.43612  0.32201  1.0000
  C   C26       1.0  0.35666  0.44844  0.31422  1.0000
  N   N2        1.0  0.35214  0.47535  0.31727  1.0000
  C   C27       1.0  0.33225  0.47986  0.30704  1.0000
  C   C28       1.0  0.32344  0.45416  0.29692  1.0000
  C   C29       1.0  0.33844  0.43477  0.30271  1.0000
  C   C30       1.0  0.32203  0.50533  0.30868  1.0000
  C   C31       1.0  0.33147  0.03117  0.31913  1.0000
  N   N3        1.0  0.35124  0.03758  0.31553  1.0000
  C   C32       1.0  0.35453  0.06473  0.32608  1.0000
  C   C33       1.0  0.33561  0.07635  0.33982  1.0000
  C   C34       1.0  0.32145  0.05583  0.33444  1.0000
  C   C35       1.0  0.37289  0.07949  0.32164  1.0000
  C   C36       1.0  0.39201  0.06701  0.31102  1.0000
  N   N4        1.0  0.39654  0.04016  0.31627  1.0000
  C   C37       1.0  0.41637  0.03560  0.30409  1.0000
  C   C38       1.0  0.42511  0.06115  0.28980  1.0000
  C   C39       1.0  0.41011  0.08053  0.29474  1.0000
  C   C40       1.0  0.42664  0.51023  0.30728  1.0000
  C   C41       1.0  0.44784  0.01072  0.29604  1.0000
  C   C42       1.0  0.45630  0.00359  0.21283  1.0000
  C   C43       1.0  0.47722  0.00435  0.20058  1.0000
  C   C44       1.0  0.48995  0.01249  0.27100  1.0000
  C   C45       1.0  0.37247  0.10856  0.32976  1.0000
  C   C46       1.0  0.36653  0.12522  0.25743  1.0000
  C   C47       1.0  0.36934  0.15372  0.26067  1.0000
  C   C48       1.0  0.37828  0.16617  0.33588  1.0000
  C   C49       1.0  0.30079  0.50500  0.29780  1.0000
  C   C50       1.0  0.25862  0.50203  0.27151  1.0000
  C   C51       1.0  0.27140  0.51050  0.20155  1.0000
  C   C52       1.0  0.29229  0.51201  0.21456  1.0000
  C   C53       1.0  0.37683  0.40705  0.32350  1.0000
  C   C54       1.0  0.37721  0.39209  0.24298  1.0000
  C   C55       1.0  0.37740  0.36337  0.24443  1.0000
  C   C56       1.0  0.37732  0.34906  0.32632  1.0000
  H   H21       1.0  0.37721  0.35288  0.18549  1.0000
  H   H22       1.0  0.37694  0.40199  0.18288  1.0000
  H   H23       1.0  0.41668  0.41875  0.34058  1.0000
  H   H24       1.0  0.44260  0.45658  0.33286  1.0000
  H   H25       1.0  0.38709  0.49113  0.30582  1.0000
  H   H26       1.0  0.36148  0.02469  0.29859  1.0000
  H   H27       1.0  0.33625  0.41418  0.29745  1.0000
  H   H28       1.0  0.30856  0.44983  0.28804  1.0000
  H   H29       1.0  0.30128  0.51766  0.16231  1.0000
  H   H30       1.0  0.26559  0.51499  0.14019  1.0000
  H   H31       1.0  0.30632  0.05873  0.34119  1.0000
  H   H32       1.0  0.33233  0.09653  0.34940  1.0000
  H   H33       1.0  0.43991  0.06536  0.27799  1.0000
  H   H34       1.0  0.41225  0.10101  0.28578  1.0000
  H   H35       1.0  0.36118  0.11657  0.20005  1.0000
  H   H36       1.0  0.36593  0.16518  0.20573  1.0000
  H   H37       1.0  0.48314  0.99916  0.13995  1.0000
  H   H38       1.0  0.44732  0.99786  0.16070  1.0000
  N   N5        1.0  0.38483  0.19375  0.33476  1.0000
  H   H39       1.0  0.38604  0.20190  0.27184  1.0000
  N   N6        1.0  0.51096  0.01342  0.26080  1.0000
  H   H40       1.0  0.51454  0.02430  0.20428  1.0000
  N   N7        1.0  0.37600  0.32018  0.33068  1.0000
  H   H41       1.0  0.38704  0.31184  0.29128  1.0000
  N   N8        1.0  0.23785  0.49742  0.25830  1.0000
  H   H42       1.0  0.23460  0.49373  0.19237  1.0000
  C   C57       1.0  0.61709  0.06111  0.33612  1.0000
  C   C58       1.0  0.60297  0.04055  0.33126  1.0000
  C   C59       1.0  0.61310  0.01581  0.31923  1.0000
  N   N9        1.0  0.63289  0.02214  0.31864  1.0000
  C   C60       1.0  0.63611  0.04936  0.32670  1.0000
  C   C61       1.0  0.65448  0.06407  0.32210  1.0000
  C   C62       1.0  0.67371  0.05176  0.31398  1.0000
  N   N10       1.0  0.67824  0.02485  0.31730  1.0000
  C   C63       1.0  0.69813  0.02034  0.30692  1.0000
  C   C64       1.0  0.70693  0.04603  0.29650  1.0000
  C   C65       1.0  0.69191  0.06542  0.30211  1.0000
  C   C66       1.0  0.70835  0.99487  0.30870  1.0000
  C   C67       1.0  0.69891  0.46903  0.31901  1.0000
  N   N11       1.0  0.67914  0.46260  0.31517  1.0000
  C   C68       1.0  0.67584  0.43545  0.32587  1.0000
  C   C69       1.0  0.69476  0.42383  0.33960  1.0000
  C   C70       1.0  0.70892  0.44437  0.33431  1.0000
  C   C71       1.0  0.65748  0.42071  0.32152  1.0000
  C   C72       1.0  0.63837  0.43320  0.31078  1.0000
  N   N12       1.0  0.63384  0.46005  0.31618  1.0000
  C   C73       1.0  0.61403  0.46462  0.30378  1.0000
  C   C74       1.0  0.60529  0.43909  0.28912  1.0000
  C   C75       1.0  0.62028  0.41970  0.29407  1.0000
  C   C76       1.0  0.60376  0.98999  0.30716  1.0000
  C   C77       1.0  0.58257  0.48953  0.29587  1.0000
  C   C78       1.0  0.57414  0.49681  0.21279  1.0000
  C   C79       1.0  0.55323  0.49609  0.20050  1.0000
  C   C80       1.0  0.54047  0.48782  0.27074  1.0000
  C   C81       1.0  0.65789  0.39164  0.32968  1.0000
  C   C82       1.0  0.66387  0.37497  0.25743  1.0000
  C   C83       1.0  0.66106  0.34646  0.26070  1.0000
  C   C84       1.0  0.65207  0.33403  0.33588  1.0000
  C   C85       1.0  0.72959  0.99520  0.29783  1.0000
  C   C86       1.0  0.77176  0.99822  0.27151  1.0000
  C   C87       1.0  0.75902  0.98967  0.20162  1.0000
  C   C88       1.0  0.73812  0.98816  0.21463  1.0000
  C   C89       1.0  0.65353  0.09314  0.32354  1.0000
  C   C90       1.0  0.65319  0.10809  0.24298  1.0000
  C   C91       1.0  0.65299  0.13681  0.24439  1.0000
  C   C92       1.0  0.65303  0.15114  0.32624  1.0000
  H   H43       1.0  0.65319  0.14729  0.18543  1.0000
  H   H44       1.0  0.65347  0.09818  0.18290  1.0000
  H   H45       1.0  0.61371  0.08141  0.34158  1.0000
  H   H46       1.0  0.58779  0.04359  0.33374  1.0000
  H   H47       1.0  0.64326  0.00914  0.30462  1.0000
  H   H48       1.0  0.66890  0.47554  0.29882  1.0000
  H   H49       1.0  0.69412  0.08601  0.29685  1.0000
  H   H50       1.0  0.72181  0.05036  0.28753  1.0000
  H   H51       1.0  0.72916  0.98249  0.16240  1.0000
  H   H52       1.0  0.76486  0.98518  0.14026  1.0000
  H   H53       1.0  0.72404  0.44147  0.34140  1.0000
  H   H54       1.0  0.69803  0.40367  0.34955  1.0000
  H   H55       1.0  0.59050  0.43489  0.27713  1.0000
  H   H56       1.0  0.61815  0.39922  0.28510  1.0000
  H   H57       1.0  0.66929  0.38360  0.20010  1.0000
  H   H58       1.0  0.66451  0.33499  0.20581  1.0000
  H   H59       1.0  0.54734  0.50138  0.13996  1.0000
  H   H60       1.0  0.58315  0.50262  0.16078  1.0000
  N   N13       1.0  0.64551  0.30646  0.33474  1.0000
  H   H61       1.0  0.64432  0.29830  0.27182  1.0000
  N   N14       1.0  0.51946  0.48692  0.26051  1.0000
  H   H62       1.0  0.51591  0.47615  0.20375  1.0000
  N   N15       1.0  0.65435  0.18001  0.33058  1.0000
  H   H63       1.0  0.64331  0.18835  0.29117  1.0000
  N   N16       1.0  0.79254  0.00282  0.25828  1.0000
  H   H64       1.0  0.79581  0.00652  0.19236  1.0000
  C   C93       1.0  0.91331  0.18943  0.33568  1.0000
  C   C94       1.0  0.92743  0.21000  0.33118  1.0000
  C   C95       1.0  0.91731  0.23477  0.31978  1.0000
  N   N17       1.0  0.89752  0.22843  0.31918  1.0000
  C   C96       1.0  0.89428  0.20121  0.32702  1.0000
  C   C97       1.0  0.87590  0.18652  0.32301  1.0000
  C   C98       1.0  0.85668  0.19884  0.31505  1.0000
  N   N18       1.0  0.85216  0.22575  0.31799  1.0000
  C   C99       1.0  0.83227  0.23027  0.30770  1.0000
  C   C100      1.0  0.82346  0.20456  0.29780  1.0000
  C   C101      1.0  0.83846  0.18517  0.30356  1.0000
  C   C102      1.0  0.82205  0.25574  0.30925  1.0000
  C   C103      1.0  0.83148  0.28160  0.31926  1.0000
  N   N19       1.0  0.85125  0.28804  0.31565  1.0000
  C   C104      1.0  0.85455  0.31518  0.32631  1.0000
  C   C105      1.0  0.83561  0.32682  0.33931  1.0000
  C   C106      1.0  0.82145  0.30629  0.33393  1.0000
  C   C107      1.0  0.87292  0.32991  0.32259  1.0000
  C   C108      1.0  0.89205  0.31743  0.31233  1.0000
  N   N20       1.0  0.89657  0.29057  0.31738  1.0000
  C   C109      1.0  0.91641  0.28601  0.30548  1.0000
  C   C110      1.0  0.92517  0.31156  0.29150  1.0000
  C   C111      1.0  0.91017  0.33094  0.29634  1.0000
  C   C112      1.0  0.92666  0.26062  0.30850  1.0000
  C   C113      1.0  0.94785  0.26108  0.29714  1.0000
  C   C114      1.0  0.95628  0.25395  0.21386  1.0000
  C   C115      1.0  0.97720  0.25460  0.20154  1.0000
  C   C116      1.0  0.98997  0.26263  0.27197  1.0000
  C   C117      1.0  0.87250  0.35898  0.33076  1.0000
  C   C118      1.0  0.86665  0.37564  0.25829  1.0000
  C   C119      1.0  0.86942  0.40415  0.26167  1.0000
  C   C120      1.0  0.87830  0.41660  0.33704  1.0000
  C   C121      1.0  0.80082  0.25540  0.29822  1.0000
  C   C122      1.0  0.75867  0.25235  0.27161  1.0000
  C   C123      1.0  0.77147  0.26077  0.20166  1.0000
  C   C124      1.0  0.79235  0.26229  0.21481  1.0000
  C   C125      1.0  0.87684  0.15745  0.32440  1.0000
  C   C126      1.0  0.87722  0.14252  0.24381  1.0000
  C   C127      1.0  0.87740  0.11380  0.24517  1.0000
  C   C128      1.0  0.87733  0.09945  0.32700  1.0000
  H   H65       1.0  0.87723  0.10332  0.18619  1.0000
  H   H66       1.0  0.87695  0.15244  0.18375  1.0000
  H   H67       1.0  0.91669  0.16914  0.34160  1.0000
  H   H68       1.0  0.94261  0.20696  0.33390  1.0000
  H   H69       1.0  0.88713  0.24152  0.30665  1.0000
  H   H70       1.0  0.86154  0.27504  0.30046  1.0000
  H   H71       1.0  0.83625  0.16458  0.29860  1.0000
  H   H72       1.0  0.80857  0.20023  0.28902  1.0000
  H   H73       1.0  0.80136  0.26788  0.16256  1.0000
  H   H74       1.0  0.76568  0.26515  0.14016  1.0000
  H   H75       1.0  0.80632  0.30920  0.34070  1.0000
  H   H76       1.0  0.83232  0.34699  0.34910  1.0000
  H   H77       1.0  0.93998  0.31576  0.27992  1.0000
  H   H78       1.0  0.91233  0.35143  0.28770  1.0000
  H   H79       1.0  0.86137  0.36700  0.20077  1.0000
  H   H80       1.0  0.86613  0.41560  0.20656  1.0000
  H   H81       1.0  0.98310  0.24939  0.14090  1.0000
  H   H82       1.0  0.94728  0.24828  0.16176  1.0000
  N   N21       1.0  0.88489  0.44416  0.33600  1.0000
  H   H83       1.0  0.88616  0.45230  0.27309  1.0000
  N   N22       1.0  0.01098  0.26339  0.26175  1.0000
  H   H84       1.0  0.01461  0.27421  0.20516  1.0000
  N   N23       1.0  0.87602  0.07058  0.33128  1.0000
  H   H85       1.0  0.88707  0.06225  0.29192  1.0000
  N   N24       1.0  0.73790  0.24774  0.25827  1.0000
  H   H86       1.0  0.73467  0.24403  0.19232  1.0000
  C   C129      1.0  0.11701  0.31082  0.33476  1.0000
  C   C130      1.0  0.10290  0.29026  0.33004  1.0000
  C   C131      1.0  0.11302  0.26547  0.31910  1.0000
  N   N25       1.0  0.13281  0.27180  0.31866  1.0000
  C   C132      1.0  0.13605  0.29902  0.32648  1.0000
  C   C133      1.0  0.15444  0.31370  0.32282  1.0000
  C   C134      1.0  0.17368  0.30138  0.31505  1.0000
  N   N26       1.0  0.17819  0.27446  0.31782  1.0000
  C   C135      1.0  0.19809  0.26995  0.30774  1.0000
  C   C136      1.0  0.20691  0.29566  0.29804  1.0000
  C   C137      1.0  0.19190  0.31505  0.30379  1.0000
  C   C138      1.0  0.20830  0.24447  0.30915  1.0000
  C   C139      1.0  0.19886  0.21861  0.31912  1.0000
  N   N27       1.0  0.17909  0.21218  0.31556  1.0000
  C   C140      1.0  0.17578  0.18504  0.32628  1.0000
  C   C141      1.0  0.19472  0.17339  0.33914  1.0000
  C   C142      1.0  0.20888  0.19392  0.33372  1.0000
  C   C143      1.0  0.15741  0.17030  0.32251  1.0000
  C   C144      1.0  0.13828  0.18279  0.31225  1.0000
  N   N28       1.0  0.13376  0.20965  0.31720  1.0000
  C   C145      1.0  0.11393  0.21421  0.30536  1.0000
  C   C146      1.0  0.10517  0.18866  0.29152  1.0000
  C   C147      1.0  0.12016  0.16927  0.29649  1.0000
  C   C148      1.0  0.10368  0.23960  0.30820  1.0000
  C   C149      1.0  0.08248  0.23913  0.29686  1.0000
  C   C150      1.0  0.07407  0.24625  0.21360  1.0000
  C   C151      1.0  0.05316  0.24561  0.20135  1.0000
  C   C152      1.0  0.04037  0.23758  0.27182  1.0000
  C   C153      1.0  0.15783  0.14124  0.33074  1.0000
  C   C154      1.0  0.16370  0.12456  0.25830  1.0000
  C   C155      1.0  0.16089  0.09606  0.26167  1.0000
  C   C156      1.0  0.15202  0.08362  0.33712  1.0000
  C   C157      1.0  0.22953  0.24481  0.29816  1.0000
  C   C158      1.0  0.27170  0.24784  0.27161  1.0000
  C   C159      1.0  0.25892  0.23949  0.20160  1.0000
  C   C160      1.0  0.23803  0.23794  0.21474  1.0000
  C   C161      1.0  0.15351  0.34277  0.32430  1.0000
  C   C162      1.0  0.15319  0.35773  0.24375  1.0000
  C   C163      1.0  0.15300  0.38645  0.24517  1.0000
  C   C164      1.0  0.15303  0.40077  0.32704  1.0000
  H   H87       1.0  0.15322  0.39693  0.18623  1.0000
  H   H88       1.0  0.15350  0.34782  0.18366  1.0000
  H   H89       1.0  0.11364  0.33112  0.34046  1.0000
  H   H90       1.0  0.08771  0.29331  0.33272  1.0000
  H   H91       1.0  0.14324  0.25867  0.30718  1.0000
  H   H92       1.0  0.16880  0.22518  0.30040  1.0000
  H   H93       1.0  0.19412  0.33565  0.29914  1.0000
  H   H94       1.0  0.22180  0.29999  0.28957  1.0000
  H   H95       1.0  0.22904  0.23242  0.16241  1.0000
  H   H96       1.0  0.26473  0.23513  0.14009  1.0000
  H   H97       1.0  0.22401  0.19101  0.34044  1.0000
  H   H98       1.0  0.19800  0.15322  0.34889  1.0000
  H   H99       1.0  0.09036  0.18445  0.27990  1.0000
  H   H100      1.0  0.11801  0.14878  0.28772  1.0000
  H   H101      1.0  0.16896  0.13319  0.20068  1.0000
  H   H102      1.0  0.16421  0.08461  0.20658  1.0000
  H   H103      1.0  0.04727  0.25083  0.14073  1.0000
  H   H104      1.0  0.08308  0.25193  0.16146  1.0000
  N   N29       1.0  0.14546  0.05604  0.33614  1.0000
  H   H105      1.0  0.14420  0.04788  0.27325  1.0000
  N   N30       1.0  0.01936  0.23683  0.26169  1.0000
  H   H106      1.0  0.01575  0.22603  0.20507  1.0000
  N   N31       1.0  0.15435  0.42965  0.33139  1.0000
  H   H107      1.0  0.14331  0.43798  0.29204  1.0000
  N   N32       1.0  0.29247  0.25247  0.25830  1.0000
  H   H108      1.0  0.29573  0.25618  0.19237  1.0000
  C   C165      1.0  0.16858  0.01670  0.36441  1.0000
  C   C166      1.0  0.17825  0.47012  0.31870  1.0000
  C   C167      1.0  0.19763  0.48009  0.29824  1.0000
  C   C168      1.0  0.20294  0.00782  0.31015  1.0000
  C   C169      1.0  0.18808  0.02591  0.34260  1.0000
  H   H109      1.0  0.20814  0.46649  0.27580  1.0000
  H   H110      1.0  0.19168  0.04600  0.35284  1.0000
  C   C170      1.0  0.15352  0.03611  0.40185  1.0000
  H   H111      1.0  0.16010  0.04643  0.45954  1.0000
  C   C171      1.0  0.22373  0.01820  0.29461  1.0000
  H   H112      1.0  0.22930  0.02571  0.35873  1.0000
  C   C172      1.0  0.17441  0.44041  0.30498  1.0000
  H   H113      1.0  0.18579  0.42940  0.34360  1.0000
  C   C173      1.0  0.86178  0.48352  0.36427  1.0000
  C   C174      1.0  0.85212  0.03010  0.31854  1.0000
  C   C175      1.0  0.83276  0.02014  0.29808  1.0000
  C   C176      1.0  0.82743  0.49241  0.31010  1.0000
  C   C177      1.0  0.84228  0.47432  0.34252  1.0000
  H   H114      1.0  0.82224  0.03373  0.27570  1.0000
  H   H115      1.0  0.83868  0.45423  0.35279  1.0000
  C   C178      1.0  0.87683  0.46411  0.40169  1.0000
  H   H116      1.0  0.87024  0.45382  0.45945  1.0000
  C   C179      1.0  0.80664  0.48203  0.29458  1.0000
  H   H117      1.0  0.80105  0.47452  0.35870  1.0000
  C   C180      1.0  0.85597  0.05981  0.30482  1.0000
  H   H118      1.0  0.84457  0.07083  0.34339  1.0000
  H   H119      1.0  0.66002  0.29683  0.45844  1.0000
  H   H120      1.0  0.72930  0.27605  0.35856  1.0000
  H   H121      1.0  0.68578  0.17976  0.34291  1.0000
  H   H122      1.0  0.37027  0.20336  0.45845  1.0000
  H   H123      1.0  0.30103  0.22414  0.35854  1.0000
  H   H124      1.0  0.34456  0.32044  0.34304  1.0000
  C   C181      1.0  0.48150  0.51983  0.35380  1.0000
  C   C182      1.0  0.46058  0.51879  0.36657  1.0000
  C   C183      1.0  0.38378  0.14952  0.40872  1.0000
  C   C184      1.0  0.38067  0.12114  0.40636  1.0000
  C   C185      1.0  0.28802  0.99681  0.36813  1.0000
  C   C186      1.0  0.26715  0.99508  0.35461  1.0000
  C   C187      1.0  0.37717  0.39278  0.40537  1.0000
  C   C188      1.0  0.37753  0.36403  0.40661  1.0000
  H   H125      1.0  0.37727  0.35403  0.46648  1.0000
  H   H126      1.0  0.37687  0.40320  0.46452  1.0000
  H   H127      1.0  0.29388  0.99130  0.42861  1.0000
  H   H128      1.0  0.25820  0.98819  0.40531  1.0000
  H   H129      1.0  0.38569  0.10951  0.45854  1.0000
  H   H130      1.0  0.39103  0.15784  0.46235  1.0000
  H   H131      1.0  0.45471  0.52410  0.42726  1.0000
  H   H132      1.0  0.49057  0.52569  0.40538  1.0000
  C   C189      1.0  0.54887  0.98034  0.35342  1.0000
  C   C190      1.0  0.56979  0.98135  0.36623  1.0000
  C   C191      1.0  0.64653  0.35068  0.40869  1.0000
  C   C192      1.0  0.64961  0.37907  0.40621  1.0000
  C   C193      1.0  0.74233  0.50345  0.36811  1.0000
  C   C194      1.0  0.76320  0.50520  0.35460  1.0000
  C   C195      1.0  0.65315  0.10743  0.40537  1.0000
  C   C196      1.0  0.65280  0.13617  0.40656  1.0000
  H   H133      1.0  0.65302  0.14618  0.46642  1.0000
  H   H134      1.0  0.65343  0.09702  0.46454  1.0000
  H   H135      1.0  0.73645  0.50895  0.42859  1.0000
  H   H136      1.0  0.77214  0.51210  0.40527  1.0000
  H   H137      1.0  0.64456  0.39070  0.45836  1.0000
  H   H138      1.0  0.63921  0.34238  0.46220  1.0000
  H   H139      1.0  0.57563  0.97593  0.42683  1.0000
  H   H140      1.0  0.53978  0.97438  0.40487  1.0000
  C   C197      1.0  0.98156  0.26998  0.35483  1.0000
  C   C198      1.0  0.96063  0.26905  0.36766  1.0000
  C   C199      1.0  0.88372  0.39994  0.40997  1.0000
  C   C200      1.0  0.88059  0.37156  0.40759  1.0000
  C   C201      1.0  0.78802  0.24727  0.36854  1.0000
  C   C202      1.0  0.76715  0.24553  0.35490  1.0000
  C   C203      1.0  0.87719  0.14315  0.40621  1.0000
  C   C204      1.0  0.87753  0.11441  0.40735  1.0000
  H   H141      1.0  0.87729  0.10439  0.46718  1.0000
  H   H142      1.0  0.87689  0.15355  0.46540  1.0000
  H   H143      1.0  0.79385  0.24188  0.42917  1.0000
  H   H144      1.0  0.75818  0.23870  0.40561  1.0000
  H   H145      1.0  0.88560  0.35993  0.45980  1.0000
  H   H146      1.0  0.89094  0.40825  0.46369  1.0000
  H   H147      1.0  0.95479  0.27435  0.42841  1.0000
  H   H148      1.0  0.99065  0.27577  0.40642  1.0000
  C   C205      1.0  0.04877  0.23023  0.35465  1.0000
  C   C206      1.0  0.06969  0.23116  0.36742  1.0000
  C   C207      1.0  0.14659  0.10028  0.41006  1.0000
  C   C208      1.0  0.14970  0.12867  0.40757  1.0000
  C   C209      1.0  0.24230  0.25287  0.36856  1.0000
  C   C210      1.0  0.26317  0.25462  0.35493  1.0000
  C   C211      1.0  0.15311  0.35705  0.40615  1.0000
  C   C212      1.0  0.15278  0.38580  0.40735  1.0000
  H   H149      1.0  0.15298  0.39580  0.46722  1.0000
  H   H150      1.0  0.15337  0.34664  0.46531  1.0000
  H   H151      1.0  0.23645  0.25827  0.42918  1.0000
  H   H152      1.0  0.27212  0.26143  0.40568  1.0000
  H   H153      1.0  0.14473  0.14030  0.45986  1.0000
  H   H154      1.0  0.13940  0.09198  0.46390  1.0000
  H   H155      1.0  0.07552  0.22587  0.42816  1.0000
  H   H156      1.0  0.03966  0.22445  0.40627  1.0000
  C   C213      1.0  0.16391  0.98874  0.35244  1.0000
  H   H157      1.0  0.14987  0.98193  0.36872  1.0000
  H   H158      1.0  0.14051  0.52495  0.42710  1.0000
  H   H159      1.0  0.22314  0.53552  0.24861  1.0000
  H   H160      1.0  0.17699  0.93594  0.23436  1.0000
  C   C214      1.0  0.86646  0.51148  0.35227  1.0000
  H   H161      1.0  0.88049  0.51829  0.36853  1.0000
  H   H162      1.0  0.88984  0.97527  0.42683  1.0000
  H   H163      1.0  0.80725  0.96472  0.24858  1.0000
  H   H164      1.0  0.85343  0.56427  0.23418  1.0000
  C   C215      1.0  0.66857  0.76708  0.36350  1.0000
  C   C216      1.0  0.66389  0.73913  0.35152  1.0000
  C   C217      1.0  0.67825  0.72048  0.31801  1.0000
  C   C218      1.0  0.69764  0.73044  0.29774  1.0000
  C   C219      1.0  0.70296  0.75816  0.30970  1.0000
  C   C220      1.0  0.68809  0.77627  0.34197  1.0000
  H   H165      1.0  0.70817  0.71683  0.27547  1.0000
  H   H166      1.0  0.69169  0.79636  0.35217  1.0000
  H   H167      1.0  0.64984  0.73233  0.36761  1.0000
  C   C221      1.0  0.65349  0.78652  0.40063  1.0000
  H   H168      1.0  0.64044  0.77538  0.42564  1.0000
  C   C222      1.0  0.72377  0.76853  0.29439  1.0000
  H   H169      1.0  0.72320  0.78584  0.24835  1.0000
  C   C223      1.0  0.67441  0.69077  0.30426  1.0000
  H   H170      1.0  0.67700  0.68631  0.23364  1.0000
  C   C224      1.0  0.36176  0.73311  0.36352  1.0000
  C   C225      1.0  0.36644  0.76107  0.35158  1.0000
  C   C226      1.0  0.35209  0.77971  0.31808  1.0000
  C   C227      1.0  0.33271  0.76976  0.29782  1.0000
  C   C228      1.0  0.32739  0.74203  0.30972  1.0000
  C   C229      1.0  0.34225  0.72392  0.34197  1.0000
  H   H171      1.0  0.32219  0.78337  0.27553  1.0000
  H   H172      1.0  0.33865  0.70383  0.35215  1.0000
  H   H173      1.0  0.38048  0.76787  0.36769  1.0000
  C   C230      1.0  0.37682  0.71368  0.40065  1.0000
  H   H174      1.0  0.38986  0.72481  0.42568  1.0000
  C   C231      1.0  0.30659  0.73167  0.29439  1.0000
  H   H175      1.0  0.30717  0.71437  0.24833  1.0000
  C   C232      1.0  0.35594  0.80942  0.30436  1.0000
  H   H176      1.0  0.35337  0.81389  0.23375  1.0000
  C   C233      1.0  0.41330  0.93903  0.33438  1.0000
  C   C234      1.0  0.42742  0.95960  0.32972  1.0000
  C   C235      1.0  0.41730  0.98438  0.31848  1.0000
  N   N33       1.0  0.39751  0.97802  0.31770  1.0000
  C   C236      1.0  0.39428  0.95081  0.32568  1.0000
  C   C237      1.0  0.37589  0.93612  0.32201  1.0000
  C   C238      1.0  0.35666  0.94844  0.31422  1.0000
  N   N34       1.0  0.35214  0.97535  0.31727  1.0000
  C   C239      1.0  0.33224  0.97986  0.30704  1.0000
  C   C240      1.0  0.32344  0.95416  0.29692  1.0000
  C   C241      1.0  0.33844  0.93477  0.30271  1.0000
  C   C242      1.0  0.32203  0.00534  0.30868  1.0000
  C   C243      1.0  0.33147  0.53117  0.31913  1.0000
  N   N35       1.0  0.35124  0.53758  0.31553  1.0000
  C   C244      1.0  0.35453  0.56473  0.32608  1.0000
  C   C245      1.0  0.33561  0.57635  0.33982  1.0000
  C   C246      1.0  0.32145  0.55583  0.33444  1.0000
  C   C247      1.0  0.37289  0.57949  0.32164  1.0000
  C   C248      1.0  0.39201  0.56701  0.31102  1.0000
  N   N36       1.0  0.39654  0.54016  0.31627  1.0000
  C   C249      1.0  0.41637  0.53560  0.30409  1.0000
  C   C250      1.0  0.42511  0.56115  0.28980  1.0000
  C   C251      1.0  0.41012  0.58053  0.29474  1.0000
  C   C252      1.0  0.42664  0.01023  0.30728  1.0000
  C   C253      1.0  0.44783  0.51072  0.29604  1.0000
  C   C254      1.0  0.45630  0.50359  0.21283  1.0000
  C   C255      1.0  0.47722  0.50435  0.20058  1.0000
  C   C256      1.0  0.48995  0.51249  0.27100  1.0000
  C   C257      1.0  0.37246  0.60856  0.32976  1.0000
  C   C258      1.0  0.36653  0.62522  0.25743  1.0000
  C   C259      1.0  0.36934  0.65372  0.26067  1.0000
  C   C260      1.0  0.37828  0.66617  0.33588  1.0000
  C   C261      1.0  0.30079  0.00500  0.29780  1.0000
  C   C262      1.0  0.25862  0.00204  0.27151  1.0000
  C   C263      1.0  0.27141  0.01050  0.20155  1.0000
  C   C264      1.0  0.29229  0.01201  0.21456  1.0000
  C   C265      1.0  0.37683  0.90705  0.32350  1.0000
  C   C266      1.0  0.37721  0.89209  0.24298  1.0000
  C   C267      1.0  0.37740  0.86337  0.24443  1.0000
  C   C268      1.0  0.37732  0.84906  0.32632  1.0000
  H   H177      1.0  0.37721  0.85288  0.18549  1.0000
  H   H178      1.0  0.37694  0.90199  0.18288  1.0000
  H   H179      1.0  0.41668  0.91875  0.34058  1.0000
  H   H180      1.0  0.44260  0.95658  0.33286  1.0000
  H   H181      1.0  0.38709  0.99113  0.30582  1.0000
  H   H182      1.0  0.36148  0.52469  0.29859  1.0000
  H   H183      1.0  0.33625  0.91418  0.29745  1.0000
  H   H184      1.0  0.30856  0.94983  0.28804  1.0000
  H   H185      1.0  0.30128  0.01766  0.16231  1.0000
  H   H186      1.0  0.26559  0.01499  0.14019  1.0000
  H   H187      1.0  0.30632  0.55873  0.34119  1.0000
  H   H188      1.0  0.33233  0.59653  0.34940  1.0000
  H   H189      1.0  0.43991  0.56536  0.27799  1.0000
  H   H190      1.0  0.41225  0.60101  0.28578  1.0000
  H   H191      1.0  0.36117  0.61657  0.20005  1.0000
  H   H192      1.0  0.36593  0.66518  0.20573  1.0000
  H   H193      1.0  0.48314  0.49916  0.13995  1.0000
  H   H194      1.0  0.44732  0.49787  0.16070  1.0000
  N   N37       1.0  0.38483  0.69375  0.33476  1.0000
  H   H195      1.0  0.38604  0.70190  0.27184  1.0000
  N   N38       1.0  0.51096  0.51341  0.26080  1.0000
  H   H196      1.0  0.51454  0.52430  0.20428  1.0000
  N   N39       1.0  0.37600  0.82018  0.33068  1.0000
  H   H197      1.0  0.38704  0.81184  0.29128  1.0000
  N   N40       1.0  0.23785  0.99742  0.25830  1.0000
  H   H198      1.0  0.23460  0.99373  0.19237  1.0000
  C   C269      1.0  0.61709  0.56111  0.33612  1.0000
  C   C270      1.0  0.60297  0.54055  0.33125  1.0000
  C   C271      1.0  0.61310  0.51581  0.31923  1.0000
  N   N41       1.0  0.63290  0.52214  0.31864  1.0000
  C   C272      1.0  0.63611  0.54936  0.32670  1.0000
  C   C273      1.0  0.65448  0.56407  0.32210  1.0000
  C   C274      1.0  0.67371  0.55175  0.31398  1.0000
  N   N42       1.0  0.67824  0.52485  0.31730  1.0000
  C   C275      1.0  0.69813  0.52034  0.30692  1.0000
  C   C276      1.0  0.70693  0.54603  0.29650  1.0000
  C   C277      1.0  0.69191  0.56542  0.30211  1.0000
  C   C278      1.0  0.70835  0.49487  0.30870  1.0000
  C   C279      1.0  0.69891  0.96903  0.31901  1.0000
  N   N43       1.0  0.67914  0.96260  0.31517  1.0000
  C   C280      1.0  0.67584  0.93545  0.32587  1.0000
  C   C281      1.0  0.69475  0.92383  0.33960  1.0000
  C   C282      1.0  0.70892  0.94436  0.33431  1.0000
  C   C283      1.0  0.65748  0.92071  0.32152  1.0000
  C   C284      1.0  0.63837  0.93320  0.31078  1.0000
  N   N44       1.0  0.63384  0.96005  0.31618  1.0000
  C   C285      1.0  0.61403  0.96462  0.30378  1.0000
  C   C286      1.0  0.60529  0.93909  0.28912  1.0000
  C   C287      1.0  0.62029  0.91970  0.29407  1.0000
  C   C288      1.0  0.60376  0.48999  0.30716  1.0000
  C   C289      1.0  0.58257  0.98953  0.29588  1.0000
  C   C290      1.0  0.57414  0.99681  0.21279  1.0000
  C   C291      1.0  0.55323  0.99609  0.20050  1.0000
  C   C292      1.0  0.54046  0.98783  0.27074  1.0000
  C   C293      1.0  0.65789  0.89164  0.32968  1.0000
  C   C294      1.0  0.66388  0.87497  0.25743  1.0000
  C   C295      1.0  0.66106  0.84646  0.26070  1.0000
  C   C296      1.0  0.65207  0.83403  0.33588  1.0000
  C   C297      1.0  0.72959  0.49520  0.29784  1.0000
  C   C298      1.0  0.77176  0.49822  0.27151  1.0000
  C   C299      1.0  0.75902  0.48967  0.20162  1.0000
  C   C300      1.0  0.73813  0.48816  0.21463  1.0000
  C   C301      1.0  0.65353  0.59314  0.32353  1.0000
  C   C302      1.0  0.65319  0.60808  0.24298  1.0000
  C   C303      1.0  0.65299  0.63681  0.24438  1.0000
  C   C304      1.0  0.65303  0.65114  0.32624  1.0000
  H   H199      1.0  0.65320  0.64729  0.18543  1.0000
  H   H200      1.0  0.65347  0.59818  0.18290  1.0000
  H   H201      1.0  0.61371  0.58141  0.34158  1.0000
  H   H202      1.0  0.58779  0.54359  0.33374  1.0000
  H   H203      1.0  0.64326  0.50914  0.30462  1.0000
  H   H204      1.0  0.66890  0.97554  0.29882  1.0000
  H   H205      1.0  0.69411  0.58601  0.29685  1.0000
  H   H206      1.0  0.72181  0.55036  0.28753  1.0000
  H   H207      1.0  0.72916  0.48249  0.16240  1.0000
  H   H208      1.0  0.76486  0.48518  0.14026  1.0000
  H   H209      1.0  0.72404  0.94147  0.34140  1.0000
  H   H210      1.0  0.69803  0.90367  0.34955  1.0000
  H   H211      1.0  0.59050  0.93490  0.27714  1.0000
  H   H212      1.0  0.61815  0.89922  0.28510  1.0000
  H   H213      1.0  0.66929  0.88360  0.20010  1.0000
  H   H214      1.0  0.66451  0.83499  0.20581  1.0000
  H   H215      1.0  0.54734  0.00138  0.13996  1.0000
  H   H216      1.0  0.58315  0.00263  0.16079  1.0000
  N   N45       1.0  0.64551  0.80645  0.33474  1.0000
  H   H217      1.0  0.64432  0.79830  0.27182  1.0000
  N   N46       1.0  0.51946  0.98692  0.26051  1.0000
  H   H218      1.0  0.51590  0.97615  0.20375  1.0000
  N   N47       1.0  0.65435  0.68001  0.33058  1.0000
  H   H219      1.0  0.64331  0.68835  0.29117  1.0000
  N   N48       1.0  0.79254  0.50281  0.25828  1.0000
  H   H220      1.0  0.79581  0.50652  0.19236  1.0000
  C   C305      1.0  0.91331  0.68943  0.33568  1.0000
  C   C306      1.0  0.92743  0.71000  0.33118  1.0000
  C   C307      1.0  0.91731  0.73477  0.31978  1.0000
  N   N49       1.0  0.89752  0.72843  0.31918  1.0000
  C   C308      1.0  0.89429  0.70121  0.32702  1.0000
  C   C309      1.0  0.87590  0.68652  0.32301  1.0000
  C   C310      1.0  0.85667  0.69884  0.31505  1.0000
  N   N50       1.0  0.85216  0.72575  0.31799  1.0000
  C   C311      1.0  0.83227  0.73027  0.30770  1.0000
  C   C312      1.0  0.82346  0.70456  0.29780  1.0000
  C   C313      1.0  0.83846  0.68517  0.30356  1.0000
  C   C314      1.0  0.82205  0.75574  0.30925  1.0000
  C   C315      1.0  0.83148  0.78160  0.31926  1.0000
  N   N51       1.0  0.85125  0.78804  0.31565  1.0000
  C   C316      1.0  0.85455  0.81518  0.32631  1.0000
  C   C317      1.0  0.83561  0.82682  0.33931  1.0000
  C   C318      1.0  0.82145  0.80629  0.33393  1.0000
  C   C319      1.0  0.87292  0.82991  0.32259  1.0000
  C   C320      1.0  0.89205  0.81743  0.31233  1.0000
  N   N52       1.0  0.89657  0.79057  0.31738  1.0000
  C   C321      1.0  0.91640  0.78601  0.30548  1.0000
  C   C322      1.0  0.92517  0.81155  0.29150  1.0000
  C   C323      1.0  0.91017  0.83094  0.29634  1.0000
  C   C324      1.0  0.92666  0.76062  0.30850  1.0000
  C   C325      1.0  0.94785  0.76108  0.29714  1.0000
  C   C326      1.0  0.95628  0.75395  0.21386  1.0000
  C   C327      1.0  0.97720  0.75460  0.20154  1.0000
  C   C328      1.0  0.98997  0.76263  0.27197  1.0000
  C   C329      1.0  0.87250  0.85898  0.33076  1.0000
  C   C330      1.0  0.86665  0.87564  0.25829  1.0000
  C   C331      1.0  0.86942  0.90415  0.26167  1.0000
  C   C332      1.0  0.87830  0.91660  0.33704  1.0000
  C   C333      1.0  0.80082  0.75540  0.29822  1.0000
  C   C334      1.0  0.75866  0.75235  0.27161  1.0000
  C   C335      1.0  0.77147  0.76076  0.20166  1.0000
  C   C336      1.0  0.79235  0.76229  0.21481  1.0000
  C   C337      1.0  0.87684  0.65745  0.32440  1.0000
  C   C338      1.0  0.87722  0.64252  0.24381  1.0000
  C   C339      1.0  0.87740  0.61379  0.24517  1.0000
  C   C340      1.0  0.87734  0.59945  0.32700  1.0000
  H   H221      1.0  0.87723  0.60332  0.18619  1.0000
  H   H222      1.0  0.87695  0.65244  0.18375  1.0000
  H   H223      1.0  0.91669  0.66914  0.34160  1.0000
  H   H224      1.0  0.94261  0.70696  0.33390  1.0000
  H   H225      1.0  0.88713  0.74152  0.30665  1.0000
  H   H226      1.0  0.86154  0.77504  0.30046  1.0000
  H   H227      1.0  0.83626  0.66458  0.29860  1.0000
  H   H228      1.0  0.80857  0.70023  0.28902  1.0000
  H   H229      1.0  0.80136  0.76788  0.16256  1.0000
  H   H230      1.0  0.76568  0.76515  0.14016  1.0000
  H   H231      1.0  0.80632  0.80919  0.34070  1.0000
  H   H232      1.0  0.83232  0.84699  0.34910  1.0000
  H   H233      1.0  0.93998  0.81576  0.27992  1.0000
  H   H234      1.0  0.91233  0.85143  0.28770  1.0000
  H   H235      1.0  0.86136  0.86700  0.20077  1.0000
  H   H236      1.0  0.86613  0.91560  0.20656  1.0000
  H   H237      1.0  0.98310  0.74939  0.14090  1.0000
  H   H238      1.0  0.94728  0.74827  0.16176  1.0000
  N   N53       1.0  0.88489  0.94416  0.33600  1.0000
  H   H239      1.0  0.88616  0.95230  0.27309  1.0000
  N   N54       1.0  0.01098  0.76339  0.26175  1.0000
  H   H240      1.0  0.01461  0.77421  0.20516  1.0000
  N   N55       1.0  0.87602  0.57058  0.33128  1.0000
  H   H241      1.0  0.88708  0.56225  0.29192  1.0000
  N   N56       1.0  0.73790  0.74774  0.25827  1.0000
  H   H242      1.0  0.73467  0.74403  0.19232  1.0000
  C   C341      1.0  0.11701  0.81082  0.33476  1.0000
  C   C342      1.0  0.10290  0.79026  0.33004  1.0000
  C   C343      1.0  0.11302  0.76547  0.31910  1.0000
  N   N57       1.0  0.13281  0.77180  0.31866  1.0000
  C   C344      1.0  0.13605  0.79902  0.32648  1.0000
  C   C345      1.0  0.15444  0.81370  0.32282  1.0000
  C   C346      1.0  0.17368  0.80138  0.31505  1.0000
  N   N58       1.0  0.17819  0.77446  0.31782  1.0000
  C   C347      1.0  0.19809  0.76995  0.30774  1.0000
  C   C348      1.0  0.20691  0.79566  0.29804  1.0000
  C   C349      1.0  0.19190  0.81505  0.30379  1.0000
  C   C350      1.0  0.20830  0.74447  0.30915  1.0000
  C   C351      1.0  0.19886  0.71861  0.31912  1.0000
  N   N59       1.0  0.17909  0.71218  0.31556  1.0000
  C   C352      1.0  0.17578  0.68504  0.32628  1.0000
  C   C353      1.0  0.19472  0.67339  0.33914  1.0000
  C   C354      1.0  0.20888  0.69391  0.33372  1.0000
  C   C355      1.0  0.15741  0.67030  0.32251  1.0000
  C   C356      1.0  0.13828  0.68279  0.31225  1.0000
  N   N60       1.0  0.13376  0.70965  0.31721  1.0000
  C   C357      1.0  0.11393  0.71421  0.30536  1.0000
  C   C358      1.0  0.10517  0.68866  0.29152  1.0000
  C   C359      1.0  0.12016  0.66926  0.29649  1.0000
  C   C360      1.0  0.10368  0.73960  0.30820  1.0000
  C   C361      1.0  0.08248  0.73913  0.29686  1.0000
  C   C362      1.0  0.07407  0.74625  0.21360  1.0000
  C   C363      1.0  0.05316  0.74561  0.20135  1.0000
  C   C364      1.0  0.04037  0.73758  0.27182  1.0000
  C   C365      1.0  0.15783  0.64124  0.33074  1.0000
  C   C366      1.0  0.16370  0.62456  0.25830  1.0000
  C   C367      1.0  0.16089  0.59606  0.26167  1.0000
  C   C368      1.0  0.15202  0.58362  0.33712  1.0000
  C   C369      1.0  0.22953  0.74481  0.29816  1.0000
  C   C370      1.0  0.27170  0.74784  0.27161  1.0000
  C   C371      1.0  0.25892  0.73949  0.20160  1.0000
  C   C372      1.0  0.23803  0.73794  0.21474  1.0000
  C   C373      1.0  0.15351  0.84277  0.32430  1.0000
  C   C374      1.0  0.15319  0.85773  0.24375  1.0000
  C   C375      1.0  0.15300  0.88645  0.24517  1.0000
  C   C376      1.0  0.15303  0.90077  0.32704  1.0000
  H   H243      1.0  0.15322  0.89693  0.18623  1.0000
  H   H244      1.0  0.15350  0.84782  0.18366  1.0000
  H   H245      1.0  0.11364  0.83111  0.34046  1.0000
  H   H246      1.0  0.08771  0.79331  0.33272  1.0000
  H   H247      1.0  0.14324  0.75867  0.30718  1.0000
  H   H248      1.0  0.16880  0.72518  0.30040  1.0000
  H   H249      1.0  0.19412  0.83565  0.29914  1.0000
  H   H250      1.0  0.22180  0.79999  0.28957  1.0000
  H   H251      1.0  0.22904  0.73242  0.16241  1.0000
  H   H252      1.0  0.26473  0.73513  0.14009  1.0000
  H   H253      1.0  0.22401  0.69100  0.34044  1.0000
  H   H254      1.0  0.19800  0.65322  0.34889  1.0000
  H   H255      1.0  0.09036  0.68445  0.27990  1.0000
  H   H256      1.0  0.11801  0.64878  0.28772  1.0000
  H   H257      1.0  0.16896  0.63319  0.20068  1.0000
  H   H258      1.0  0.16421  0.58460  0.20658  1.0000
  H   H259      1.0  0.04727  0.75082  0.14073  1.0000
  H   H260      1.0  0.08308  0.75193  0.16146  1.0000
  N   N61       1.0  0.14546  0.55604  0.33614  1.0000
  H   H261      1.0  0.14420  0.54788  0.27325  1.0000
  N   N62       1.0  0.01936  0.73683  0.26169  1.0000
  H   H262      1.0  0.01575  0.72603  0.20507  1.0000
  N   N63       1.0  0.15435  0.92964  0.33139  1.0000
  H   H263      1.0  0.14331  0.93798  0.29204  1.0000
  N   N64       1.0  0.29247  0.75247  0.25830  1.0000
  H   H264      1.0  0.29573  0.75618  0.19237  1.0000
  C   C377      1.0  0.16858  0.51670  0.36441  1.0000
  C   C378      1.0  0.17825  0.97012  0.31870  1.0000
  C   C379      1.0  0.19763  0.98009  0.29824  1.0000
  C   C380      1.0  0.20294  0.50782  0.31015  1.0000
  C   C381      1.0  0.18808  0.52591  0.34260  1.0000
  H   H265      1.0  0.20814  0.96649  0.27580  1.0000
  H   H266      1.0  0.19168  0.54600  0.35284  1.0000
  C   C382      1.0  0.15352  0.53611  0.40185  1.0000
  H   H267      1.0  0.16010  0.54643  0.45954  1.0000
  C   C383      1.0  0.22373  0.51820  0.29461  1.0000
  H   H268      1.0  0.22931  0.52571  0.35873  1.0000
  C   C384      1.0  0.17441  0.94041  0.30498  1.0000
  H   H269      1.0  0.18579  0.92940  0.34360  1.0000
  C   C385      1.0  0.86178  0.98352  0.36427  1.0000
  C   C386      1.0  0.85212  0.53010  0.31854  1.0000
  C   C387      1.0  0.83276  0.52014  0.29808  1.0000
  C   C388      1.0  0.82743  0.99241  0.31010  1.0000
  C   C389      1.0  0.84228  0.97432  0.34252  1.0000
  H   H270      1.0  0.82224  0.53373  0.27570  1.0000
  H   H271      1.0  0.83868  0.95423  0.35279  1.0000
  C   C390      1.0  0.87682  0.96411  0.40169  1.0000
  H   H272      1.0  0.87024  0.95382  0.45945  1.0000
  C   C391      1.0  0.80664  0.98203  0.29458  1.0000
  H   H273      1.0  0.80105  0.97452  0.35870  1.0000
  C   C392      1.0  0.85597  0.55981  0.30482  1.0000
  H   H274      1.0  0.84457  0.57083  0.34339  1.0000
  H   H275      1.0  0.66002  0.79683  0.45844  1.0000
  H   H276      1.0  0.72931  0.77605  0.35856  1.0000
  H   H277      1.0  0.68578  0.67976  0.34292  1.0000
  H   H278      1.0  0.37027  0.70336  0.45845  1.0000
  H   H279      1.0  0.30103  0.72413  0.35854  1.0000
  H   H280      1.0  0.34456  0.82044  0.34304  1.0000
  C   C393      1.0  0.48150  0.01983  0.35380  1.0000
  C   C394      1.0  0.46058  0.01879  0.36657  1.0000
  C   C395      1.0  0.38378  0.64952  0.40872  1.0000
  C   C396      1.0  0.38067  0.62114  0.40636  1.0000
  C   C397      1.0  0.28802  0.49681  0.36813  1.0000
  C   C398      1.0  0.26715  0.49508  0.35461  1.0000
  C   C399      1.0  0.37717  0.89278  0.40537  1.0000
  C   C400      1.0  0.37753  0.86403  0.40661  1.0000
  H   H281      1.0  0.37727  0.85403  0.46648  1.0000
  H   H282      1.0  0.37687  0.90320  0.46452  1.0000
  H   H283      1.0  0.29388  0.49130  0.42861  1.0000
  H   H284      1.0  0.25820  0.48819  0.40531  1.0000
  H   H285      1.0  0.38569  0.60951  0.45854  1.0000
  H   H286      1.0  0.39103  0.65784  0.46235  1.0000
  H   H287      1.0  0.45471  0.02410  0.42726  1.0000
  H   H288      1.0  0.49057  0.02569  0.40538  1.0000
  C   C401      1.0  0.54887  0.48034  0.35342  1.0000
  C   C402      1.0  0.56979  0.48135  0.36623  1.0000
  C   C403      1.0  0.64653  0.85068  0.40869  1.0000
  C   C404      1.0  0.64961  0.87907  0.40621  1.0000
  C   C405      1.0  0.74233  0.00345  0.36811  1.0000
  C   C406      1.0  0.76321  0.00520  0.35460  1.0000
  C   C407      1.0  0.65315  0.60743  0.40537  1.0000
  C   C408      1.0  0.65280  0.63617  0.40656  1.0000
  H   H289      1.0  0.65302  0.64618  0.46642  1.0000
  H   H290      1.0  0.65343  0.59702  0.46454  1.0000
  H   H291      1.0  0.73645  0.00895  0.42859  1.0000
  H   H292      1.0  0.77214  0.01209  0.40527  1.0000
  H   H293      1.0  0.64456  0.89070  0.45836  1.0000
  H   H294      1.0  0.63921  0.84238  0.46220  1.0000
  H   H295      1.0  0.57563  0.47593  0.42683  1.0000
  H   H296      1.0  0.53978  0.47439  0.40487  1.0000
  C   C409      1.0  0.98156  0.76998  0.35483  1.0000
  C   C410      1.0  0.96063  0.76905  0.36766  1.0000
  C   C411      1.0  0.88372  0.89994  0.40997  1.0000
  C   C412      1.0  0.88060  0.87156  0.40759  1.0000
  C   C413      1.0  0.78802  0.74727  0.36854  1.0000
  C   C414      1.0  0.76715  0.74553  0.35490  1.0000
  C   C415      1.0  0.87719  0.64315  0.40621  1.0000
  C   C416      1.0  0.87753  0.61441  0.40735  1.0000
  H   H297      1.0  0.87729  0.60438  0.46718  1.0000
  H   H298      1.0  0.87689  0.65355  0.46540  1.0000
  H   H299      1.0  0.79385  0.74188  0.42918  1.0000
  H   H300      1.0  0.75818  0.73870  0.40561  1.0000
  H   H301      1.0  0.88560  0.85993  0.45980  1.0000
  H   H302      1.0  0.89094  0.90825  0.46369  1.0000
  H   H303      1.0  0.95479  0.77435  0.42841  1.0000
  H   H304      1.0  0.99065  0.77577  0.40642  1.0000
  C   C417      1.0  0.04877  0.73023  0.35465  1.0000
  C   C418      1.0  0.06969  0.73116  0.36742  1.0000
  C   C419      1.0  0.14659  0.60028  0.41006  1.0000
  C   C420      1.0  0.14970  0.62867  0.40757  1.0000
  C   C421      1.0  0.24230  0.75287  0.36856  1.0000
  C   C422      1.0  0.26317  0.75462  0.35493  1.0000
  C   C423      1.0  0.15311  0.85705  0.40615  1.0000
  C   C424      1.0  0.15278  0.88580  0.40735  1.0000
  H   H305      1.0  0.15298  0.89580  0.46722  1.0000
  H   H306      1.0  0.15337  0.84664  0.46531  1.0000
  H   H307      1.0  0.23645  0.75827  0.42918  1.0000
  H   H308      1.0  0.27213  0.76143  0.40568  1.0000
  H   H309      1.0  0.14473  0.64030  0.45986  1.0000
  H   H310      1.0  0.13940  0.59198  0.46390  1.0000
  H   H311      1.0  0.07552  0.72587  0.42816  1.0000
  H   H312      1.0  0.03966  0.72445  0.40628  1.0000
