data_image0
_chemical_formula_structural       COH2COH2C11OHC6O2H2C6O2H2C2H2C2HCH5C2H2C2HCH5C2H2C2HCH5C2H2C2HCH5C2H2C2HCH5C2H2C2HCH5C3H2CHC3H2C3H2C3H2C3H2C4NC2NHCHC4NC2NHCHC4NC2NHCHC4NC2NHCHC4NC2NHCHC4NC2NHCHC3OHC6O2H2C6O2H2C2H2C2HCH5C2H2C2HCH5C2H2C2HCH5C2H2C2HCH5C2H2C2HCH5C2H2C2HCH5C3H2CHC3H2C3H2C3H2C3H2C4NC2NHCHC4NC2NHCHC4NC2NHCHC4NC2NHCHC4NC2NHCHC4NC2NHCHC6O2H2C6O2H2C6O2H2C2H2C2HCH5C2H2C2HCH5C2H2C2HCH5C2H2C2HCH5C2H2C2HCH5C2H2C2HCH5C3H2C3H2C3H2C3H2C3H2C3H2C4NC2NHCHC4NC2NHCHC4NC2NHCHC4NC2NHCHC4NC2NHCHC4NC2NHCHC6O2H2C6O2H2C6O2H2C2H2C2HCH5C2H2C2HCH5C2H2C2HCH5C2H2C2HCH5C2H2C2HCH5C2H2C2HCH5C3H2C3H2C3H2C3H2C3H2C3H2C4NC2NHCHC4NC2NHCHC4NC2NHCHC4NC2NHCHC4NC2NHCHC4NC2NHCH
_chemical_formula_sum              "C432 O24 H312 N48"
_cell_length_a       46.9242
_cell_length_b       46.9242
_cell_length_c       14.954
_cell_angle_alpha    90
_cell_angle_beta     90
_cell_angle_gamma    120

_space_group_name_H-M_alt    "P 1"
_space_group_IT_number       1

loop_
  _space_group_symop_operation_xyz
  'x, y, z'

loop_
  _atom_site_type_symbol
  _atom_site_label
  _atom_site_symmetry_multiplicity
  _atom_site_fract_x
  _atom_site_fract_y
  _atom_site_fract_z
  _atom_site_occupancy
  C   C1        1.0  0.02040  0.26072  0.29780  1.0000
  O   O1        1.0  0.02927  0.31606  0.26386  1.0000
  H   H1        1.0  0.02644  0.31208  0.19904  1.0000
  H   H2        1.0  0.02845  0.21972  0.31100  1.0000
  C   C2        1.0  0.02040  0.76072  0.29780  1.0000
  O   O2        1.0  0.02927  0.81606  0.26386  1.0000
  H   H3        1.0  0.02644  0.81207  0.19904  1.0000
  H   H4        1.0  0.02845  0.71972  0.31100  1.0000
  C   C3        1.0  0.04048  0.29639  0.29603  1.0000
  C   C4        1.0  0.03939  0.24454  0.31049  1.0000
  C   C5        1.0  0.04048  0.79639  0.29603  1.0000
  C   C6        1.0  0.03939  0.74454  0.31049  1.0000
  C   C7        1.0  0.07309  0.31393  0.33168  1.0000
  C   C8        1.0  0.07274  0.26051  0.33861  1.0000
  C   C9        1.0  0.07309  0.81393  0.33168  1.0000
  C   C10       1.0  0.07274  0.76051  0.33861  1.0000
  C   C11       1.0  0.48422  0.24235  0.29787  1.0000
  C   C12       1.0  0.43151  0.18915  0.33175  1.0000
  C   C13       1.0  0.46414  0.20669  0.29612  1.0000
  O   O3        1.0  0.47533  0.18701  0.26386  1.0000
  H   H5        1.0  0.47815  0.19100  0.19905  1.0000
  C   C14       1.0  0.26152  0.24265  0.29793  1.0000
  C   C15       1.0  0.31473  0.24317  0.33177  1.0000
  C   C16       1.0  0.29718  0.25824  0.29615  1.0000
  C   C17       1.0  0.24314  0.26046  0.29803  1.0000
  C   C18       1.0  0.20748  0.24488  0.29617  1.0000
  C   C19       1.0  0.18994  0.25998  0.33170  1.0000
  O   O4        1.0  0.31684  0.28909  0.26380  1.0000
  O   O5        1.0  0.18781  0.21401  0.26400  1.0000
  H   H6        1.0  0.31282  0.28791  0.19900  1.0000
  H   H7        1.0  0.19179  0.21516  0.19918  1.0000
  C   C20       1.0  0.26120  0.01963  0.29787  1.0000
  C   C21       1.0  0.26070  0.07233  0.33172  1.0000
  C   C22       1.0  0.24562  0.03970  0.29612  1.0000
  C   C23       1.0  0.24340  0.48344  0.29783  1.0000
  C   C24       1.0  0.25900  0.46337  0.29610  1.0000
  C   C25       1.0  0.24393  0.43076  0.33178  1.0000
  O   O6        1.0  0.21475  0.02850  0.26388  1.0000
  O   O7        1.0  0.28987  0.47458  0.26392  1.0000
  H   H8        1.0  0.21592  0.02569  0.19906  1.0000
  H   H9        1.0  0.28872  0.47740  0.19910  1.0000
  C   C26       1.0  0.09890  0.22788  0.28380  1.0000
  C   C27       1.0  0.12980  0.22869  0.27881  1.0000
  H   H10       1.0  0.13529  0.22047  0.22180  1.0000
  H   H11       1.0  0.08289  0.21852  0.23157  1.0000
  C   C28       1.0  0.10254  0.26194  0.00007  1.0000
  C   C29       1.0  0.11918  0.25933  0.08624  1.0000
  H   H12       1.0  0.07646  0.24320  0.00134  1.0000
  C   C30       1.0  0.15677  0.27410  0.07614  1.0000
  H   H13       1.0  0.10835  0.23316  0.10038  1.0000
  H   H14       1.0  0.11396  0.27137  0.14123  1.0000
  H   H15       1.0  0.16763  0.27153  0.13790  1.0000
  H   H16       1.0  0.16780  0.30032  0.06176  1.0000
  H   H17       1.0  0.15252  0.22986  0.01634  1.0000
  C   C31       1.0  0.27596  0.37178  0.28384  1.0000
  C   C32       1.0  0.27516  0.40188  0.27883  1.0000
  H   H18       1.0  0.28335  0.41556  0.22178  1.0000
  H   H19       1.0  0.28528  0.36511  0.23158  1.0000
  C   C33       1.0  0.24184  0.34136  0.00017  1.0000
  C   C34       1.0  0.24446  0.36061  0.08633  1.0000
  H   H20       1.0  0.26054  0.33396  0.00149  1.0000
  C   C35       1.0  0.22972  0.38345  0.07621  1.0000
  H   H21       1.0  0.27063  0.37593  0.10046  1.0000
  H   H22       1.0  0.23242  0.34336  0.14133  1.0000
  H   H23       1.0  0.23228  0.39686  0.13799  1.0000
  H   H24       1.0  0.20350  0.36827  0.06179  1.0000
  H   H25       1.0  0.27398  0.42344  0.01652  1.0000
  C   C36       1.0  0.13208  0.40494  0.28377  1.0000
  C   C37       1.0  0.10198  0.37405  0.27876  1.0000
  H   H26       1.0  0.08828  0.36857  0.22173  1.0000
  H   H27       1.0  0.13875  0.42095  0.23151  1.0000
  C   C38       1.0  0.16248  0.40125  0.00007  1.0000
  C   C39       1.0  0.14323  0.38462  0.08623  1.0000
  H   H28       1.0  0.16986  0.42735  0.00137  1.0000
  C   C40       1.0  0.12038  0.34703  0.07610  1.0000
  H   H29       1.0  0.12791  0.39546  0.10038  1.0000
  H   H30       1.0  0.16048  0.38982  0.14122  1.0000
  H   H31       1.0  0.10696  0.33618  0.13787  1.0000
  H   H32       1.0  0.13556  0.33599  0.06168  1.0000
  H   H33       1.0  0.08041  0.35132  0.01638  1.0000
  C   C41       1.0  0.40573  0.27518  0.28386  1.0000
  C   C42       1.0  0.37484  0.27440  0.27885  1.0000
  H   H34       1.0  0.36935  0.28260  0.22181  1.0000
  H   H35       1.0  0.42174  0.28451  0.23159  1.0000
  C   C43       1.0  0.40205  0.24108  0.00015  1.0000
  C   C44       1.0  0.38544  0.24370  0.08633  1.0000
  H   H36       1.0  0.42815  0.25977  0.00144  1.0000
  C   C45       1.0  0.34784  0.22896  0.07623  1.0000
  H   H37       1.0  0.39628  0.26987  0.10046  1.0000
  H   H38       1.0  0.39064  0.23166  0.14131  1.0000
  H   H39       1.0  0.33700  0.23153  0.13802  1.0000
  H   H40       1.0  0.33680  0.20275  0.06180  1.0000
  H   H41       1.0  0.35213  0.27323  0.01655  1.0000
  C   C46       1.0  0.22867  0.13131  0.28383  1.0000
  C   C47       1.0  0.22944  0.10120  0.27883  1.0000
  H   H42       1.0  0.22122  0.08750  0.22181  1.0000
  H   H43       1.0  0.21933  0.13799  0.23158  1.0000
  C   C48       1.0  0.26278  0.16174  0.00009  1.0000
  C   C49       1.0  0.26013  0.14249  0.08627  1.0000
  H   H44       1.0  0.24409  0.16916  0.00136  1.0000
  C   C50       1.0  0.27486  0.11963  0.07620  1.0000
  H   H45       1.0  0.23396  0.12718  0.10040  1.0000
  H   H46       1.0  0.27218  0.15974  0.14126  1.0000
  H   H47       1.0  0.27228  0.10621  0.13798  1.0000
  H   H48       1.0  0.30108  0.13480  0.06179  1.0000
  H   H49       1.0  0.23059  0.07965  0.01648  1.0000
  C   C51       1.0  0.37253  0.09813  0.28381  1.0000
  C   C52       1.0  0.40264  0.12903  0.27882  1.0000
  H   H50       1.0  0.41633  0.13451  0.22178  1.0000
  H   H51       1.0  0.36586  0.08213  0.23156  1.0000
  C   C53       1.0  0.34209  0.10179  0.00009  1.0000
  C   C54       1.0  0.36133  0.11841  0.08627  1.0000
  H   H52       1.0  0.33470  0.07570  0.00137  1.0000
  C   C55       1.0  0.38419  0.15600  0.07619  1.0000
  H   H53       1.0  0.37665  0.10756  0.10041  1.0000
  H   H54       1.0  0.34408  0.11320  0.14125  1.0000
  H   H55       1.0  0.39759  0.16684  0.13797  1.0000
  H   H56       1.0  0.36901  0.16704  0.06175  1.0000
  H   H57       1.0  0.42417  0.15171  0.01650  1.0000
  C   C56       1.0  0.46522  0.25851  0.31065  1.0000
  C   C57       1.0  0.43188  0.24256  0.33876  1.0000
  C   C58       1.0  0.41707  0.20843  0.35496  1.0000
  H   H58       1.0  0.47615  0.28334  0.31085  1.0000
  H   H59       1.0  0.39272  0.19627  0.37304  1.0000
  C   C59       1.0  0.08755  0.29465  0.35467  1.0000
  H   H60       1.0  0.11190  0.30678  0.37289  1.0000
  C   C60       1.0  0.24535  0.20747  0.31050  1.0000
  C   C61       1.0  0.26132  0.19010  0.33868  1.0000
  C   C62       1.0  0.29546  0.20945  0.35492  1.0000
  H   H61       1.0  0.22052  0.19357  0.31090  1.0000
  H   H62       1.0  0.30759  0.19723  0.37309  1.0000
  C   C63       1.0  0.20923  0.29372  0.35477  1.0000
  C   C64       1.0  0.24336  0.31303  0.33871  1.0000
  C   C65       1.0  0.25933  0.29562  0.31089  1.0000
  H   H63       1.0  0.19707  0.30592  0.37284  1.0000
  H   H64       1.0  0.28416  0.30949  0.31104  1.0000
  C   C66       1.0  0.29637  0.03863  0.31062  1.0000
  C   C67       1.0  0.31376  0.07198  0.33870  1.0000
  C   C68       1.0  0.29442  0.08678  0.35491  1.0000
  H   H65       1.0  0.31028  0.02771  0.31080  1.0000
  H   H66       1.0  0.30662  0.11114  0.37297  1.0000
  C   C69       1.0  0.21019  0.41630  0.35478  1.0000
  C   C70       1.0  0.19085  0.43110  0.33867  1.0000
  C   C71       1.0  0.20823  0.46444  0.31051  1.0000
  H   H67       1.0  0.19799  0.39196  0.37302  1.0000
  H   H68       1.0  0.19434  0.47538  0.31096  1.0000
  C   C72       1.0  0.15491  0.24579  0.34359  1.0000
  C   C73       1.0  0.14317  0.25222  0.42390  1.0000
  C   C74       1.0  0.11346  0.25327  0.42619  1.0000
  C   C75       1.0  0.09291  0.24569  0.35061  1.0000
  N   N1        1.0  0.10237  0.25719  0.50607  1.0000
  C   C76       1.0  0.11776  0.25901  0.58397  1.0000
  C   C77       1.0  0.14745  0.25808  0.58241  1.0000
  N   N2        1.0  0.15887  0.25473  0.50231  1.0000
  H   H69       1.0  0.10435  0.28572  0.66464  1.0000
  C   C78       1.0  0.16315  0.25585  0.66572  1.0000
  H   H70       1.0  0.18939  0.26547  0.65583  1.0000
  C   C79       1.0  0.25816  0.40995  0.34375  1.0000
  C   C80       1.0  0.25170  0.39176  0.42402  1.0000
  C   C81       1.0  0.25064  0.36100  0.42632  1.0000
  C   C82       1.0  0.25823  0.34802  0.35079  1.0000
  N   N3        1.0  0.24668  0.34598  0.50619  1.0000
  C   C83       1.0  0.24483  0.35953  0.58408  1.0000
  C   C84       1.0  0.24579  0.39016  0.58252  1.0000
  N   N4        1.0  0.24917  0.40494  0.50242  1.0000
  H   H71       1.0  0.21804  0.31943  0.66466  1.0000
  C   C85       1.0  0.24799  0.40808  0.66583  1.0000
  H   H72       1.0  0.23839  0.42472  0.65592  1.0000
  C   C86       1.0  0.09391  0.34897  0.34363  1.0000
  C   C87       1.0  0.11210  0.36069  0.42390  1.0000
  C   C88       1.0  0.14288  0.39039  0.42619  1.0000
  C   C89       1.0  0.15586  0.41092  0.35062  1.0000
  N   N5        1.0  0.15789  0.40145  0.50608  1.0000
  C   C90       1.0  0.14432  0.38606  0.58397  1.0000
  C   C91       1.0  0.11368  0.35639  0.58241  1.0000
  N   N6        1.0  0.09891  0.34499  0.50231  1.0000
  H   H73       1.0  0.18442  0.39941  0.66457  1.0000
  C   C92       1.0  0.09576  0.34068  0.66571  1.0000
  H   H74       1.0  0.07912  0.31444  0.65579  1.0000
  C   C93       1.0  0.34976  0.25742  0.34379  1.0000
  C   C94       1.0  0.36150  0.25094  0.42404  1.0000
  C   C95       1.0  0.39118  0.24985  0.42630  1.0000
  C   C96       1.0  0.41171  0.25739  0.35070  1.0000
  N   N7        1.0  0.40224  0.24588  0.50617  1.0000
  C   C97       1.0  0.38686  0.24406  0.58408  1.0000
  C   C98       1.0  0.35720  0.24504  0.58254  1.0000
  N   N8        1.0  0.34580  0.24844  0.50245  1.0000
  H   H75       1.0  0.40018  0.21727  0.66464  1.0000
  C   C99       1.0  0.34148  0.24724  0.66586  1.0000
  H   H76       1.0  0.31525  0.23764  0.65596  1.0000
  C   C100      1.0  0.24646  0.09313  0.34371  1.0000
  C   C101      1.0  0.25293  0.11132  0.42397  1.0000
  C   C102      1.0  0.25404  0.14211  0.42623  1.0000
  C   C103      1.0  0.24654  0.15511  0.35057  1.0000
  N   N9        1.0  0.25800  0.15714  0.50610  1.0000
  C   C104      1.0  0.25980  0.14356  0.58401  1.0000
  C   C105      1.0  0.25880  0.11292  0.58248  1.0000
  N   N10       1.0  0.25541  0.09813  0.50240  1.0000
  H   H77       1.0  0.28659  0.18367  0.66460  1.0000
  C   C106      1.0  0.25658  0.09500  0.66581  1.0000
  H   H78       1.0  0.26618  0.07836  0.65593  1.0000
  C   C107      1.0  0.41071  0.15411  0.34372  1.0000
  C   C108      1.0  0.39251  0.14238  0.42398  1.0000
  C   C109      1.0  0.36173  0.11268  0.42624  1.0000
  C   C110      1.0  0.34875  0.09215  0.35064  1.0000
  N   N11       1.0  0.34671  0.10161  0.50611  1.0000
  C   C111      1.0  0.36027  0.11699  0.58402  1.0000
  C   C112      1.0  0.39091  0.14666  0.58249  1.0000
  N   N12       1.0  0.40570  0.15806  0.50241  1.0000
  H   H79       1.0  0.32016  0.10365  0.66458  1.0000
  C   C113      1.0  0.40882  0.16236  0.66582  1.0000
  H   H80       1.0  0.42547  0.18859  0.65593  1.0000
  C   C114      1.0  0.48422  0.74235  0.29787  1.0000
  C   C115      1.0  0.43151  0.68915  0.33175  1.0000
  C   C116      1.0  0.46414  0.70669  0.29612  1.0000
  O   O8        1.0  0.47533  0.68701  0.26386  1.0000
  H   H81       1.0  0.47815  0.69100  0.19905  1.0000
  C   C117      1.0  0.26152  0.74265  0.29793  1.0000
  C   C118      1.0  0.31473  0.74317  0.33177  1.0000
  C   C119      1.0  0.29718  0.75824  0.29615  1.0000
  C   C120      1.0  0.24314  0.76045  0.29803  1.0000
  C   C121      1.0  0.20748  0.74488  0.29617  1.0000
  C   C122      1.0  0.18994  0.75998  0.33170  1.0000
  O   O9        1.0  0.31684  0.78909  0.26380  1.0000
  O   O10       1.0  0.18781  0.71401  0.26400  1.0000
  H   H82       1.0  0.31282  0.78790  0.19900  1.0000
  H   H83       1.0  0.19179  0.71516  0.19918  1.0000
  C   C123      1.0  0.26120  0.51963  0.29787  1.0000
  C   C124      1.0  0.26070  0.57233  0.33172  1.0000
  C   C125      1.0  0.24562  0.53970  0.29612  1.0000
  C   C126      1.0  0.24340  0.98344  0.29783  1.0000
  C   C127      1.0  0.25900  0.96337  0.29610  1.0000
  C   C128      1.0  0.24393  0.93076  0.33178  1.0000
  O   O11       1.0  0.21475  0.52850  0.26388  1.0000
  O   O12       1.0  0.28987  0.97458  0.26392  1.0000
  H   H84       1.0  0.21592  0.52569  0.19906  1.0000
  H   H85       1.0  0.28872  0.97740  0.19910  1.0000
  C   C129      1.0  0.09890  0.72788  0.28380  1.0000
  C   C130      1.0  0.12981  0.72869  0.27881  1.0000
  H   H86       1.0  0.13529  0.72047  0.22180  1.0000
  H   H87       1.0  0.08289  0.71852  0.23157  1.0000
  C   C131      1.0  0.10254  0.76194  0.00007  1.0000
  C   C132      1.0  0.11918  0.75933  0.08624  1.0000
  H   H88       1.0  0.07646  0.74320  0.00134  1.0000
  C   C133      1.0  0.15677  0.77410  0.07614  1.0000
  H   H89       1.0  0.10835  0.73316  0.10038  1.0000
  H   H90       1.0  0.11396  0.77136  0.14123  1.0000
  H   H91       1.0  0.16763  0.77153  0.13790  1.0000
  H   H92       1.0  0.16779  0.80032  0.06176  1.0000
  H   H93       1.0  0.15252  0.72986  0.01634  1.0000
  C   C134      1.0  0.27596  0.87178  0.28384  1.0000
  C   C135      1.0  0.27516  0.90188  0.27883  1.0000
  H   H94       1.0  0.28335  0.91556  0.22178  1.0000
  H   H95       1.0  0.28528  0.86511  0.23158  1.0000
  C   C136      1.0  0.24184  0.84136  0.00017  1.0000
  C   C137      1.0  0.24446  0.86061  0.08633  1.0000
  H   H96       1.0  0.26054  0.83396  0.00149  1.0000
  C   C138      1.0  0.22972  0.88345  0.07621  1.0000
  H   H97       1.0  0.27063  0.87593  0.10046  1.0000
  H   H98       1.0  0.23242  0.84336  0.14133  1.0000
  H   H99       1.0  0.23228  0.89686  0.13799  1.0000
  H   H100      1.0  0.20350  0.86827  0.06179  1.0000
  H   H101      1.0  0.27398  0.92344  0.01652  1.0000
  C   C139      1.0  0.13208  0.90495  0.28377  1.0000
  C   C140      1.0  0.10198  0.87405  0.27876  1.0000
  H   H102      1.0  0.08829  0.86857  0.22173  1.0000
  H   H103      1.0  0.13875  0.92095  0.23151  1.0000
  C   C141      1.0  0.16248  0.90125  0.00007  1.0000
  C   C142      1.0  0.14323  0.88462  0.08623  1.0000
  H   H104      1.0  0.16986  0.92735  0.00137  1.0000
  C   C143      1.0  0.12038  0.84703  0.07610  1.0000
  H   H105      1.0  0.12791  0.89546  0.10038  1.0000
  H   H106      1.0  0.16048  0.88982  0.14122  1.0000
  H   H107      1.0  0.10696  0.83617  0.13787  1.0000
  H   H108      1.0  0.13556  0.83599  0.06168  1.0000
  H   H109      1.0  0.08041  0.85132  0.01638  1.0000
  C   C144      1.0  0.40573  0.77518  0.28386  1.0000
  C   C145      1.0  0.37484  0.77440  0.27885  1.0000
  H   H110      1.0  0.36935  0.78260  0.22181  1.0000
  H   H111      1.0  0.42174  0.78451  0.23159  1.0000
  C   C146      1.0  0.40205  0.74108  0.00015  1.0000
  C   C147      1.0  0.38543  0.74370  0.08633  1.0000
  H   H112      1.0  0.42815  0.75977  0.00144  1.0000
  C   C148      1.0  0.34784  0.72896  0.07623  1.0000
  H   H113      1.0  0.39628  0.76987  0.10046  1.0000
  H   H114      1.0  0.39064  0.73166  0.14131  1.0000
  H   H115      1.0  0.33700  0.73153  0.13802  1.0000
  H   H116      1.0  0.33680  0.70275  0.06180  1.0000
  H   H117      1.0  0.35213  0.77323  0.01655  1.0000
  C   C149      1.0  0.22867  0.63131  0.28383  1.0000
  C   C150      1.0  0.22944  0.60120  0.27883  1.0000
  H   H118      1.0  0.22122  0.58750  0.22181  1.0000
  H   H119      1.0  0.21933  0.63799  0.23158  1.0000
  C   C151      1.0  0.26278  0.66174  0.00009  1.0000
  C   C152      1.0  0.26013  0.64249  0.08627  1.0000
  H   H120      1.0  0.24409  0.66916  0.00136  1.0000
  C   C153      1.0  0.27486  0.61963  0.07620  1.0000
  H   H121      1.0  0.23396  0.62718  0.10040  1.0000
  H   H122      1.0  0.27218  0.65974  0.14126  1.0000
  H   H123      1.0  0.27228  0.60621  0.13798  1.0000
  H   H124      1.0  0.30108  0.63480  0.06179  1.0000
  H   H125      1.0  0.23059  0.57965  0.01648  1.0000
  C   C154      1.0  0.37253  0.59813  0.28381  1.0000
  C   C155      1.0  0.40264  0.62903  0.27882  1.0000
  H   H126      1.0  0.41633  0.63451  0.22178  1.0000
  H   H127      1.0  0.36586  0.58213  0.23156  1.0000
  C   C156      1.0  0.34209  0.60179  0.00009  1.0000
  C   C157      1.0  0.36133  0.61841  0.08627  1.0000
  H   H128      1.0  0.33470  0.57570  0.00137  1.0000
  C   C158      1.0  0.38419  0.65600  0.07619  1.0000
  H   H129      1.0  0.37665  0.60756  0.10041  1.0000
  H   H130      1.0  0.34408  0.61320  0.14125  1.0000
  H   H131      1.0  0.39759  0.66684  0.13797  1.0000
  H   H132      1.0  0.36901  0.66704  0.06175  1.0000
  H   H133      1.0  0.42417  0.65171  0.01650  1.0000
  C   C159      1.0  0.46522  0.75852  0.31065  1.0000
  C   C160      1.0  0.43188  0.74256  0.33876  1.0000
  C   C161      1.0  0.41707  0.70843  0.35496  1.0000
  H   H134      1.0  0.47615  0.78334  0.31085  1.0000
  H   H135      1.0  0.39272  0.69627  0.37304  1.0000
  C   C162      1.0  0.08755  0.79465  0.35467  1.0000
  H   H136      1.0  0.11190  0.80678  0.37289  1.0000
  C   C163      1.0  0.24535  0.70747  0.31050  1.0000
  C   C164      1.0  0.26132  0.69010  0.33868  1.0000
  C   C165      1.0  0.29546  0.70945  0.35492  1.0000
  H   H137      1.0  0.22052  0.69358  0.31090  1.0000
  H   H138      1.0  0.30759  0.69723  0.37309  1.0000
  C   C166      1.0  0.20923  0.79372  0.35477  1.0000
  C   C167      1.0  0.24336  0.81303  0.33871  1.0000
  C   C168      1.0  0.25933  0.79562  0.31089  1.0000
  H   H139      1.0  0.19707  0.80592  0.37284  1.0000
  H   H140      1.0  0.28416  0.80949  0.31104  1.0000
  C   C169      1.0  0.29637  0.53863  0.31062  1.0000
  C   C170      1.0  0.31376  0.57198  0.33870  1.0000
  C   C171      1.0  0.29442  0.58678  0.35491  1.0000
  H   H141      1.0  0.31028  0.52771  0.31080  1.0000
  H   H142      1.0  0.30662  0.61113  0.37297  1.0000
  C   C172      1.0  0.21019  0.91630  0.35478  1.0000
  C   C173      1.0  0.19085  0.93110  0.33867  1.0000
  C   C174      1.0  0.20823  0.96444  0.31051  1.0000
  H   H143      1.0  0.19798  0.89196  0.37302  1.0000
  H   H144      1.0  0.19434  0.97538  0.31096  1.0000
  C   C175      1.0  0.15491  0.74579  0.34359  1.0000
  C   C176      1.0  0.14317  0.75222  0.42390  1.0000
  C   C177      1.0  0.11345  0.75327  0.42619  1.0000
  C   C178      1.0  0.09291  0.74569  0.35061  1.0000
  N   N13       1.0  0.10237  0.75719  0.50607  1.0000
  C   C179      1.0  0.11776  0.75901  0.58397  1.0000
  C   C180      1.0  0.14745  0.75808  0.58241  1.0000
  N   N14       1.0  0.15887  0.75473  0.50231  1.0000
  H   H145      1.0  0.10435  0.78572  0.66464  1.0000
  C   C181      1.0  0.16315  0.75586  0.66572  1.0000
  H   H146      1.0  0.18939  0.76547  0.65583  1.0000
  C   C182      1.0  0.25816  0.90995  0.34375  1.0000
  C   C183      1.0  0.25170  0.89177  0.42402  1.0000
  C   C184      1.0  0.25064  0.86100  0.42632  1.0000
  C   C185      1.0  0.25823  0.84802  0.35079  1.0000
  N   N15       1.0  0.24668  0.84598  0.50619  1.0000
  C   C186      1.0  0.24483  0.85954  0.58408  1.0000
  C   C187      1.0  0.24579  0.89016  0.58252  1.0000
  N   N16       1.0  0.24917  0.90495  0.50242  1.0000
  H   H147      1.0  0.21804  0.81943  0.66466  1.0000
  C   C188      1.0  0.24799  0.90808  0.66583  1.0000
  H   H148      1.0  0.23839  0.92472  0.65592  1.0000
  C   C189      1.0  0.09391  0.84896  0.34363  1.0000
  C   C190      1.0  0.11210  0.86069  0.42390  1.0000
  C   C191      1.0  0.14288  0.89038  0.42619  1.0000
  C   C192      1.0  0.15586  0.91092  0.35062  1.0000
  N   N17       1.0  0.15789  0.90145  0.50608  1.0000
  C   C193      1.0  0.14432  0.88606  0.58397  1.0000
  C   C194      1.0  0.11368  0.85639  0.58241  1.0000
  N   N18       1.0  0.09891  0.84499  0.50231  1.0000
  H   H149      1.0  0.18442  0.89940  0.66457  1.0000
  C   C195      1.0  0.09576  0.84068  0.66571  1.0000
  H   H150      1.0  0.07912  0.81444  0.65579  1.0000
  C   C196      1.0  0.34976  0.75742  0.34379  1.0000
  C   C197      1.0  0.36149  0.75094  0.42404  1.0000
  C   C198      1.0  0.39118  0.74984  0.42630  1.0000
  C   C199      1.0  0.41171  0.75739  0.35070  1.0000
  N   N19       1.0  0.40224  0.74588  0.50617  1.0000
  C   C200      1.0  0.38686  0.74406  0.58408  1.0000
  C   C201      1.0  0.35720  0.74504  0.58254  1.0000
  N   N20       1.0  0.34580  0.74843  0.50245  1.0000
  H   H151      1.0  0.40018  0.71727  0.66464  1.0000
  C   C202      1.0  0.34149  0.74724  0.66586  1.0000
  H   H152      1.0  0.31525  0.73764  0.65596  1.0000
  C   C203      1.0  0.24646  0.59313  0.34371  1.0000
  C   C204      1.0  0.25293  0.61132  0.42397  1.0000
  C   C205      1.0  0.25404  0.64211  0.42623  1.0000
  C   C206      1.0  0.24654  0.65511  0.35057  1.0000
  N   N21       1.0  0.25800  0.65714  0.50610  1.0000
  C   C207      1.0  0.25980  0.64356  0.58401  1.0000
  C   C208      1.0  0.25880  0.61291  0.58248  1.0000
  N   N22       1.0  0.25541  0.59813  0.50240  1.0000
  H   H153      1.0  0.28658  0.68367  0.66460  1.0000
  C   C209      1.0  0.25658  0.59500  0.66581  1.0000
  H   H154      1.0  0.26618  0.57836  0.65593  1.0000
  C   C210      1.0  0.41071  0.65411  0.34372  1.0000
  C   C211      1.0  0.39252  0.64238  0.42398  1.0000
  C   C212      1.0  0.36173  0.61268  0.42624  1.0000
  C   C213      1.0  0.34875  0.59215  0.35064  1.0000
  N   N23       1.0  0.34671  0.60162  0.50611  1.0000
  C   C214      1.0  0.36027  0.61699  0.58402  1.0000
  C   C215      1.0  0.39091  0.64665  0.58249  1.0000
  N   N24       1.0  0.40570  0.65806  0.50241  1.0000
  H   H155      1.0  0.32015  0.60365  0.66458  1.0000
  C   C216      1.0  0.40882  0.66236  0.66582  1.0000
  H   H156      1.0  0.42547  0.68859  0.65593  1.0000
  C   C217      1.0  0.98422  0.24235  0.29787  1.0000
  C   C218      1.0  0.93151  0.18915  0.33175  1.0000
  C   C219      1.0  0.96414  0.20669  0.29612  1.0000
  C   C220      1.0  0.52040  0.26072  0.29780  1.0000
  C   C221      1.0  0.54048  0.29639  0.29603  1.0000
  C   C222      1.0  0.57309  0.31393  0.33168  1.0000
  O   O13       1.0  0.97533  0.18701  0.26386  1.0000
  O   O14       1.0  0.52927  0.31606  0.26386  1.0000
  H   H157      1.0  0.97815  0.19100  0.19905  1.0000
  H   H158      1.0  0.52644  0.31208  0.19904  1.0000
  C   C223      1.0  0.76152  0.24265  0.29793  1.0000
  C   C224      1.0  0.81473  0.24317  0.33177  1.0000
  C   C225      1.0  0.79718  0.25824  0.29615  1.0000
  C   C226      1.0  0.74314  0.26046  0.29803  1.0000
  C   C227      1.0  0.70748  0.24488  0.29617  1.0000
  C   C228      1.0  0.68994  0.25998  0.33170  1.0000
  O   O15       1.0  0.81684  0.28909  0.26380  1.0000
  O   O16       1.0  0.68781  0.21401  0.26400  1.0000
  H   H159      1.0  0.81282  0.28791  0.19900  1.0000
  H   H160      1.0  0.69179  0.21516  0.19918  1.0000
  C   C229      1.0  0.76120  0.01963  0.29787  1.0000
  C   C230      1.0  0.76070  0.07233  0.33172  1.0000
  C   C231      1.0  0.74562  0.03970  0.29612  1.0000
  C   C232      1.0  0.74340  0.48344  0.29783  1.0000
  C   C233      1.0  0.75900  0.46337  0.29610  1.0000
  C   C234      1.0  0.74393  0.43076  0.33178  1.0000
  O   O17       1.0  0.71475  0.02850  0.26388  1.0000
  O   O18       1.0  0.78987  0.47458  0.26392  1.0000
  H   H161      1.0  0.71592  0.02569  0.19906  1.0000
  H   H162      1.0  0.78873  0.47740  0.19910  1.0000
  C   C235      1.0  0.59890  0.22788  0.28380  1.0000
  C   C236      1.0  0.62980  0.22869  0.27881  1.0000
  H   H163      1.0  0.63529  0.22047  0.22180  1.0000
  H   H164      1.0  0.58289  0.21852  0.23157  1.0000
  C   C237      1.0  0.60254  0.26194  0.00007  1.0000
  C   C238      1.0  0.61918  0.25933  0.08624  1.0000
  H   H165      1.0  0.57646  0.24320  0.00134  1.0000
  C   C239      1.0  0.65677  0.27410  0.07614  1.0000
  H   H166      1.0  0.60835  0.23316  0.10038  1.0000
  H   H167      1.0  0.61396  0.27137  0.14123  1.0000
  H   H168      1.0  0.66763  0.27153  0.13790  1.0000
  H   H169      1.0  0.66780  0.30032  0.06176  1.0000
  H   H170      1.0  0.65252  0.22986  0.01634  1.0000
  C   C240      1.0  0.77596  0.37178  0.28384  1.0000
  C   C241      1.0  0.77516  0.40188  0.27883  1.0000
  H   H171      1.0  0.78334  0.41556  0.22178  1.0000
  H   H172      1.0  0.78528  0.36511  0.23158  1.0000
  C   C242      1.0  0.74184  0.34136  0.00017  1.0000
  C   C243      1.0  0.74446  0.36061  0.08633  1.0000
  H   H173      1.0  0.76054  0.33396  0.00149  1.0000
  C   C244      1.0  0.72972  0.38345  0.07621  1.0000
  H   H174      1.0  0.77063  0.37593  0.10046  1.0000
  H   H175      1.0  0.73242  0.34336  0.14133  1.0000
  H   H176      1.0  0.73228  0.39686  0.13799  1.0000
  H   H177      1.0  0.70350  0.36827  0.06179  1.0000
  H   H178      1.0  0.77398  0.42344  0.01652  1.0000
  C   C245      1.0  0.63208  0.40494  0.28377  1.0000
  C   C246      1.0  0.60198  0.37405  0.27876  1.0000
  H   H179      1.0  0.58828  0.36857  0.22173  1.0000
  H   H180      1.0  0.63875  0.42095  0.23151  1.0000
  C   C247      1.0  0.66248  0.40125  0.00007  1.0000
  C   C248      1.0  0.64323  0.38462  0.08623  1.0000
  H   H181      1.0  0.66986  0.42735  0.00137  1.0000
  C   C249      1.0  0.62038  0.34703  0.07610  1.0000
  H   H182      1.0  0.62791  0.39546  0.10038  1.0000
  H   H183      1.0  0.66048  0.38982  0.14122  1.0000
  H   H184      1.0  0.60696  0.33618  0.13787  1.0000
  H   H185      1.0  0.63556  0.33599  0.06168  1.0000
  H   H186      1.0  0.58041  0.35132  0.01638  1.0000
  C   C250      1.0  0.90573  0.27518  0.28386  1.0000
  C   C251      1.0  0.87484  0.27440  0.27885  1.0000
  H   H187      1.0  0.86935  0.28260  0.22181  1.0000
  H   H188      1.0  0.92174  0.28451  0.23159  1.0000
  C   C252      1.0  0.90205  0.24108  0.00015  1.0000
  C   C253      1.0  0.88543  0.24370  0.08633  1.0000
  H   H189      1.0  0.92815  0.25977  0.00144  1.0000
  C   C254      1.0  0.84784  0.22896  0.07623  1.0000
  H   H190      1.0  0.89628  0.26987  0.10046  1.0000
  H   H191      1.0  0.89065  0.23166  0.14131  1.0000
  H   H192      1.0  0.83700  0.23153  0.13802  1.0000
  H   H193      1.0  0.83680  0.20275  0.06180  1.0000
  H   H194      1.0  0.85212  0.27323  0.01655  1.0000
  C   C255      1.0  0.72867  0.13131  0.28383  1.0000
  C   C256      1.0  0.72944  0.10120  0.27883  1.0000
  H   H195      1.0  0.72122  0.08750  0.22181  1.0000
  H   H196      1.0  0.71933  0.13799  0.23158  1.0000
  C   C257      1.0  0.76278  0.16174  0.00009  1.0000
  C   C258      1.0  0.76013  0.14249  0.08627  1.0000
  H   H197      1.0  0.74409  0.16916  0.00136  1.0000
  C   C259      1.0  0.77486  0.11963  0.07620  1.0000
  H   H198      1.0  0.73396  0.12718  0.10040  1.0000
  H   H199      1.0  0.77218  0.15974  0.14126  1.0000
  H   H200      1.0  0.77228  0.10621  0.13798  1.0000
  H   H201      1.0  0.80108  0.13480  0.06179  1.0000
  H   H202      1.0  0.73059  0.07965  0.01648  1.0000
  C   C260      1.0  0.87253  0.09813  0.28381  1.0000
  C   C261      1.0  0.90264  0.12903  0.27882  1.0000
  H   H203      1.0  0.91633  0.13451  0.22178  1.0000
  H   H204      1.0  0.86586  0.08213  0.23156  1.0000
  C   C262      1.0  0.84209  0.10179  0.00009  1.0000
  C   C263      1.0  0.86133  0.11841  0.08627  1.0000
  H   H205      1.0  0.83470  0.07570  0.00137  1.0000
  C   C264      1.0  0.88419  0.15600  0.07619  1.0000
  H   H206      1.0  0.87665  0.10756  0.10041  1.0000
  H   H207      1.0  0.84408  0.11320  0.14125  1.0000
  H   H208      1.0  0.89759  0.16684  0.13797  1.0000
  H   H209      1.0  0.86901  0.16704  0.06175  1.0000
  H   H210      1.0  0.92417  0.15171  0.01650  1.0000
  C   C265      1.0  0.96522  0.25851  0.31065  1.0000
  C   C266      1.0  0.93188  0.24256  0.33876  1.0000
  C   C267      1.0  0.91707  0.20843  0.35496  1.0000
  H   H211      1.0  0.97615  0.28334  0.31085  1.0000
  H   H212      1.0  0.89272  0.19627  0.37304  1.0000
  C   C268      1.0  0.58755  0.29465  0.35467  1.0000
  C   C269      1.0  0.57274  0.26051  0.33861  1.0000
  C   C270      1.0  0.53939  0.24454  0.31049  1.0000
  H   H213      1.0  0.61190  0.30678  0.37289  1.0000
  H   H214      1.0  0.52845  0.21972  0.31100  1.0000
  C   C271      1.0  0.74535  0.20747  0.31050  1.0000
  C   C272      1.0  0.76133  0.19010  0.33868  1.0000
  C   C273      1.0  0.79545  0.20945  0.35492  1.0000
  H   H215      1.0  0.72052  0.19357  0.31090  1.0000
  H   H216      1.0  0.80759  0.19723  0.37309  1.0000
  C   C274      1.0  0.70923  0.29372  0.35477  1.0000
  C   C275      1.0  0.74336  0.31303  0.33871  1.0000
  C   C276      1.0  0.75933  0.29562  0.31089  1.0000
  H   H217      1.0  0.69707  0.30592  0.37284  1.0000
  H   H218      1.0  0.78416  0.30949  0.31104  1.0000
  C   C277      1.0  0.79637  0.03863  0.31062  1.0000
  C   C278      1.0  0.81376  0.07198  0.33870  1.0000
  C   C279      1.0  0.79442  0.08678  0.35491  1.0000
  H   H219      1.0  0.81028  0.02771  0.31080  1.0000
  H   H220      1.0  0.80662  0.11114  0.37297  1.0000
  C   C280      1.0  0.71020  0.41630  0.35478  1.0000
  C   C281      1.0  0.69085  0.43110  0.33867  1.0000
  C   C282      1.0  0.70823  0.46444  0.31051  1.0000
  H   H221      1.0  0.69799  0.39196  0.37302  1.0000
  H   H222      1.0  0.69434  0.47538  0.31096  1.0000
  C   C283      1.0  0.65491  0.24579  0.34359  1.0000
  C   C284      1.0  0.64317  0.25222  0.42390  1.0000
  C   C285      1.0  0.61346  0.25327  0.42619  1.0000
  C   C286      1.0  0.59291  0.24569  0.35061  1.0000
  N   N25       1.0  0.60237  0.25719  0.50607  1.0000
  C   C287      1.0  0.61776  0.25901  0.58397  1.0000
  C   C288      1.0  0.64745  0.25808  0.58241  1.0000
  N   N26       1.0  0.65887  0.25473  0.50231  1.0000
  H   H223      1.0  0.60435  0.28572  0.66464  1.0000
  C   C289      1.0  0.66315  0.25585  0.66572  1.0000
  H   H224      1.0  0.68939  0.26547  0.65583  1.0000
  C   C290      1.0  0.75816  0.40995  0.34375  1.0000
  C   C291      1.0  0.75170  0.39176  0.42402  1.0000
  C   C292      1.0  0.75064  0.36100  0.42632  1.0000
  C   C293      1.0  0.75823  0.34802  0.35079  1.0000
  N   N27       1.0  0.74668  0.34598  0.50619  1.0000
  C   C294      1.0  0.74483  0.35953  0.58408  1.0000
  C   C295      1.0  0.74579  0.39016  0.58252  1.0000
  N   N28       1.0  0.74917  0.40494  0.50242  1.0000
  H   H225      1.0  0.71804  0.31943  0.66466  1.0000
  C   C296      1.0  0.74799  0.40808  0.66583  1.0000
  H   H226      1.0  0.73839  0.42472  0.65592  1.0000
  C   C297      1.0  0.59391  0.34897  0.34363  1.0000
  C   C298      1.0  0.61210  0.36069  0.42390  1.0000
  C   C299      1.0  0.64288  0.39039  0.42619  1.0000
  C   C300      1.0  0.65586  0.41092  0.35062  1.0000
  N   N29       1.0  0.65789  0.40145  0.50608  1.0000
  C   C301      1.0  0.64432  0.38606  0.58397  1.0000
  C   C302      1.0  0.61369  0.35639  0.58241  1.0000
  N   N30       1.0  0.59891  0.34499  0.50231  1.0000
  H   H227      1.0  0.68442  0.39941  0.66457  1.0000
  C   C303      1.0  0.59576  0.34068  0.66571  1.0000
  H   H228      1.0  0.57912  0.31444  0.65579  1.0000
  C   C304      1.0  0.84976  0.25742  0.34379  1.0000
  C   C305      1.0  0.86150  0.25094  0.42404  1.0000
  C   C306      1.0  0.89118  0.24985  0.42630  1.0000
  C   C307      1.0  0.91171  0.25739  0.35070  1.0000
  N   N31       1.0  0.90224  0.24588  0.50617  1.0000
  C   C308      1.0  0.88686  0.24406  0.58408  1.0000
  C   C309      1.0  0.85720  0.24504  0.58254  1.0000
  N   N32       1.0  0.84580  0.24844  0.50245  1.0000
  H   H229      1.0  0.90018  0.21727  0.66464  1.0000
  C   C310      1.0  0.84149  0.24724  0.66586  1.0000
  H   H230      1.0  0.81525  0.23764  0.65596  1.0000
  C   C311      1.0  0.74646  0.09313  0.34371  1.0000
  C   C312      1.0  0.75292  0.11132  0.42397  1.0000
  C   C313      1.0  0.75404  0.14211  0.42623  1.0000
  C   C314      1.0  0.74655  0.15511  0.35057  1.0000
  N   N33       1.0  0.75800  0.15714  0.50610  1.0000
  C   C315      1.0  0.75980  0.14356  0.58401  1.0000
  C   C316      1.0  0.75880  0.11292  0.58248  1.0000
  N   N34       1.0  0.75541  0.09813  0.50240  1.0000
  H   H231      1.0  0.78659  0.18367  0.66460  1.0000
  C   C317      1.0  0.75658  0.09500  0.66581  1.0000
  H   H232      1.0  0.76618  0.07836  0.65593  1.0000
  C   C318      1.0  0.91071  0.15411  0.34372  1.0000
  C   C319      1.0  0.89251  0.14238  0.42398  1.0000
  C   C320      1.0  0.86173  0.11268  0.42624  1.0000
  C   C321      1.0  0.84875  0.09215  0.35064  1.0000
  N   N35       1.0  0.84671  0.10161  0.50611  1.0000
  C   C322      1.0  0.86027  0.11699  0.58402  1.0000
  C   C323      1.0  0.89091  0.14666  0.58249  1.0000
  N   N36       1.0  0.90570  0.15806  0.50241  1.0000
  H   H233      1.0  0.82015  0.10365  0.66458  1.0000
  C   C324      1.0  0.90882  0.16236  0.66582  1.0000
  H   H234      1.0  0.92547  0.18859  0.65593  1.0000
  C   C325      1.0  0.98422  0.74235  0.29787  1.0000
  C   C326      1.0  0.93151  0.68915  0.33175  1.0000
  C   C327      1.0  0.96414  0.70669  0.29612  1.0000
  C   C328      1.0  0.52040  0.76072  0.29780  1.0000
  C   C329      1.0  0.54048  0.79639  0.29603  1.0000
  C   C330      1.0  0.57310  0.81393  0.33168  1.0000
  O   O19       1.0  0.97533  0.68701  0.26386  1.0000
  O   O20       1.0  0.52927  0.81606  0.26386  1.0000
  H   H235      1.0  0.97815  0.69100  0.19905  1.0000
  H   H236      1.0  0.52644  0.81207  0.19904  1.0000
  C   C331      1.0  0.76152  0.74265  0.29793  1.0000
  C   C332      1.0  0.81473  0.74317  0.33177  1.0000
  C   C333      1.0  0.79718  0.75824  0.29615  1.0000
  C   C334      1.0  0.74314  0.76045  0.29803  1.0000
  C   C335      1.0  0.70748  0.74488  0.29617  1.0000
  C   C336      1.0  0.68994  0.75998  0.33170  1.0000
  O   O21       1.0  0.81684  0.78909  0.26380  1.0000
  O   O22       1.0  0.68781  0.71401  0.26400  1.0000
  H   H237      1.0  0.81282  0.78790  0.19900  1.0000
  H   H238      1.0  0.69179  0.71516  0.19918  1.0000
  C   C337      1.0  0.76120  0.51963  0.29787  1.0000
  C   C338      1.0  0.76070  0.57233  0.33172  1.0000
  C   C339      1.0  0.74562  0.53970  0.29612  1.0000
  C   C340      1.0  0.74340  0.98344  0.29783  1.0000
  C   C341      1.0  0.75900  0.96337  0.29610  1.0000
  C   C342      1.0  0.74393  0.93076  0.33178  1.0000
  O   O23       1.0  0.71475  0.52850  0.26388  1.0000
  O   O24       1.0  0.78987  0.97458  0.26392  1.0000
  H   H239      1.0  0.71592  0.52569  0.19906  1.0000
  H   H240      1.0  0.78872  0.97740  0.19910  1.0000
  C   C343      1.0  0.59890  0.72788  0.28380  1.0000
  C   C344      1.0  0.62980  0.72869  0.27881  1.0000
  H   H241      1.0  0.63529  0.72047  0.22180  1.0000
  H   H242      1.0  0.58289  0.71852  0.23157  1.0000
  C   C345      1.0  0.60254  0.76194  0.00007  1.0000
  C   C346      1.0  0.61918  0.75933  0.08624  1.0000
  H   H243      1.0  0.57646  0.74320  0.00134  1.0000
  C   C347      1.0  0.65677  0.77410  0.07614  1.0000
  H   H244      1.0  0.60835  0.73316  0.10038  1.0000
  H   H245      1.0  0.61396  0.77136  0.14123  1.0000
  H   H246      1.0  0.66763  0.77153  0.13790  1.0000
  H   H247      1.0  0.66780  0.80032  0.06176  1.0000
  H   H248      1.0  0.65251  0.72986  0.01634  1.0000
  C   C348      1.0  0.77596  0.87178  0.28384  1.0000
  C   C349      1.0  0.77516  0.90188  0.27883  1.0000
  H   H249      1.0  0.78334  0.91556  0.22178  1.0000
  H   H250      1.0  0.78528  0.86511  0.23158  1.0000
  C   C350      1.0  0.74184  0.84136  0.00017  1.0000
  C   C351      1.0  0.74446  0.86061  0.08633  1.0000
  H   H251      1.0  0.76054  0.83396  0.00149  1.0000
  C   C352      1.0  0.72971  0.88345  0.07621  1.0000
  H   H252      1.0  0.77063  0.87593  0.10046  1.0000
  H   H253      1.0  0.73242  0.84336  0.14133  1.0000
  H   H254      1.0  0.73228  0.89686  0.13799  1.0000
  H   H255      1.0  0.70350  0.86827  0.06179  1.0000
  H   H256      1.0  0.77398  0.92344  0.01652  1.0000
  C   C353      1.0  0.63208  0.90495  0.28377  1.0000
  C   C354      1.0  0.60198  0.87405  0.27876  1.0000
  H   H257      1.0  0.58828  0.86857  0.22173  1.0000
  H   H258      1.0  0.63875  0.92095  0.23151  1.0000
  C   C355      1.0  0.66248  0.90125  0.00007  1.0000
  C   C356      1.0  0.64323  0.88462  0.08623  1.0000
  H   H259      1.0  0.66986  0.92735  0.00137  1.0000
  C   C357      1.0  0.62038  0.84703  0.07610  1.0000
  H   H260      1.0  0.62791  0.89546  0.10038  1.0000
  H   H261      1.0  0.66048  0.88982  0.14122  1.0000
  H   H262      1.0  0.60696  0.83617  0.13787  1.0000
  H   H263      1.0  0.63556  0.83599  0.06168  1.0000
  H   H264      1.0  0.58041  0.85132  0.01638  1.0000
  C   C358      1.0  0.90573  0.77518  0.28386  1.0000
  C   C359      1.0  0.87484  0.77440  0.27885  1.0000
  H   H265      1.0  0.86935  0.78260  0.22181  1.0000
  H   H266      1.0  0.92173  0.78451  0.23159  1.0000
  C   C360      1.0  0.90205  0.74108  0.00015  1.0000
  C   C361      1.0  0.88543  0.74370  0.08633  1.0000
  H   H267      1.0  0.92815  0.75977  0.00144  1.0000
  C   C362      1.0  0.84784  0.72896  0.07623  1.0000
  H   H268      1.0  0.89628  0.76987  0.10046  1.0000
  H   H269      1.0  0.89064  0.73166  0.14131  1.0000
  H   H270      1.0  0.83700  0.73153  0.13802  1.0000
  H   H271      1.0  0.83680  0.70275  0.06180  1.0000
  H   H272      1.0  0.85212  0.77323  0.01655  1.0000
  C   C363      1.0  0.72867  0.63131  0.28383  1.0000
  C   C364      1.0  0.72944  0.60120  0.27883  1.0000
  H   H273      1.0  0.72122  0.58750  0.22181  1.0000
  H   H274      1.0  0.71933  0.63799  0.23158  1.0000
  C   C365      1.0  0.76278  0.66174  0.00009  1.0000
  C   C366      1.0  0.76013  0.64249  0.08627  1.0000
  H   H275      1.0  0.74409  0.66916  0.00136  1.0000
  C   C367      1.0  0.77486  0.61963  0.07620  1.0000
  H   H276      1.0  0.73396  0.62718  0.10040  1.0000
  H   H277      1.0  0.77218  0.65974  0.14126  1.0000
  H   H278      1.0  0.77228  0.60621  0.13798  1.0000
  H   H279      1.0  0.80108  0.63480  0.06179  1.0000
  H   H280      1.0  0.73059  0.57965  0.01648  1.0000
  C   C368      1.0  0.87253  0.59813  0.28381  1.0000
  C   C369      1.0  0.90264  0.62903  0.27882  1.0000
  H   H281      1.0  0.91633  0.63451  0.22178  1.0000
  H   H282      1.0  0.86586  0.58213  0.23156  1.0000
  C   C370      1.0  0.84209  0.60179  0.00009  1.0000
  C   C371      1.0  0.86133  0.61841  0.08627  1.0000
  H   H283      1.0  0.83470  0.57570  0.00137  1.0000
  C   C372      1.0  0.88419  0.65600  0.07619  1.0000
  H   H284      1.0  0.87665  0.60756  0.10041  1.0000
  H   H285      1.0  0.84408  0.61320  0.14125  1.0000
  H   H286      1.0  0.89759  0.66684  0.13797  1.0000
  H   H287      1.0  0.86901  0.66704  0.06175  1.0000
  H   H288      1.0  0.92417  0.65171  0.01650  1.0000
  C   C373      1.0  0.96523  0.75852  0.31065  1.0000
  C   C374      1.0  0.93188  0.74256  0.33876  1.0000
  C   C375      1.0  0.91707  0.70843  0.35496  1.0000
  H   H289      1.0  0.97615  0.78334  0.31085  1.0000
  H   H290      1.0  0.89272  0.69627  0.37304  1.0000
  C   C376      1.0  0.58755  0.79465  0.35467  1.0000
  C   C377      1.0  0.57274  0.76051  0.33861  1.0000
  C   C378      1.0  0.53939  0.74454  0.31049  1.0000
  H   H291      1.0  0.61190  0.80678  0.37289  1.0000
  H   H292      1.0  0.52845  0.71972  0.31100  1.0000
  C   C379      1.0  0.74535  0.70747  0.31050  1.0000
  C   C380      1.0  0.76132  0.69010  0.33868  1.0000
  C   C381      1.0  0.79545  0.70945  0.35492  1.0000
  H   H293      1.0  0.72052  0.69358  0.31090  1.0000
  H   H294      1.0  0.80759  0.69723  0.37309  1.0000
  C   C382      1.0  0.70923  0.79372  0.35477  1.0000
  C   C383      1.0  0.74337  0.81303  0.33871  1.0000
  C   C384      1.0  0.75933  0.79562  0.31089  1.0000
  H   H295      1.0  0.69707  0.80592  0.37284  1.0000
  H   H296      1.0  0.78416  0.80949  0.31104  1.0000
  C   C385      1.0  0.79637  0.53863  0.31062  1.0000
  C   C386      1.0  0.81376  0.57198  0.33870  1.0000
  C   C387      1.0  0.79442  0.58678  0.35491  1.0000
  H   H297      1.0  0.81028  0.52771  0.31080  1.0000
  H   H298      1.0  0.80662  0.61113  0.37297  1.0000
  C   C388      1.0  0.71019  0.91630  0.35478  1.0000
  C   C389      1.0  0.69085  0.93110  0.33867  1.0000
  C   C390      1.0  0.70823  0.96444  0.31051  1.0000
  H   H299      1.0  0.69798  0.89196  0.37302  1.0000
  H   H300      1.0  0.69434  0.97538  0.31096  1.0000
  C   C391      1.0  0.65491  0.74579  0.34359  1.0000
  C   C392      1.0  0.64317  0.75222  0.42390  1.0000
  C   C393      1.0  0.61345  0.75327  0.42619  1.0000
  C   C394      1.0  0.59291  0.74569  0.35061  1.0000
  N   N37       1.0  0.60237  0.75719  0.50607  1.0000
  C   C395      1.0  0.61776  0.75901  0.58397  1.0000
  C   C396      1.0  0.64745  0.75808  0.58241  1.0000
  N   N38       1.0  0.65887  0.75473  0.50231  1.0000
  H   H301      1.0  0.60435  0.78572  0.66464  1.0000
  C   C397      1.0  0.66315  0.75586  0.66572  1.0000
  H   H302      1.0  0.68939  0.76547  0.65583  1.0000
  C   C398      1.0  0.75816  0.90995  0.34375  1.0000
  C   C399      1.0  0.75170  0.89177  0.42402  1.0000
  C   C400      1.0  0.75064  0.86100  0.42632  1.0000
  C   C401      1.0  0.75823  0.84802  0.35079  1.0000
  N   N39       1.0  0.74668  0.84598  0.50619  1.0000
  C   C402      1.0  0.74484  0.85954  0.58408  1.0000
  C   C403      1.0  0.74579  0.89016  0.58252  1.0000
  N   N40       1.0  0.74917  0.90495  0.50242  1.0000
  H   H303      1.0  0.71804  0.81943  0.66466  1.0000
  C   C404      1.0  0.74799  0.90808  0.66583  1.0000
  H   H304      1.0  0.73839  0.92472  0.65592  1.0000
  C   C405      1.0  0.59391  0.84896  0.34363  1.0000
  C   C406      1.0  0.61210  0.86069  0.42390  1.0000
  C   C407      1.0  0.64288  0.89038  0.42619  1.0000
  C   C408      1.0  0.65586  0.91092  0.35062  1.0000
  N   N41       1.0  0.65789  0.90145  0.50608  1.0000
  C   C409      1.0  0.64432  0.88606  0.58397  1.0000
  C   C410      1.0  0.61368  0.85639  0.58241  1.0000
  N   N42       1.0  0.59891  0.84499  0.50231  1.0000
  H   H305      1.0  0.68442  0.89940  0.66457  1.0000
  C   C411      1.0  0.59576  0.84068  0.66571  1.0000
  H   H306      1.0  0.57912  0.81444  0.65579  1.0000
  C   C412      1.0  0.84976  0.75742  0.34379  1.0000
  C   C413      1.0  0.86149  0.75094  0.42404  1.0000
  C   C414      1.0  0.89118  0.74984  0.42630  1.0000
  C   C415      1.0  0.91171  0.75739  0.35070  1.0000
  N   N43       1.0  0.90224  0.74588  0.50617  1.0000
  C   C416      1.0  0.88686  0.74406  0.58408  1.0000
  C   C417      1.0  0.85720  0.74504  0.58254  1.0000
  N   N44       1.0  0.84580  0.74843  0.50245  1.0000
  H   H307      1.0  0.90018  0.71727  0.66464  1.0000
  C   C418      1.0  0.84149  0.74724  0.66586  1.0000
  H   H308      1.0  0.81525  0.73764  0.65596  1.0000
  C   C419      1.0  0.74646  0.59313  0.34371  1.0000
  C   C420      1.0  0.75293  0.61132  0.42397  1.0000
  C   C421      1.0  0.75404  0.64211  0.42623  1.0000
  C   C422      1.0  0.74654  0.65511  0.35057  1.0000
  N   N45       1.0  0.75800  0.65714  0.50610  1.0000
  C   C423      1.0  0.75979  0.64356  0.58401  1.0000
  C   C424      1.0  0.75880  0.61291  0.58248  1.0000
  N   N46       1.0  0.75541  0.59813  0.50240  1.0000
  H   H309      1.0  0.78658  0.68367  0.66460  1.0000
  C   C425      1.0  0.75658  0.59500  0.66581  1.0000
  H   H310      1.0  0.76618  0.57836  0.65593  1.0000
  C   C426      1.0  0.91071  0.65411  0.34372  1.0000
  C   C427      1.0  0.89252  0.64238  0.42398  1.0000
  C   C428      1.0  0.86173  0.61268  0.42624  1.0000
  C   C429      1.0  0.84875  0.59215  0.35064  1.0000
  N   N47       1.0  0.84671  0.60162  0.50611  1.0000
  C   C430      1.0  0.86027  0.61699  0.58402  1.0000
  C   C431      1.0  0.89091  0.64665  0.58249  1.0000
  N   N48       1.0  0.90570  0.65806  0.50241  1.0000
  H   H311      1.0  0.82015  0.60365  0.66458  1.0000
  C   C432      1.0  0.90882  0.66236  0.66582  1.0000
  H   H312      1.0  0.92546  0.68859  0.65593  1.0000
