data_image0
_chemical_formula_structural       CNC2NC4NC18H14C2NC16H12C3NC2NC5NC4NC18H14CNC16H12C11H11CNCNC4NC16H13C2H2CH3CH3C2H2CH3CH3C2H2CH3CH3C2H2CH3CH3C2H2CH3CH3C2H2CH3CH3C2H2C2H3C2H3C2H2C2H3C2H3C2H2C2H3C2H3C2H2C2H3C2H3C2H2C2H3C2H3C2H2C2H3C2H3C7NC12H12C2NC3NC3NC18H14C12H12C3NC3NC3NC18H14C3NC3NC2NC5NC20H15C8NC14H13C4NC2NCH2CH2C4NC2NCH2CH2C4NC2NCH2CH2C4NC2NCH2CH2C4NC2NCH2CH2C4NC2NCH2CH2C4NC2NH4C4NC2NH4C4NC2NH4C4NC2NH4C4NC2NH4C4NC2NH4
_chemical_formula_sum              "C408 N48 H300"
_cell_length_a       57.2106
_cell_length_b       57.2106
_cell_length_c       15.0283
_cell_angle_alpha    90.0018
_cell_angle_beta     89.9654
_cell_angle_gamma    120

_space_group_name_H-M_alt    "P 1"
_space_group_IT_number       1

loop_
  _space_group_symop_operation_xyz
  'x, y, z'

loop_
  _atom_site_type_symbol
  _atom_site_label
  _atom_site_symmetry_multiplicity
  _atom_site_fract_x
  _atom_site_fract_y
  _atom_site_fract_z
  _atom_site_occupancy
  C   C1        1.0  0.28417  0.52488  0.39021  1.0000
  N   N1        1.0  0.27562  0.48522  0.34114  1.0000
  C   C2        1.0  0.30268  0.49956  0.35422  1.0000
  C   C3        1.0  0.32271  0.49274  0.33172  1.0000
  N   N2        1.0  0.29220  0.44300  0.32852  1.0000
  C   C4        1.0  0.29375  0.42043  0.31513  1.0000
  C   C5        1.0  0.32077  0.42939  0.29457  1.0000
  C   C6        1.0  0.33435  0.45718  0.29115  1.0000
  C   C7        1.0  0.27270  0.39322  0.32635  1.0000
  N   N3        1.0  0.23305  0.40083  0.32899  1.0000
  C   C8        1.0  0.20593  0.38622  0.34160  1.0000
  C   C9        1.0  0.22415  0.35971  0.35908  1.0000
  C   C10       1.0  0.21548  0.46640  0.32589  1.0000
  C   C11       1.0  0.23633  0.49309  0.34444  1.0000
  C   C12       1.0  0.22967  0.51407  0.34578  1.0000
  C   C13       1.0  0.22253  0.52210  0.26631  1.0000
  C   C14       1.0  0.21696  0.54340  0.26629  1.0000
  C   C15       1.0  0.21990  0.55874  0.34398  1.0000
  C   C16       1.0  0.14595  0.35134  0.28137  1.0000
  C   C17       1.0  0.11853  0.33170  0.29103  1.0000
  C   C18       1.0  0.28003  0.37267  0.33077  1.0000
  C   C19       1.0  0.29784  0.33375  0.34484  1.0000
  C   C20       1.0  0.30197  0.34923  0.26639  1.0000
  C   C21       1.0  0.29197  0.36711  0.25759  1.0000
  C   C22       1.0  0.35030  0.51421  0.32632  1.0000
  C   C23       1.0  0.35731  0.53705  0.27239  1.0000
  C   C24       1.0  0.38320  0.55995  0.27665  1.0000
  C   C25       1.0  0.40410  0.56040  0.32890  1.0000
  H   H1        1.0  0.38617  0.57668  0.24260  1.0000
  H   H2        1.0  0.34298  0.53798  0.23418  1.0000
  H   H3        1.0  0.28293  0.54143  0.40800  1.0000
  H   H4        1.0  0.26687  0.46838  0.30873  1.0000
  H   H5        1.0  0.24214  0.41890  0.30499  1.0000
  H   H6        1.0  0.35447  0.46883  0.27780  1.0000
  H   H7        1.0  0.32979  0.41816  0.28315  1.0000
  H   H8        1.0  0.29523  0.37752  0.19919  1.0000
  H   H9        1.0  0.31302  0.34832  0.21452  1.0000
  H   H10       1.0  0.22519  0.34257  0.36770  1.0000
  H   H11       1.0  0.15710  0.34870  0.23330  1.0000
  H   H12       1.0  0.11092  0.31520  0.25024  1.0000
  H   H13       1.0  0.21146  0.54802  0.20732  1.0000
  H   H14       1.0  0.22131  0.51245  0.20764  1.0000
  C   C26       1.0  0.54005  0.75900  0.39302  1.0000
  C   C27       1.0  0.56536  0.80277  0.35673  1.0000
  N   N4        1.0  0.62179  0.84876  0.32929  1.0000
  C   C28       1.0  0.64435  0.87286  0.31545  1.0000
  C   C29       1.0  0.63535  0.89086  0.29435  1.0000
  C   C30       1.0  0.60756  0.87662  0.29116  1.0000
  C   C31       1.0  0.67154  0.87903  0.32678  1.0000
  C   C32       1.0  0.67855  0.81926  0.34180  1.0000
  C   C33       1.0  0.70504  0.86399  0.35937  1.0000
  C   C34       1.0  0.59831  0.74865  0.32680  1.0000
  C   C35       1.0  0.54259  0.70013  0.26681  1.0000
  C   C36       1.0  0.52130  0.67325  0.26663  1.0000
  C   C37       1.0  0.71339  0.79410  0.28175  1.0000
  C   C38       1.0  0.73302  0.78631  0.29137  1.0000
  C   C39       1.0  0.69209  0.90691  0.33108  1.0000
  C   C40       1.0  0.71554  0.95226  0.26653  1.0000
  C   C41       1.0  0.69768  0.92437  0.25780  1.0000
  C   C42       1.0  0.52768  0.81955  0.27375  1.0000
  C   C43       1.0  0.50479  0.82256  0.27770  1.0000
  H   H15       1.0  0.48804  0.80874  0.24388  1.0000
  H   H16       1.0  0.52676  0.80423  0.23591  1.0000
  H   H17       1.0  0.52333  0.74115  0.40928  1.0000
  H   H18       1.0  0.59589  0.88503  0.27728  1.0000
  H   H19       1.0  0.64657  0.91108  0.28248  1.0000
  H   H20       1.0  0.68726  0.91721  0.19946  1.0000
  H   H21       1.0  0.71643  0.96421  0.21466  1.0000
  H   H22       1.0  0.72220  0.88217  0.36795  1.0000
  H   H23       1.0  0.71605  0.80789  0.23367  1.0000
  H   H24       1.0  0.74952  0.79518  0.25056  1.0000
  H   H25       1.0  0.51670  0.66316  0.20758  1.0000
  H   H26       1.0  0.55225  0.70860  0.20817  1.0000
  C   C44       1.0  0.28155  0.75676  0.38993  1.0000
  C   C45       1.0  0.30587  0.78054  0.39092  1.0000
  C   C46       1.0  0.30157  0.80114  0.36024  1.0000
  N   N5        1.0  0.27478  0.78913  0.34185  1.0000
  C   C47       1.0  0.26208  0.76206  0.35474  1.0000
  C   C48       1.0  0.23529  0.74205  0.33163  1.0000
  N   N6        1.0  0.21606  0.77255  0.32800  1.0000
  C   C49       1.0  0.19195  0.77102  0.31429  1.0000
  C   C50       1.0  0.17391  0.74399  0.29386  1.0000
  C   C51       1.0  0.18812  0.73041  0.29071  1.0000
  C   C52       1.0  0.18578  0.79205  0.32563  1.0000
  C   C53       1.0  0.20584  0.81967  0.33782  1.0000
  N   N7        1.0  0.23302  0.83176  0.32776  1.0000
  C   C54       1.0  0.24554  0.85887  0.34056  1.0000
  C   C55       1.0  0.22507  0.86437  0.36252  1.0000
  C   C56       1.0  0.20078  0.84062  0.35756  1.0000
  C   C57       1.0  0.27327  0.87866  0.33030  1.0000
  N   N8        1.0  0.29201  0.84786  0.33508  1.0000
  C   C58       1.0  0.31621  0.84927  0.32660  1.0000
  C   C59       1.0  0.32199  0.82835  0.34464  1.0000
  C   C60       1.0  0.34962  0.83498  0.34596  1.0000
  C   C61       1.0  0.36479  0.84210  0.26647  1.0000
  C   C62       1.0  0.39166  0.84765  0.26643  1.0000
  C   C63       1.0  0.40404  0.84471  0.34414  1.0000
  C   C64       1.0  0.28126  0.90667  0.33788  1.0000
  C   C65       1.0  0.27081  0.91891  0.28097  1.0000
  C   C66       1.0  0.27857  0.94632  0.29073  1.0000
  C   C67       1.0  0.29838  0.96308  0.35373  1.0000
  C   C68       1.0  0.15790  0.78471  0.33010  1.0000
  C   C69       1.0  0.10116  0.76691  0.34425  1.0000
  C   C70       1.0  0.11253  0.76278  0.26581  1.0000
  C   C71       1.0  0.14041  0.77277  0.25697  1.0000
  C   C72       1.0  0.22917  0.71447  0.32623  1.0000
  C   C73       1.0  0.24504  0.70749  0.27236  1.0000
  C   C74       1.0  0.24206  0.68160  0.27672  1.0000
  C   C75       1.0  0.22156  0.66068  0.32881  1.0000
  H   H27       1.0  0.25582  0.67863  0.24267  1.0000
  H   H28       1.0  0.26034  0.72185  0.23431  1.0000
  H   H29       1.0  0.32368  0.78172  0.40790  1.0000
  H   H30       1.0  0.26687  0.79790  0.30855  1.0000
  H   H31       1.0  0.24211  0.82259  0.30542  1.0000
  H   H32       1.0  0.17967  0.71030  0.27721  1.0000
  H   H33       1.0  0.15367  0.73497  0.28237  1.0000
  H   H34       1.0  0.14755  0.76949  0.19859  1.0000
  H   H35       1.0  0.10057  0.75170  0.21402  1.0000
  H   H36       1.0  0.18258  0.83957  0.36612  1.0000
  H   H37       1.0  0.25710  0.90781  0.23267  1.0000
  H   H38       1.0  0.26976  0.95396  0.24976  1.0000
  H   H39       1.0  0.40181  0.85316  0.20745  1.0000
  H   H40       1.0  0.35638  0.84333  0.20779  1.0000
  C   C76       1.0  0.78399  0.54333  0.35537  1.0000
  N   N9        1.0  0.79446  0.59989  0.32951  1.0000
  C   C77       1.0  0.79292  0.62247  0.31595  1.0000
  C   C78       1.0  0.76590  0.61350  0.29550  1.0000
  C   C79       1.0  0.75230  0.58571  0.29258  1.0000
  C   C80       1.0  0.81398  0.64967  0.32706  1.0000
  C   C81       1.0  0.88077  0.65669  0.34166  1.0000
  C   C82       1.0  0.86255  0.68322  0.35890  1.0000
  C   C83       1.0  0.87122  0.57646  0.32706  1.0000
  C   C84       1.0  0.86411  0.52074  0.26694  1.0000
  C   C85       1.0  0.86963  0.49940  0.26686  1.0000
  C   C86       1.0  0.94077  0.69149  0.28138  1.0000
  C   C87       1.0  0.96818  0.71114  0.29099  1.0000
  C   C88       1.0  0.80666  0.67024  0.33134  1.0000
  C   C89       1.0  0.78471  0.69362  0.26682  1.0000
  C   C90       1.0  0.79477  0.67579  0.25805  1.0000
  C   C91       1.0  0.72937  0.50588  0.27340  1.0000
  C   C92       1.0  0.70347  0.48299  0.27763  1.0000
  H   H41       1.0  0.70050  0.46628  0.24350  1.0000
  H   H42       1.0  0.74371  0.50496  0.23515  1.0000
  H   H43       1.0  0.80365  0.50133  0.40804  1.0000
  H   H44       1.0  0.73223  0.57405  0.27852  1.0000
  H   H45       1.0  0.75691  0.62474  0.28377  1.0000
  H   H46       1.0  0.79144  0.66530  0.19982  1.0000
  H   H47       1.0  0.77363  0.69448  0.21499  1.0000
  H   H48       1.0  0.86151  0.70037  0.36755  1.0000
  H   H49       1.0  0.92964  0.69410  0.23324  1.0000
  H   H50       1.0  0.97580  0.72760  0.25004  1.0000
  H   H51       1.0  0.87517  0.49479  0.20790  1.0000
  H   H52       1.0  0.86537  0.53041  0.20829  1.0000
  C   C93       1.0  0.44235  0.17006  0.31611  1.0000
  C   C94       1.0  0.45132  0.15201  0.29550  1.0000
  C   C95       1.0  0.47911  0.16622  0.29212  1.0000
  C   C96       1.0  0.54402  0.34294  0.26737  1.0000
  C   C97       1.0  0.56531  0.36981  0.26734  1.0000
  C   C98       1.0  0.37326  0.24874  0.28212  1.0000
  C   C99       1.0  0.35361  0.25651  0.29164  1.0000
  C   C100      1.0  0.37119  0.09071  0.26681  1.0000
  C   C101      1.0  0.38907  0.11859  0.25821  1.0000
  C   C102      1.0  0.55897  0.22314  0.27341  1.0000
  C   C103      1.0  0.58186  0.22014  0.27759  1.0000
  H   H53       1.0  0.59859  0.23390  0.24354  1.0000
  H   H54       1.0  0.55990  0.23841  0.23526  1.0000
  H   H55       1.0  0.56333  0.30185  0.40916  1.0000
  H   H56       1.0  0.49076  0.15776  0.27874  1.0000
  H   H57       1.0  0.39950  0.12580  0.19988  1.0000
  H   H58       1.0  0.37031  0.07879  0.21485  1.0000
  H   H59       1.0  0.36448  0.16075  0.36875  1.0000
  H   H60       1.0  0.37064  0.23495  0.23411  1.0000
  H   H61       1.0  0.33713  0.24762  0.25082  1.0000
  H   H62       1.0  0.56995  0.37996  0.20837  1.0000
  H   H63       1.0  0.53438  0.33452  0.20869  1.0000
  C   C104      1.0  0.78092  0.26230  0.39321  1.0000
  N   N10       1.0  0.81201  0.25369  0.34395  1.0000
  C   C105      1.0  0.82468  0.28076  0.35679  1.0000
  N   N11       1.0  0.87066  0.27033  0.32917  1.0000
  C   C106      1.0  0.89476  0.27187  0.31525  1.0000
  C   C107      1.0  0.91276  0.29887  0.29415  1.0000
  C   C108      1.0  0.89853  0.31242  0.29102  1.0000
  C   C109      1.0  0.90093  0.25084  0.32653  1.0000
  N   N12       1.0  0.85368  0.21117  0.32893  1.0000
  C   C110      1.0  0.84115  0.18406  0.34165  1.0000
  C   C111      1.0  0.88589  0.20229  0.35913  1.0000
  C   C112      1.0  0.77055  0.19370  0.32692  1.0000
  C   C113      1.0  0.76477  0.21459  0.34550  1.0000
  C   C114      1.0  0.72203  0.20092  0.26714  1.0000
  C   C115      1.0  0.69515  0.19532  0.26705  1.0000
  C   C116      1.0  0.68269  0.19819  0.34476  1.0000
  C   C117      1.0  0.81599  0.12407  0.28160  1.0000
  C   C118      1.0  0.80819  0.09664  0.29119  1.0000
  C   C119      1.0  0.92881  0.25817  0.33087  1.0000
  C   C120      1.0  0.98554  0.27598  0.34480  1.0000
  C   C121      1.0  0.97417  0.28006  0.26635  1.0000
  C   C122      1.0  0.94629  0.27006  0.25760  1.0000
  C   C123      1.0  0.85746  0.32835  0.32722  1.0000
  C   C124      1.0  0.84146  0.33525  0.27384  1.0000
  C   C125      1.0  0.84447  0.36115  0.27784  1.0000
  H   H64       1.0  0.83064  0.36408  0.24406  1.0000
  H   H65       1.0  0.82613  0.32085  0.23600  1.0000
  H   H66       1.0  0.76307  0.26117  0.40955  1.0000
  H   H67       1.0  0.81985  0.24513  0.30915  1.0000
  H   H68       1.0  0.90694  0.33251  0.27716  1.0000
  H   H69       1.0  0.93298  0.30787  0.28222  1.0000
  H   H70       1.0  0.93913  0.27332  0.19925  1.0000
  H   H71       1.0  0.98612  0.29112  0.21447  1.0000
  H   H72       1.0  0.90407  0.20332  0.36767  1.0000
  H   H73       1.0  0.82978  0.13522  0.23351  1.0000
  H   H74       1.0  0.81707  0.08903  0.25036  1.0000
  H   H75       1.0  0.68505  0.18984  0.20803  1.0000
  H   H76       1.0  0.73049  0.19975  0.20846  1.0000
  C   C126      1.0  0.22666  0.59955  0.26450  1.0000
  C   C127      1.0  0.22644  0.62394  0.26019  1.0000
  H   H77       1.0  0.23235  0.63434  0.20149  1.0000
  H   H78       1.0  0.23426  0.59463  0.21068  1.0000
  C   C128      1.0  0.19302  0.56769  0.04955  1.0000
  H   H79       1.0  0.19500  0.58479  0.08743  1.0000
  H   H80       1.0  0.21308  0.57111  0.03298  1.0000
  H   H81       1.0  0.18283  0.54981  0.09165  1.0000
  C   C129      1.0  0.16049  0.61452  0.00152  1.0000
  H   H82       1.0  0.20166  0.62478  0.03136  1.0000
  H   H83       1.0  0.15929  0.62906  0.04562  1.0000
  H   H84       1.0  0.15237  0.59551  0.03746  1.0000
  C   C130      1.0  0.46520  0.62669  0.26472  1.0000
  C   C131      1.0  0.44085  0.60204  0.26033  1.0000
  H   H85       1.0  0.43047  0.59756  0.20162  1.0000
  H   H86       1.0  0.47012  0.63922  0.21093  1.0000
  C   C132      1.0  0.49701  0.62494  0.04967  1.0000
  H   H87       1.0  0.47991  0.60982  0.08754  1.0000
  H   H88       1.0  0.49359  0.64157  0.03303  1.0000
  H   H89       1.0  0.51488  0.63266  0.09184  1.0000
  C   C133      1.0  0.45031  0.54553  0.00153  1.0000
  H   H90       1.0  0.43998  0.57639  0.03149  1.0000
  H   H91       1.0  0.43577  0.52977  0.04559  1.0000
  H   H92       1.0  0.46931  0.55642  0.03750  1.0000
  C   C134      1.0  0.43814  0.83798  0.26479  1.0000
  C   C135      1.0  0.46276  0.83820  0.26057  1.0000
  H   H93       1.0  0.46725  0.83224  0.20199  1.0000
  H   H94       1.0  0.42562  0.83034  0.21101  1.0000
  C   C136      1.0  0.43988  0.87176  0.04967  1.0000
  H   H95       1.0  0.45499  0.86982  0.08765  1.0000
  H   H96       1.0  0.42326  0.85169  0.03319  1.0000
  H   H97       1.0  0.43214  0.88194  0.09167  1.0000
  C   C137      1.0  0.51928  0.90439  0.00142  1.0000
  H   H98       1.0  0.48838  0.86323  0.03167  1.0000
  H   H99       1.0  0.53501  0.90562  0.04560  1.0000
  H   H100      1.0  0.50839  0.91254  0.03719  1.0000
  C   C138      1.0  0.85989  0.44322  0.26513  1.0000
  C   C139      1.0  0.86011  0.41883  0.26084  1.0000
  H   H101      1.0  0.85416  0.40840  0.20223  1.0000
  H   H102      1.0  0.85229  0.44814  0.21134  1.0000
  C   C140      1.0  0.89361  0.47516  0.04996  1.0000
  H   H103      1.0  0.89159  0.45806  0.08786  1.0000
  H   H104      1.0  0.87357  0.47177  0.03338  1.0000
  H   H105      1.0  0.90379  0.49304  0.09207  1.0000
  C   C141      1.0  0.92620  0.42837  0.00197  1.0000
  H   H106      1.0  0.88501  0.41808  0.03187  1.0000
  H   H107      1.0  0.92740  0.41383  0.04603  1.0000
  H   H108      1.0  0.93430  0.44736  0.03795  1.0000
  C   C142      1.0  0.62145  0.41631  0.26555  1.0000
  C   C143      1.0  0.64583  0.44093  0.26125  1.0000
  H   H109      1.0  0.65623  0.44544  0.20253  1.0000
  H   H110      1.0  0.61654  0.40380  0.21172  1.0000
  C   C144      1.0  0.58952  0.41802  0.05057  1.0000
  H   H111      1.0  0.60660  0.43313  0.08850  1.0000
  H   H112      1.0  0.59295  0.40139  0.03403  1.0000
  H   H113      1.0  0.57162  0.41031  0.09264  1.0000
  C   C145      1.0  0.63636  0.49739  0.00260  1.0000
  H   H114      1.0  0.64661  0.46647  0.03247  1.0000
  H   H115      1.0  0.65089  0.51311  0.04674  1.0000
  H   H116      1.0  0.61734  0.48649  0.03849  1.0000
  C   C146      1.0  0.64858  0.20485  0.26532  1.0000
  C   C147      1.0  0.62394  0.20456  0.26102  1.0000
  H   H117      1.0  0.61945  0.21047  0.20235  1.0000
  H   H118      1.0  0.66110  0.21247  0.21150  1.0000
  C   C148      1.0  0.64688  0.17122  0.05027  1.0000
  H   H119      1.0  0.63176  0.17317  0.08821  1.0000
  H   H120      1.0  0.66349  0.19130  0.03367  1.0000
  H   H121      1.0  0.65463  0.16108  0.09235  1.0000
  C   C149      1.0  0.56746  0.13851  0.00211  1.0000
  H   H122      1.0  0.59833  0.17968  0.03224  1.0000
  H   H123      1.0  0.55171  0.13727  0.04625  1.0000
  H   H124      1.0  0.57836  0.13038  0.03794  1.0000
  C   C150      1.0  0.03013  0.29035  0.27669  1.0000
  C   C151      1.0  0.05843  0.30510  0.27816  1.0000
  H   H125      1.0  0.06822  0.30841  0.21881  1.0000
  H   H126      1.0  0.02115  0.28266  0.21676  1.0000
  C   C152      1.0  0.01032  0.29552  0.00641  1.0000
  C   C153      1.0  0.99447  0.26481  0.02470  1.0000
  H   H127      1.0  0.02147  0.30558  0.06646  1.0000
  H   H128      1.0  0.98123  0.26057  0.08201  1.0000
  H   H129      1.0  0.00837  0.25743  0.03895  1.0000
  C   C154      1.0  0.07396  0.32338  0.01146  1.0000
  C   C155      1.0  0.07893  0.35078  0.04776  1.0000
  H   H130      1.0  0.06460  0.30779  0.06228  1.0000
  H   H131      1.0  0.09142  0.35609  0.10748  1.0000
  H   H132      1.0  0.06002  0.34998  0.06491  1.0000
  C   C156      1.0  0.77438  0.73927  0.27701  1.0000
  C   C157      1.0  0.75962  0.75281  0.27848  1.0000
  H   H133      1.0  0.75632  0.75929  0.21913  1.0000
  H   H134      1.0  0.78212  0.73801  0.21711  1.0000
  C   C158      1.0  0.76927  0.71436  0.00679  1.0000
  C   C159      1.0  0.79997  0.72915  0.02503  1.0000
  H   H135      1.0  0.75922  0.71549  0.06686  1.0000
  H   H136      1.0  0.80418  0.72015  0.08237  1.0000
  H   H137      1.0  0.80741  0.75045  0.03920  1.0000
  C   C160      1.0  0.74133  0.75007  0.01179  1.0000
  C   C161      1.0  0.71395  0.72762  0.04812  1.0000
  H   H138      1.0  0.75692  0.75635  0.06260  1.0000
  H   H139      1.0  0.70860  0.73479  0.10783  1.0000
  H   H140      1.0  0.71479  0.70954  0.06529  1.0000
  C   C162      1.0  0.32555  0.03472  0.27688  1.0000
  C   C163      1.0  0.31205  0.00642  0.27822  1.0000
  H   H141      1.0  0.30558  0.99667  0.21883  1.0000
  H   H142      1.0  0.32683  0.04374  0.21701  1.0000
  C   C164      1.0  0.35038  0.05437  0.00671  1.0000
  C   C165      1.0  0.33558  0.07028  0.02499  1.0000
  H   H143      1.0  0.34923  0.04318  0.06674  1.0000
  H   H144      1.0  0.34455  0.08347  0.08238  1.0000
  H   H145      1.0  0.31428  0.05641  0.03911  1.0000
  C   C166      1.0  0.31463  0.99073  0.01147  1.0000
  C   C167      1.0  0.33705  0.98577  0.04782  1.0000
  H   H146      1.0  0.30833  0.00002  0.06230  1.0000
  H   H147      1.0  0.32984  0.97323  0.10748  1.0000
  H   H148      1.0  0.35513  0.00468  0.06510  1.0000
  C   C168      1.0  0.05657  0.75248  0.27633  1.0000
  C   C169      1.0  0.02827  0.73775  0.27796  1.0000
  H   H149      1.0  0.01848  0.73442  0.21865  1.0000
  H   H150      1.0  0.06555  0.76018  0.21637  1.0000
  C   C170      1.0  0.07653  0.74745  0.00602  1.0000
  C   C171      1.0  0.09244  0.77816  0.02426  1.0000
  H   H151      1.0  0.06538  0.73740  0.06611  1.0000
  H   H152      1.0  0.10567  0.78237  0.08151  1.0000
  H   H153      1.0  0.07858  0.78558  0.03857  1.0000
  C   C172      1.0  0.01290  0.71963  0.01136  1.0000
  C   C173      1.0  0.00790  0.69223  0.04764  1.0000
  H   H154      1.0  0.02226  0.73522  0.06215  1.0000
  H   H155      1.0  0.99541  0.68692  0.10741  1.0000
  H   H156      1.0  0.02681  0.69301  0.06471  1.0000
  C   C174      1.0  0.31225  0.30354  0.27689  1.0000
  C   C175      1.0  0.32701  0.29000  0.27849  1.0000
  H   H157      1.0  0.33034  0.28352  0.21919  1.0000
  H   H158      1.0  0.30458  0.30483  0.21693  1.0000
  C   C176      1.0  0.31735  0.32861  0.00652  1.0000
  C   C177      1.0  0.28664  0.31374  0.02483  1.0000
  H   H159      1.0  0.32742  0.32755  0.06660  1.0000
  H   H160      1.0  0.28238  0.32274  0.08209  1.0000
  H   H161      1.0  0.27927  0.29246  0.03919  1.0000
  C   C178      1.0  0.34520  0.29283  0.01186  1.0000
  C   C179      1.0  0.37260  0.31525  0.04810  1.0000
  H   H162      1.0  0.32960  0.28661  0.06267  1.0000
  H   H163      1.0  0.37789  0.30807  0.10788  1.0000
  H   H164      1.0  0.37181  0.33336  0.06515  1.0000
  C   C180      1.0  0.76116  0.00825  0.27683  1.0000
  C   C181      1.0  0.77470  0.03655  0.27829  1.0000
  H   H165      1.0  0.78118  0.04633  0.21893  1.0000
  H   H166      1.0  0.75991  0.99926  0.21693  1.0000
  C   C182      1.0  0.73627  0.98845  0.00662  1.0000
  C   C183      1.0  0.75108  0.97255  0.02483  1.0000
  H   H167      1.0  0.73739  0.99961  0.06668  1.0000
  H   H168      1.0  0.74208  0.95933  0.08216  1.0000
  H   H169      1.0  0.77237  0.98642  0.03901  1.0000
  C   C184      1.0  0.77199  0.05209  0.01159  1.0000
  C   C185      1.0  0.74954  0.05702  0.04796  1.0000
  H   H170      1.0  0.77826  0.04278  0.06239  1.0000
  H   H171      1.0  0.75671  0.06953  0.10766  1.0000
  H   H172      1.0  0.73145  0.03810  0.06516  1.0000
  C   C186      1.0  0.30795  0.52433  0.38940  1.0000
  C   C187      1.0  0.26356  0.49993  0.35987  1.0000
  C   C188      1.0  0.31632  0.46570  0.31610  1.0000
  C   C189      1.0  0.24510  0.38569  0.33882  1.0000
  C   C190      1.0  0.20043  0.36029  0.36431  1.0000
  C   C191      1.0  0.18613  0.39410  0.33057  1.0000
  C   C192      1.0  0.19279  0.42137  0.31886  1.0000
  N   N13       1.0  0.21689  0.44363  0.33465  1.0000
  C   C193      1.0  0.18875  0.45821  0.30400  1.0000
  C   C194      1.0  0.17492  0.43047  0.29747  1.0000
  C   C195      1.0  0.22740  0.55057  0.42307  1.0000
  C   C196      1.0  0.23111  0.52805  0.42489  1.0000
  C   C197      1.0  0.15812  0.37407  0.33809  1.0000
  C   C198      1.0  0.10171  0.33479  0.35378  1.0000
  C   C199      1.0  0.11402  0.35822  0.40791  1.0000
  C   C200      1.0  0.14178  0.37676  0.40317  1.0000
  C   C201      1.0  0.27613  0.35774  0.40974  1.0000
  C   C202      1.0  0.28328  0.33758  0.41425  1.0000
  C   C203      1.0  0.37095  0.51428  0.37807  1.0000
  C   C204      1.0  0.39748  0.53631  0.37575  1.0000
  H   H173      1.0  0.41179  0.53449  0.41055  1.0000
  H   H174      1.0  0.36685  0.49822  0.41821  1.0000
  H   H175      1.0  0.32623  0.54028  0.40721  1.0000
  H   H176      1.0  0.26721  0.36085  0.46405  1.0000
  H   H177      1.0  0.27783  0.32599  0.47019  1.0000
  H   H178      1.0  0.18209  0.34373  0.37739  1.0000
  H   H179      1.0  0.18018  0.47001  0.29602  1.0000
  H   H180      1.0  0.15478  0.41904  0.28383  1.0000
  H   H181      1.0  0.14974  0.39305  0.44506  1.0000
  H   H182      1.0  0.10286  0.36268  0.45042  1.0000
  H   H183      1.0  0.23662  0.52301  0.48345  1.0000
  H   H184      1.0  0.23149  0.56158  0.48022  1.0000
  C   C205      1.0  0.54066  0.78336  0.39266  1.0000
  C   C206      1.0  0.56492  0.76329  0.36197  1.0000
  N   N14       1.0  0.57977  0.79010  0.34388  1.0000
  C   C207      1.0  0.57206  0.82949  0.33281  1.0000
  C   C208      1.0  0.59907  0.85012  0.31650  1.0000
  C   C209      1.0  0.67908  0.85896  0.33907  1.0000
  N   N15       1.0  0.66396  0.83178  0.32909  1.0000
  C   C210      1.0  0.70449  0.83969  0.36422  1.0000
  C   C211      1.0  0.67063  0.79155  0.33100  1.0000
  C   C212      1.0  0.64334  0.77095  0.31972  1.0000
  N   N16       1.0  0.62110  0.77282  0.33567  1.0000
  C   C213      1.0  0.60646  0.73012  0.30440  1.0000
  C   C214      1.0  0.63422  0.74400  0.29807  1.0000
  C   C215      1.0  0.57162  0.74286  0.34531  1.0000
  C   C216      1.0  0.55060  0.71523  0.34641  1.0000
  C   C217      1.0  0.50595  0.66079  0.34429  1.0000
  C   C218      1.0  0.51408  0.67642  0.42346  1.0000
  C   C219      1.0  0.53664  0.70262  0.42551  1.0000
  C   C220      1.0  0.69064  0.78355  0.33848  1.0000
  C   C221      1.0  0.72992  0.76641  0.35415  1.0000
  C   C222      1.0  0.70646  0.75528  0.40826  1.0000
  C   C223      1.0  0.68792  0.76449  0.40347  1.0000
  C   C224      1.0  0.70702  0.91796  0.40999  1.0000
  C   C225      1.0  0.72715  0.94529  0.41445  1.0000
  C   C226      1.0  0.73100  0.96366  0.34497  1.0000
  C   C227      1.0  0.55056  0.83555  0.32720  1.0000
  C   C228      1.0  0.55050  0.85624  0.37840  1.0000
  C   C229      1.0  0.50436  0.84312  0.32937  1.0000
  C   C230      1.0  0.52845  0.86070  0.37589  1.0000
  H   H185      1.0  0.53028  0.87692  0.41028  1.0000
  H   H186      1.0  0.56659  0.86831  0.41825  1.0000
  H   H187      1.0  0.52455  0.78560  0.40890  1.0000
  H   H188      1.0  0.59619  0.79795  0.30912  1.0000
  H   H189      1.0  0.64581  0.82278  0.30586  1.0000
  H   H190      1.0  0.70389  0.90596  0.46436  1.0000
  H   H191      1.0  0.73874  0.95145  0.47037  1.0000
  H   H192      1.0  0.72102  0.83791  0.37763  1.0000
  H   H193      1.0  0.59463  0.70977  0.29566  1.0000
  H   H194      1.0  0.64563  0.73533  0.28347  1.0000
  H   H195      1.0  0.67162  0.75616  0.44539  1.0000
  H   H196      1.0  0.70198  0.73964  0.45071  1.0000
  H   H197      1.0  0.54164  0.71313  0.48413  1.0000
  H   H198      1.0  0.50307  0.66943  0.48063  1.0000
  C   C231      1.0  0.21466  0.74845  0.31555  1.0000
  C   C232      1.0  0.29391  0.87199  0.31946  1.0000
  C   C233      1.0  0.33477  0.87599  0.30467  1.0000
  C   C234      1.0  0.32089  0.88986  0.29822  1.0000
  C   C235      1.0  0.38835  0.83720  0.42323  1.0000
  C   C236      1.0  0.36214  0.83354  0.42510  1.0000
  C   C237      1.0  0.30944  0.95072  0.40795  1.0000
  C   C238      1.0  0.30018  0.92295  0.40323  1.0000
  C   C239      1.0  0.14687  0.78865  0.40902  1.0000
  C   C240      1.0  0.11954  0.78146  0.41361  1.0000
  C   C241      1.0  0.20855  0.69380  0.37791  1.0000
  C   C242      1.0  0.20406  0.66727  0.37559  1.0000
  H   H199      1.0  0.18788  0.65294  0.41027  1.0000
  H   H200      1.0  0.19656  0.69789  0.41796  1.0000
  H   H201      1.0  0.27923  0.73845  0.40727  1.0000
  H   H202      1.0  0.15889  0.79756  0.46330  1.0000
  H   H203      1.0  0.11339  0.78691  0.46955  1.0000
  H   H204      1.0  0.22682  0.88268  0.37595  1.0000
  H   H205      1.0  0.35513  0.88450  0.29601  1.0000
  H   H206      1.0  0.32957  0.90995  0.28375  1.0000
  H   H207      1.0  0.30848  0.91498  0.44517  1.0000
  H   H208      1.0  0.32501  0.96185  0.45058  1.0000
  H   H209      1.0  0.35157  0.82803  0.48365  1.0000
  H   H210      1.0  0.39528  0.83315  0.48044  1.0000
  C   C243      1.0  0.77869  0.51853  0.39035  1.0000
  C   C244      1.0  0.80246  0.51796  0.39088  1.0000
  C   C245      1.0  0.82307  0.54289  0.36041  1.0000
  N   N17       1.0  0.81105  0.55766  0.34216  1.0000
  C   C246      1.0  0.76397  0.55015  0.33281  1.0000
  C   C247      1.0  0.77035  0.57719  0.31718  1.0000
  C   C248      1.0  0.84159  0.65722  0.33913  1.0000
  N   N18       1.0  0.85367  0.64213  0.32887  1.0000
  C   C249      1.0  0.88629  0.68266  0.36370  1.0000
  C   C250      1.0  0.90056  0.64877  0.33090  1.0000
  C   C251      1.0  0.89390  0.62148  0.31961  1.0000
  N   N19       1.0  0.86979  0.59923  0.33545  1.0000
  C   C252      1.0  0.89794  0.58463  0.30519  1.0000
  C   C253      1.0  0.91177  0.61237  0.29838  1.0000
  C   C254      1.0  0.85032  0.54975  0.34517  1.0000
  C   C255      1.0  0.85696  0.52875  0.34645  1.0000
  C   C256      1.0  0.86665  0.48404  0.34452  1.0000
  C   C257      1.0  0.85913  0.49219  0.42364  1.0000
  C   C258      1.0  0.85549  0.51476  0.42555  1.0000
  C   C259      1.0  0.92857  0.66880  0.33834  1.0000
  C   C260      1.0  0.98499  0.70809  0.35382  1.0000
  C   C261      1.0  0.97266  0.68469  0.40814  1.0000
  C   C262      1.0  0.94489  0.66615  0.40351  1.0000
  C   C263      1.0  0.81056  0.68520  0.41020  1.0000
  C   C264      1.0  0.80339  0.70535  0.41459  1.0000
  C   C265      1.0  0.78882  0.70914  0.34517  1.0000
  C   C266      1.0  0.73637  0.52869  0.32744  1.0000
  C   C267      1.0  0.71571  0.52861  0.37923  1.0000
  C   C268      1.0  0.68256  0.48253  0.32992  1.0000
  C   C269      1.0  0.68918  0.50659  0.37688  1.0000
  H   H211      1.0  0.67486  0.50842  0.41166  1.0000
  H   H212      1.0  0.71981  0.54465  0.41941  1.0000
  H   H213      1.0  0.76039  0.50253  0.40771  1.0000
  H   H214      1.0  0.81981  0.57452  0.30984  1.0000
  H   H215      1.0  0.84449  0.62388  0.30640  1.0000
  H   H216      1.0  0.81949  0.68212  0.46451  1.0000
  H   H217      1.0  0.80882  0.71696  0.47047  1.0000
  H   H218      1.0  0.90461  0.69921  0.37703  1.0000
  H   H219      1.0  0.90649  0.57281  0.29681  1.0000
  H   H220      1.0  0.93190  0.62379  0.28444  1.0000
  H   H221      1.0  0.93693  0.64988  0.44555  1.0000
  H   H222      1.0  0.98381  0.68025  0.45072  1.0000
  H   H223      1.0  0.84995  0.51978  0.48409  1.0000
  H   H224      1.0  0.85506  0.48119  0.48081  1.0000
  C   C270      1.0  0.54624  0.25974  0.39054  1.0000
  C   C271      1.0  0.54678  0.28407  0.39136  1.0000
  C   C272      1.0  0.52184  0.27974  0.36099  1.0000
  N   N20       1.0  0.50714  0.25297  0.34224  1.0000
  C   C273      1.0  0.52148  0.24025  0.35533  1.0000
  C   C274      1.0  0.51466  0.21341  0.33279  1.0000
  C   C275      1.0  0.48762  0.19276  0.31714  1.0000
  N   N21       1.0  0.46492  0.19418  0.32957  1.0000
  C   C276      1.0  0.41514  0.16390  0.32730  1.0000
  C   C277      1.0  0.40761  0.18396  0.33984  1.0000
  N   N22       1.0  0.42275  0.21115  0.33003  1.0000
  C   C278      1.0  0.40814  0.22366  0.34261  1.0000
  C   C279      1.0  0.38221  0.20323  0.36535  1.0000
  C   C280      1.0  0.38163  0.17893  0.36014  1.0000
  C   C281      1.0  0.41602  0.25134  0.33152  1.0000
  C   C282      1.0  0.44330  0.27196  0.31984  1.0000
  N   N23       1.0  0.46554  0.27011  0.33569  1.0000
  C   C283      1.0  0.48832  0.29430  0.32694  1.0000
  C   C284      1.0  0.48014  0.31283  0.30498  1.0000
  C   C285      1.0  0.45239  0.29892  0.29840  1.0000
  C   C286      1.0  0.51500  0.30013  0.34554  1.0000
  C   C287      1.0  0.53599  0.32777  0.34685  1.0000
  C   C288      1.0  0.58064  0.38221  0.34503  1.0000
  C   C289      1.0  0.57247  0.36652  0.42413  1.0000
  C   C290      1.0  0.54995  0.34029  0.42596  1.0000
  C   C291      1.0  0.39598  0.25931  0.33890  1.0000
  C   C292      1.0  0.35667  0.27642  0.35431  1.0000
  C   C293      1.0  0.38009  0.28756  0.40848  1.0000
  C   C294      1.0  0.39864  0.27834  0.40389  1.0000
  C   C295      1.0  0.39458  0.13602  0.33154  1.0000
  C   C296      1.0  0.37963  0.12492  0.41043  1.0000
  C   C297      1.0  0.35947  0.09760  0.41473  1.0000
  C   C298      1.0  0.35567  0.07927  0.34518  1.0000
  C   C299      1.0  0.53613  0.20729  0.32734  1.0000
  C   C300      1.0  0.53620  0.18669  0.37903  1.0000
  C   C301      1.0  0.58231  0.19967  0.32975  1.0000
  C   C302      1.0  0.55823  0.18218  0.37661  1.0000
  H   H225      1.0  0.55639  0.16603  0.41136  1.0000
  H   H226      1.0  0.52014  0.17472  0.41916  1.0000
  H   H227      1.0  0.56218  0.25739  0.40836  1.0000
  H   H228      1.0  0.49031  0.24490  0.30981  1.0000
  H   H229      1.0  0.44082  0.22014  0.30598  1.0000
  H   H230      1.0  0.44009  0.13177  0.28404  1.0000
  H   H231      1.0  0.38271  0.13690  0.46482  1.0000
  H   H232      1.0  0.34786  0.09140  0.47063  1.0000
  H   H233      1.0  0.36565  0.20501  0.37840  1.0000
  H   H234      1.0  0.49194  0.33321  0.29697  1.0000
  H   H235      1.0  0.44097  0.30764  0.28470  1.0000
  H   H236      1.0  0.41492  0.28669  0.44581  1.0000
  H   H237      1.0  0.38453  0.30318  0.45094  1.0000
  H   H238      1.0  0.54491  0.32974  0.48453  1.0000
  H   H239      1.0  0.58347  0.37345  0.48128  1.0000
  C   C303      1.0  0.80528  0.28605  0.39279  1.0000
  C   C304      1.0  0.78520  0.24173  0.36212  1.0000
  C   C305      1.0  0.85139  0.30078  0.33280  1.0000
  C   C306      1.0  0.87202  0.29440  0.31642  1.0000
  C   C307      1.0  0.88086  0.22323  0.33886  1.0000
  C   C308      1.0  0.86158  0.17855  0.36401  1.0000
  C   C309      1.0  0.81345  0.16428  0.33090  1.0000
  C   C310      1.0  0.79284  0.17097  0.31970  1.0000
  N   N24       1.0  0.79472  0.19508  0.33570  1.0000
  C   C311      1.0  0.75202  0.16703  0.30451  1.0000
  C   C312      1.0  0.76589  0.15315  0.29809  1.0000
  C   C313      1.0  0.73714  0.20799  0.34670  1.0000
  C   C314      1.0  0.69833  0.20567  0.42389  1.0000
  C   C315      1.0  0.72454  0.20931  0.42584  1.0000
  C   C316      1.0  0.80544  0.13626  0.33834  1.0000
  C   C317      1.0  0.78828  0.07984  0.35393  1.0000
  C   C318      1.0  0.77716  0.09215  0.40811  1.0000
  C   C319      1.0  0.78638  0.11991  0.40335  1.0000
  C   C320      1.0  0.93984  0.25428  0.40980  1.0000
  C   C321      1.0  0.96716  0.26145  0.41428  1.0000
  C   C322      1.0  0.87815  0.34908  0.37843  1.0000
  C   C323      1.0  0.86503  0.38212  0.32953  1.0000
  C   C324      1.0  0.88261  0.37560  0.37599  1.0000
  H   H240      1.0  0.89881  0.38997  0.41039  1.0000
  H   H241      1.0  0.89021  0.34505  0.41823  1.0000
  H   H242      1.0  0.80752  0.30440  0.40905  1.0000
  H   H243      1.0  0.84467  0.22033  0.30572  1.0000
  H   H244      1.0  0.92782  0.24539  0.46416  1.0000
  H   H245      1.0  0.97331  0.25602  0.47021  1.0000
  H   H246      1.0  0.85980  0.16023  0.37742  1.0000
  H   H247      1.0  0.73167  0.15852  0.29582  1.0000
  H   H248      1.0  0.75722  0.13307  0.28347  1.0000
  H   H249      1.0  0.77805  0.12787  0.44530  1.0000
  H   H250      1.0  0.76152  0.08099  0.45056  1.0000
  H   H251      1.0  0.73506  0.21482  0.48444  1.0000
  H   H252      1.0  0.69135  0.20968  0.48109  1.0000
  C   C325      1.0  0.21924  0.63435  0.33429  1.0000
  C   C326      1.0  0.21046  0.61779  0.41177  1.0000
  C   C327      1.0  0.20834  0.59196  0.41309  1.0000
  C   C328      1.0  0.21760  0.58274  0.34069  1.0000
  N   N25       1.0  0.19707  0.57656  0.48663  1.0000
  C   C329      1.0  0.18934  0.58417  0.56164  1.0000
  C   C330      1.0  0.19427  0.61110  0.56434  1.0000
  N   N26       1.0  0.20425  0.62591  0.48879  1.0000
  C   C331      1.0  0.17613  0.56304  0.63114  1.0000
  H   H253      1.0  0.17187  0.54353  0.60405  1.0000
  H   H254      1.0  0.15659  0.56075  0.64819  1.0000
  C   C332      1.0  0.19011  0.62518  0.64087  1.0000
  H   H255      1.0  0.19850  0.64653  0.62418  1.0000
  H   H256      1.0  0.14796  0.61166  0.60972  1.0000
  C   C333      1.0  0.43041  0.58443  0.33441  1.0000
  C   C334      1.0  0.44694  0.59222  0.41191  1.0000
  C   C335      1.0  0.47277  0.61595  0.41326  1.0000
  C   C336      1.0  0.48198  0.63445  0.34092  1.0000
  N   N27       1.0  0.48814  0.62009  0.48681  1.0000
  C   C337      1.0  0.48052  0.60475  0.56179  1.0000
  C   C338      1.0  0.45361  0.58273  0.56448  1.0000
  N   N28       1.0  0.43882  0.57789  0.48892  1.0000
  C   C339      1.0  0.50163  0.61270  0.63134  1.0000
  H   H257      1.0  0.52114  0.62796  0.60425  1.0000
  H   H258      1.0  0.50393  0.59547  0.64846  1.0000
  C   C340      1.0  0.43952  0.56446  0.64097  1.0000
  H   H259      1.0  0.41818  0.55148  0.62427  1.0000
  H   H260      1.0  0.45311  0.53589  0.60970  1.0000
  C   C341      1.0  0.48034  0.84543  0.33468  1.0000
  C   C342      1.0  0.47254  0.85423  0.41206  1.0000
  C   C343      1.0  0.44882  0.85633  0.41329  1.0000
  C   C344      1.0  0.43037  0.84706  0.34088  1.0000
  N   N29       1.0  0.44466  0.86760  0.48676  1.0000
  C   C345      1.0  0.45997  0.87534  0.56177  1.0000
  C   C346      1.0  0.48199  0.87044  0.56456  1.0000
  N   N30       1.0  0.48684  0.86046  0.48908  1.0000
  C   C347      1.0  0.45201  0.88854  0.63118  1.0000
  H   H261      1.0  0.43676  0.89278  0.60404  1.0000
  H   H262      1.0  0.46925  0.90810  0.64816  1.0000
  C   C348      1.0  0.50022  0.87465  0.64107  1.0000
  H   H263      1.0  0.51319  0.86626  0.62450  1.0000
  H   H264      1.0  0.52886  0.91678  0.60952  1.0000
  C   C349      1.0  0.86733  0.40844  0.33491  1.0000
  C   C350      1.0  0.87612  0.42501  0.41232  1.0000
  C   C351      1.0  0.87824  0.45084  0.41361  1.0000
  C   C352      1.0  0.86898  0.46006  0.34122  1.0000
  N   N31       1.0  0.88950  0.46624  0.48710  1.0000
  C   C353      1.0  0.89722  0.45863  0.56209  1.0000
  C   C354      1.0  0.89229  0.43171  0.56484  1.0000
  N   N32       1.0  0.88232  0.41690  0.48933  1.0000
  C   C355      1.0  0.91040  0.47976  0.63156  1.0000
  H   H265      1.0  0.91467  0.49927  0.60445  1.0000
  H   H266      1.0  0.92994  0.48204  0.64864  1.0000
  C   C356      1.0  0.89645  0.41763  0.64136  1.0000
  H   H267      1.0  0.88808  0.39628  0.62470  1.0000
  H   H268      1.0  0.93862  0.43120  0.61015  1.0000
  C   C357      1.0  0.65623  0.45851  0.33537  1.0000
  C   C358      1.0  0.63966  0.45071  0.41285  1.0000
  C   C359      1.0  0.61383  0.42698  0.41415  1.0000
  C   C360      1.0  0.60463  0.40852  0.34174  1.0000
  N   N33       1.0  0.59842  0.42283  0.48767  1.0000
  C   C361      1.0  0.60601  0.43815  0.56269  1.0000
  C   C362      1.0  0.63293  0.46015  0.56543  1.0000
  N   N34       1.0  0.64775  0.46500  0.48990  1.0000
  C   C363      1.0  0.58485  0.43021  0.63215  1.0000
  H   H269      1.0  0.56535  0.41497  0.60503  1.0000
  H   H270      1.0  0.58256  0.44746  0.64918  1.0000
  C   C364      1.0  0.64699  0.47837  0.64198  1.0000
  H   H271      1.0  0.66835  0.49133  0.62533  1.0000
  H   H272      1.0  0.63349  0.50701  0.61079  1.0000
  C   C365      1.0  0.60633  0.19737  0.33516  1.0000
  C   C366      1.0  0.61413  0.18860  0.41261  1.0000
  C   C367      1.0  0.63787  0.18652  0.41388  1.0000
  C   C368      1.0  0.65636  0.19582  0.34148  1.0000
  N   N35       1.0  0.64201  0.17527  0.48738  1.0000
  C   C369      1.0  0.62667  0.16752  0.56240  1.0000
  C   C370      1.0  0.60465  0.17240  0.56516  1.0000
  N   N36       1.0  0.59980  0.18237  0.48964  1.0000
  C   C371      1.0  0.63463  0.15434  0.63188  1.0000
  H   H273      1.0  0.64990  0.15011  0.60476  1.0000
  H   H274      1.0  0.61740  0.13479  0.64897  1.0000
  C   C372      1.0  0.58638  0.16819  0.64167  1.0000
  H   H275      1.0  0.57340  0.17656  0.62506  1.0000
  H   H276      1.0  0.55778  0.12605  0.61023  1.0000
  C   C373      1.0  0.07300  0.31650  0.35745  1.0000
  C   C374      1.0  0.05759  0.31072  0.43686  1.0000
  C   C375      1.0  0.02891  0.29723  0.43470  1.0000
  C   C376      1.0  0.01442  0.28732  0.35338  1.0000
  N   N37       1.0  0.01637  0.29452  0.51399  1.0000
  C   C377      1.0  0.02841  0.30234  0.59483  1.0000
  C   C378      1.0  0.05691  0.31455  0.59692  1.0000
  N   N38       1.0  0.06971  0.31804  0.51784  1.0000
  H   H277      1.0  0.99598  0.30257  0.66093  1.0000
  H   H278      1.0  0.98194  0.25381  0.63433  1.0000
  H   H279      1.0  0.09359  0.32543  0.66370  1.0000
  H   H280      1.0  0.08941  0.36658  0.66483  1.0000
  C   C379      1.0  0.74818  0.75596  0.35777  1.0000
  C   C380      1.0  0.75397  0.74637  0.43720  1.0000
  C   C381      1.0  0.76751  0.73122  0.43505  1.0000
  C   C382      1.0  0.77744  0.72664  0.35374  1.0000
  N   N39       1.0  0.77024  0.72143  0.51436  1.0000
  C   C383      1.0  0.76240  0.72565  0.59521  1.0000
  C   C384      1.0  0.75012  0.74188  0.59726  1.0000
  N   N40       1.0  0.74662  0.75116  0.51817  1.0000
  H   H281      1.0  0.76207  0.69297  0.66135  1.0000
  H   H282      1.0  0.81086  0.72757  0.63466  1.0000
  H   H283      1.0  0.73914  0.76763  0.66399  1.0000
  H   H284      1.0  0.69806  0.72227  0.66519  1.0000
  C   C385      1.0  0.30884  0.99180  0.35744  1.0000
  C   C386      1.0  0.31838  0.00715  0.43694  1.0000
  C   C387      1.0  0.33354  0.03584  0.43491  1.0000
  C   C388      1.0  0.33816  0.05038  0.35365  1.0000
  N   N41       1.0  0.34330  0.04833  0.51426  1.0000
  C   C389      1.0  0.33903  0.03624  0.59506  1.0000
  C   C390      1.0  0.32278  0.00773  0.59702  1.0000
  N   N42       1.0  0.31354  0.99499  0.51787  1.0000
  H   H285      1.0  0.37169  0.06858  0.66134  1.0000
  H   H286      1.0  0.33709  0.08277  0.63466  1.0000
  H   H287      1.0  0.29697  0.97099  0.66359  1.0000
  H   H288      1.0  0.34232  0.97524  0.66488  1.0000
  C   C391      1.0  0.01370  0.72638  0.35733  1.0000
  C   C392      1.0  0.02912  0.73218  0.43667  1.0000
  C   C393      1.0  0.05780  0.74567  0.43438  1.0000
  C   C394      1.0  0.07228  0.75554  0.35298  1.0000
  N   N43       1.0  0.07034  0.74840  0.51361  1.0000
  C   C395      1.0  0.05831  0.74061  0.59452  1.0000
  C   C396      1.0  0.02981  0.72839  0.59674  1.0000
  N   N44       1.0  0.01701  0.72488  0.51772  1.0000
  H   H289      1.0  0.09069  0.74029  0.66046  1.0000
  H   H290      1.0  0.10485  0.78908  0.63384  1.0000
  H   H291      1.0  0.99313  0.71754  0.66370  1.0000
  H   H292      1.0  0.99728  0.67637  0.66473  1.0000
  C   C397      1.0  0.33837  0.28683  0.35785  1.0000
  C   C398      1.0  0.33256  0.29645  0.43719  1.0000
  C   C399      1.0  0.31907  0.31164  0.43490  1.0000
  C   C400      1.0  0.30918  0.31621  0.35353  1.0000
  N   N45       1.0  0.31634  0.32146  0.51413  1.0000
  C   C401      1.0  0.32415  0.31727  0.59503  1.0000
  C   C402      1.0  0.33635  0.30097  0.59724  1.0000
  N   N46       1.0  0.33987  0.29166  0.51822  1.0000
  H   H293      1.0  0.32435  0.34992  0.66094  1.0000
  H   H294      1.0  0.27560  0.31518  0.63443  1.0000
  H   H295      1.0  0.34720  0.27516  0.66421  1.0000
  H   H296      1.0  0.38836  0.32048  0.66519  1.0000
  C   C403      1.0  0.77784  0.05112  0.35756  1.0000
  C   C404      1.0  0.76825  0.03573  0.43700  1.0000
  C   C405      1.0  0.75309  0.00704  0.43486  1.0000
  C   C406      1.0  0.74851  0.99254  0.35354  1.0000
  N   N47       1.0  0.74330  0.99451  0.51417  1.0000
  C   C407      1.0  0.74752  0.00656  0.59502  1.0000
  C   C408      1.0  0.76375  0.03507  0.59707  1.0000
  N   N48       1.0  0.77303  0.04785  0.51797  1.0000
  H   H297      1.0  0.71484  0.97418  0.66119  1.0000
  H   H298      1.0  0.74948  0.96004  0.63445  1.0000
  H   H299      1.0  0.78951  0.07178  0.66378  1.0000
  H   H300      1.0  0.74415  0.06751  0.66505  1.0000
