data_image0
_chemical_formula_structural       C4NC2NHNHC4NC2NHNH2C4NC2NHNHC4NC2NHNH2C2H2CH3C2H2CH3C2H2CH3C2H2CH3C2H2CH3C2H2CH3C2H2CH3C2H2CH3C4NC2NHNHC4NC2NHNHC4NC2NHNHC4NC2NHNHC4NC2NHNHC4NC2NHNHC4NC2NHNHC4NC2NHNHC2H2CH2C2H2CH2C2H2CH2C2H2CH2C2H2CH3C2H2CH3C2H2CH3C2H2CH3C2H2CH3C2H2CH3C6H3C6H3C6H3C6H3C6H3C6H3C6H3C6H3C6H3C6H3C6H3C6H3C6H3C6H3C6H3C6H3C6H3C6H3C6H3C6H3C2H2CH3C2H2CH2C2H2CH3C2H2CH2C4NC2NHNHC4NC2NHNHC4NC2NHNHC4NC2NHNHC4NC2NHNHC4NC2NHNHC4NC2NHNHC4NC2NHNHC2H2CH3C2H2CH3C2H2CH3C2H2CH3C2H2CH3C2H2CH3C2H2CH3C2H2CH3C4NC2NHNH2C4NC2NHNH2C4NC2NHNH2C4NC2NHNH2C4NC2NHNHC4NC2NHNHC4NC2NHNHC4NC2NHNHC4NC2NHNHC4NC2NHNH
_chemical_formula_sum              "C390 N90 H270"
_cell_length_a       44.3919
_cell_length_b       44.3919
_cell_length_c       14.8947
_cell_angle_alpha    90
_cell_angle_beta     90
_cell_angle_gamma    90

_space_group_name_H-M_alt    "P 1"
_space_group_IT_number       1

loop_
  _space_group_symop_operation_xyz
  'x, y, z'

loop_
  _atom_site_type_symbol
  _atom_site_label
  _atom_site_symmetry_multiplicity
  _atom_site_fract_x
  _atom_site_fract_y
  _atom_site_fract_z
  _atom_site_occupancy
  C   C1        1.0  0.37427  0.05484  0.35196  1.0000
  C   C2        1.0  0.35502  0.06090  0.27833  1.0000
  C   C3        1.0  0.32415  0.05255  0.28107  1.0000
  C   C4        1.0  0.31215  0.03754  0.35685  1.0000
  N   N1        1.0  0.30665  0.05886  0.20840  1.0000
  C   C5        1.0  0.31721  0.07223  0.13314  1.0000
  C   C6        1.0  0.34804  0.07936  0.12815  1.0000
  N   N2        1.0  0.36542  0.07376  0.20158  1.0000
  H   H1        1.0  0.30294  0.07632  0.08074  1.0000
  N   N3        1.0  0.36058  0.09239  0.05036  1.0000
  H   H2        1.0  0.38226  0.09839  0.06503  1.0000
  C   C7        1.0  0.63323  0.95174  0.33265  1.0000
  C   C8        1.0  0.65360  0.94506  0.26203  1.0000
  C   C9        1.0  0.68450  0.95326  0.26988  1.0000
  C   C10       1.0  0.69532  0.96871  0.34650  1.0000
  N   N4        1.0  0.70340  0.94656  0.20082  1.0000
  C   C11       1.0  0.69443  0.93273  0.12467  1.0000
  C   C12       1.0  0.66380  0.92567  0.11462  1.0000
  N   N5        1.0  0.64462  0.93193  0.18368  1.0000
  H   H3        1.0  0.70961  0.92885  0.07439  1.0000
  N   N6        1.0  0.65408  0.91391  0.03206  1.0000
  H   H4        1.0  0.64145  0.89504  0.04396  1.0000
  H   H5        1.0  0.61608  0.94250  0.00945  1.0000
  C   C13       1.0  0.95241  0.37435  0.35241  1.0000
  C   C14       1.0  0.94636  0.35523  0.27851  1.0000
  C   C15       1.0  0.95468  0.32434  0.28079  1.0000
  C   C16       1.0  0.96972  0.31222  0.35635  1.0000
  N   N7        1.0  0.94833  0.30698  0.20785  1.0000
  C   C17       1.0  0.93501  0.31771  0.13270  1.0000
  C   C18       1.0  0.92803  0.34859  0.12804  1.0000
  N   N8        1.0  0.93361  0.36581  0.20181  1.0000
  H   H6        1.0  0.93092  0.30355  0.08006  1.0000
  N   N9        1.0  0.91524  0.36142  0.05027  1.0000
  H   H7        1.0  0.90977  0.38326  0.06480  1.0000
  C   C19       1.0  0.05540  0.63327  0.33243  1.0000
  C   C20       1.0  0.06207  0.65367  0.26184  1.0000
  C   C21       1.0  0.05394  0.68457  0.26987  1.0000
  C   C22       1.0  0.03857  0.69538  0.34665  1.0000
  N   N10       1.0  0.06063  0.70350  0.20086  1.0000
  C   C23       1.0  0.07441  0.69453  0.12461  1.0000
  C   C24       1.0  0.08139  0.66389  0.11438  1.0000
  N   N11       1.0  0.07515  0.64470  0.18341  1.0000
  H   H8        1.0  0.07825  0.70971  0.07432  1.0000
  N   N12       1.0  0.09312  0.65419  0.03178  1.0000
  H   H9        1.0  0.11202  0.64160  0.04359  1.0000
  H   H10       1.0  0.06458  0.61613  0.00938  1.0000
  C   C25       1.0  0.17699  0.52768  0.27961  1.0000
  C   C26       1.0  0.14647  0.53619  0.27524  1.0000
  H   H11       1.0  0.13431  0.53053  0.21943  1.0000
  H   H12       1.0  0.18638  0.51678  0.22588  1.0000
  C   C27       1.0  0.13588  0.56836  0.06183  1.0000
  H   H13       1.0  0.15826  0.56301  0.08762  1.0000
  H   H14       1.0  0.12432  0.54744  0.04396  1.0000
  H   H15       1.0  0.12326  0.57938  0.11551  1.0000
  C   C28       1.0  0.83075  0.47907  0.27514  1.0000
  C   C29       1.0  0.86116  0.46997  0.27666  1.0000
  H   H16       1.0  0.87446  0.47503  0.22259  1.0000
  H   H17       1.0  0.82264  0.48990  0.21950  1.0000
  C   C30       1.0  0.86409  0.43400  0.05790  1.0000
  H   H18       1.0  0.84353  0.44554  0.07879  1.0000
  H   H19       1.0  0.88105  0.45081  0.03967  1.0000
  H   H20       1.0  0.87238  0.42120  0.11531  1.0000
  C   C31       1.0  0.52729  0.83030  0.27995  1.0000
  C   C32       1.0  0.53592  0.86079  0.27552  1.0000
  H   H21       1.0  0.53032  0.87296  0.21968  1.0000
  H   H22       1.0  0.51637  0.82095  0.22621  1.0000
  C   C33       1.0  0.56815  0.87135  0.06206  1.0000
  H   H23       1.0  0.56270  0.84900  0.08788  1.0000
  H   H24       1.0  0.54728  0.88300  0.04417  1.0000
  H   H25       1.0  0.57922  0.88392  0.11573  1.0000
  C   C34       1.0  0.47877  0.17661  0.27424  1.0000
  C   C35       1.0  0.46986  0.14614  0.27561  1.0000
  H   H26       1.0  0.47499  0.13289  0.22152  1.0000
  H   H27       1.0  0.48962  0.18479  0.21871  1.0000
  C   C36       1.0  0.43436  0.14340  0.05793  1.0000
  H   H28       1.0  0.44474  0.16453  0.07913  1.0000
  H   H29       1.0  0.45209  0.12733  0.04034  1.0000
  H   H30       1.0  0.42179  0.13446  0.11495  1.0000
  C   C37       1.0  0.19424  0.08755  0.28435  1.0000
  C   C38       1.0  0.18213  0.11693  0.27784  1.0000
  H   H31       1.0  0.17161  0.12308  0.21956  1.0000
  H   H32       1.0  0.19281  0.07363  0.22973  1.0000
  C   C39       1.0  0.20323  0.15099  0.06359  1.0000
  H   H33       1.0  0.21239  0.13015  0.09121  1.0000
  H   H34       1.0  0.17928  0.14782  0.04912  1.0000
  H   H35       1.0  0.20547  0.16846  0.11475  1.0000
  C   C40       1.0  0.81364  0.91977  0.28529  1.0000
  C   C41       1.0  0.82568  0.89035  0.27972  1.0000
  H   H36       1.0  0.83624  0.88400  0.22170  1.0000
  H   H37       1.0  0.81514  0.93350  0.23026  1.0000
  C   C42       1.0  0.80337  0.85714  0.06522  1.0000
  H   H38       1.0  0.79460  0.87824  0.09233  1.0000
  H   H39       1.0  0.82738  0.85980  0.05082  1.0000
  H   H40       1.0  0.80075  0.83985  0.11673  1.0000
  C   C43       1.0  0.91967  0.19424  0.28438  1.0000
  C   C44       1.0  0.89029  0.18209  0.27825  1.0000
  H   H41       1.0  0.88409  0.17153  0.22009  1.0000
  H   H42       1.0  0.93355  0.19273  0.22969  1.0000
  C   C45       1.0  0.85632  0.20368  0.06362  1.0000
  H   H43       1.0  0.87730  0.21255  0.09115  1.0000
  H   H44       1.0  0.85915  0.17970  0.04906  1.0000
  H   H45       1.0  0.83891  0.20615  0.11487  1.0000
  C   C46       1.0  0.08752  0.81359  0.28514  1.0000
  C   C47       1.0  0.11693  0.82563  0.27933  1.0000
  H   H46       1.0  0.12325  0.83615  0.22123  1.0000
  H   H47       1.0  0.07374  0.81506  0.23020  1.0000
  C   C48       1.0  0.15020  0.80369  0.06508  1.0000
  H   H48       1.0  0.12920  0.79474  0.09228  1.0000
  H   H49       1.0  0.14733  0.82769  0.05068  1.0000
  H   H50       1.0  0.16754  0.80123  0.11654  1.0000
  C   C49       1.0  0.31751  0.63807  0.33783  1.0000
  C   C50       1.0  0.30210  0.62508  0.26399  1.0000
  C   C51       1.0  0.29162  0.59476  0.26730  1.0000
  C   C52       1.0  0.29592  0.57659  0.34450  1.0000
  N   N13       1.0  0.27637  0.58378  0.19506  1.0000
  C   C53       1.0  0.27103  0.59991  0.11981  1.0000
  C   C54       1.0  0.28188  0.62961  0.11500  1.0000
  N   N14       1.0  0.29663  0.64097  0.18766  1.0000
  H   H51       1.0  0.25931  0.59042  0.06800  1.0000
  N   N15       1.0  0.27639  0.64731  0.03831  1.0000
  H   H52       1.0  0.28040  0.66928  0.05470  1.0000
  C   C55       1.0  0.68945  0.36945  0.33065  1.0000
  C   C56       1.0  0.70434  0.38237  0.25571  1.0000
  C   C57       1.0  0.71419  0.41292  0.25747  1.0000
  C   C58       1.0  0.70997  0.43140  0.33407  1.0000
  N   N16       1.0  0.72896  0.42390  0.18439  1.0000
  C   C59       1.0  0.73452  0.40756  0.10978  1.0000
  C   C60       1.0  0.72445  0.37757  0.10670  1.0000
  N   N17       1.0  0.71008  0.36620  0.18003  1.0000
  H   H53       1.0  0.74590  0.41705  0.05733  1.0000
  N   N18       1.0  0.73057  0.35976  0.03080  1.0000
  H   H54       1.0  0.72854  0.33768  0.04898  1.0000
  C   C61       1.0  0.63782  0.69021  0.33655  1.0000
  C   C62       1.0  0.62471  0.70564  0.26290  1.0000
  C   C63       1.0  0.59431  0.71589  0.26656  1.0000
  C   C64       1.0  0.57618  0.71142  0.34381  1.0000
  N   N19       1.0  0.58316  0.73114  0.19459  1.0000
  C   C65       1.0  0.59919  0.73677  0.11937  1.0000
  C   C66       1.0  0.62900  0.72628  0.11436  1.0000
  N   N20       1.0  0.64055  0.71145  0.18662  1.0000
  H   H55       1.0  0.58957  0.74851  0.06779  1.0000
  N   N21       1.0  0.64650  0.73237  0.03769  1.0000
  H   H56       1.0  0.66868  0.73000  0.05451  1.0000
  C   C67       1.0  0.36921  0.31835  0.33253  1.0000
  C   C68       1.0  0.38194  0.30354  0.25725  1.0000
  C   C69       1.0  0.41237  0.29336  0.25830  1.0000
  C   C70       1.0  0.43101  0.29737  0.33462  1.0000
  N   N22       1.0  0.42304  0.27861  0.18474  1.0000
  C   C71       1.0  0.40649  0.27350  0.11019  1.0000
  C   C72       1.0  0.37669  0.28415  0.10753  1.0000
  N   N23       1.0  0.36566  0.29837  0.18154  1.0000
  H   H57       1.0  0.41576  0.26215  0.05731  1.0000
  N   N24       1.0  0.35852  0.27910  0.03164  1.0000
  H   H58       1.0  0.33679  0.28375  0.04928  1.0000
  C   C73       1.0  0.22768  0.96578  0.34730  1.0000
  C   C74       1.0  0.21211  0.95427  0.27148  1.0000
  C   C75       1.0  0.20519  0.92293  0.26435  1.0000
  C   C76       1.0  0.21423  0.90224  0.33184  1.0000
  N   N25       1.0  0.19077  0.91329  0.18901  1.0000
  C   C77       1.0  0.18284  0.93180  0.12066  1.0000
  C   C78       1.0  0.19027  0.96259  0.12586  1.0000
  N   N26       1.0  0.20443  0.97241  0.20143  1.0000
  H   H59       1.0  0.17206  0.92318  0.06579  1.0000
  N   N27       1.0  0.18286  0.98256  0.05525  1.0000
  H   H60       1.0  0.18297  0.00434  0.07862  1.0000
  C   C79       1.0  0.77916  0.04155  0.34459  1.0000
  C   C80       1.0  0.79509  0.05312  0.26952  1.0000
  C   C81       1.0  0.80213  0.08445  0.26295  1.0000
  C   C82       1.0  0.79289  0.10511  0.33029  1.0000
  N   N28       1.0  0.81687  0.09413  0.18822  1.0000
  C   C83       1.0  0.82503  0.07567  0.11998  1.0000
  C   C84       1.0  0.81750  0.04490  0.12465  1.0000
  N   N29       1.0  0.80300  0.03503  0.19957  1.0000
  H   H61       1.0  0.83600  0.08433  0.06549  1.0000
  N   N30       1.0  0.82503  0.02504  0.05389  1.0000
  H   H62       1.0  0.82537  0.00328  0.07735  1.0000
  C   C85       1.0  0.04156  0.22775  0.34620  1.0000
  C   C86       1.0  0.05301  0.21213  0.27038  1.0000
  C   C87       1.0  0.08434  0.20518  0.26303  1.0000
  C   C88       1.0  0.10510  0.21423  0.33031  1.0000
  N   N31       1.0  0.09391  0.19072  0.18770  1.0000
  C   C89       1.0  0.07533  0.18277  0.11951  1.0000
  C   C90       1.0  0.04455  0.19023  0.12491  1.0000
  N   N32       1.0  0.03481  0.20443  0.20049  1.0000
  H   H63       1.0  0.08390  0.17197  0.06461  1.0000
  N   N33       1.0  0.02453  0.18284  0.05442  1.0000
  H   H64       1.0  0.00278  0.18292  0.07796  1.0000
  C   C91       1.0  0.96582  0.77924  0.34540  1.0000
  C   C92       1.0  0.95417  0.79511  0.27034  1.0000
  C   C93       1.0  0.92284  0.80213  0.26402  1.0000
  C   C94       1.0  0.90226  0.79290  0.33159  1.0000
  N   N34       1.0  0.91308  0.81684  0.18932  1.0000
  C   C95       1.0  0.93147  0.82500  0.12090  1.0000
  C   C96       1.0  0.96225  0.81748  0.12534  1.0000
  N   N35       1.0  0.97220  0.80301  0.20023  1.0000
  H   H65       1.0  0.92275  0.83593  0.06644  1.0000
  N   N36       1.0  0.98205  0.82502  0.05444  1.0000
  H   H66       1.0  0.00383  0.82536  0.07772  1.0000
  C   C97       1.0  0.27736  0.41438  0.27071  1.0000
  C   C98       1.0  0.27068  0.44543  0.27280  1.0000
  H   H67       1.0  0.25833  0.45433  0.22115  1.0000
  H   H68       1.0  0.27002  0.40196  0.21710  1.0000
  C   C99       1.0  0.30081  0.47948  0.02626  1.0000
  H   H69       1.0  0.28893  0.45937  0.04945  1.0000
  H   H70       1.0  0.30858  0.49184  0.08521  1.0000
  C   C100      1.0  0.72904  0.59410  0.26632  1.0000
  C   C101      1.0  0.73571  0.56305  0.26640  1.0000
  H   H71       1.0  0.74788  0.55449  0.21386  1.0000
  H   H72       1.0  0.73623  0.60687  0.21325  1.0000
  C   C102      1.0  0.70485  0.53126  0.02785  1.0000
  H   H73       1.0  0.71205  0.55315  0.05362  1.0000
  H   H74       1.0  0.69722  0.51772  0.08463  1.0000
  C   C103      1.0  0.41387  0.72969  0.27185  1.0000
  C   C104      1.0  0.44491  0.73645  0.27366  1.0000
  H   H75       1.0  0.45371  0.74884  0.22196  1.0000
  H   H76       1.0  0.40137  0.73702  0.21840  1.0000
  C   C105      1.0  0.47948  0.70642  0.02671  1.0000
  H   H77       1.0  0.45936  0.71826  0.05006  1.0000
  H   H78       1.0  0.49192  0.69869  0.08557  1.0000
  C   C106      1.0  0.59355  0.27807  0.26493  1.0000
  C   C107      1.0  0.56249  0.27148  0.26538  1.0000
  H   H79       1.0  0.55383  0.25934  0.21293  1.0000
  H   H80       1.0  0.60624  0.27087  0.21168  1.0000
  C   C108      1.0  0.53129  0.30236  0.02719  1.0000
  H   H81       1.0  0.55318  0.29505  0.05272  1.0000
  H   H82       1.0  0.51785  0.31003  0.08414  1.0000
  C   C109      1.0  0.21561  0.26841  0.25765  1.0000
  C   C110      1.0  0.23823  0.29096  0.25872  1.0000
  H   H83       1.0  0.23963  0.30544  0.20549  1.0000
  H   H84       1.0  0.20156  0.26721  0.20330  1.0000
  C   C111      1.0  0.26656  0.27576  0.04344  1.0000
  H   H85       1.0  0.25114  0.25807  0.06526  1.0000
  H   H86       1.0  0.25360  0.29601  0.02736  1.0000
  H   H87       1.0  0.28154  0.28087  0.09952  1.0000
  C   C112      1.0  0.79158  0.73940  0.26099  1.0000
  C   C113      1.0  0.76887  0.71696  0.26128  1.0000
  H   H88       1.0  0.76748  0.70263  0.20769  1.0000
  H   H89       1.0  0.80567  0.74070  0.20676  1.0000
  C   C114      1.0  0.73970  0.73081  0.04573  1.0000
  H   H90       1.0  0.75537  0.74818  0.06831  1.0000
  H   H91       1.0  0.75238  0.71045  0.02890  1.0000
  H   H92       1.0  0.72462  0.72567  0.10151  1.0000
  C   C115      1.0  0.73911  0.21565  0.25806  1.0000
  C   C116      1.0  0.71659  0.23829  0.25840  1.0000
  H   H93       1.0  0.70219  0.23959  0.20497  1.0000
  H   H94       1.0  0.74040  0.20151  0.20393  1.0000
  C   C117      1.0  0.73051  0.26667  0.04367  1.0000
  H   H95       1.0  0.74846  0.25167  0.06622  1.0000
  H   H96       1.0  0.71059  0.25324  0.02723  1.0000
  H   H97       1.0  0.72491  0.28164  0.09933  1.0000
  C   C118      1.0  0.26812  0.79165  0.26084  1.0000
  C   C119      1.0  0.29061  0.76899  0.26165  1.0000
  H   H98       1.0  0.30501  0.76755  0.20823  1.0000
  H   H99       1.0  0.26688  0.80570  0.20650  1.0000
  C   C120      1.0  0.27584  0.73990  0.04578  1.0000
  H   H100      1.0  0.25855  0.75574  0.06783  1.0000
  H   H101      1.0  0.29635  0.75239  0.02929  1.0000
  H   H102      1.0  0.28072  0.72484  0.10185  1.0000
  C   C121      1.0  0.50141  0.02509  0.27480  1.0000
  C   C122      1.0  0.52372  0.00267  0.27174  1.0000
  H   H103      1.0  0.53746  0.00155  0.21661  1.0000
  H   H104      1.0  0.49954  0.03964  0.22174  1.0000
  C   C123      1.0  0.51318  0.95880  0.04466  1.0000
  H   H105      1.0  0.50196  0.97862  0.07243  1.0000
  H   H106      1.0  0.53594  0.96502  0.02352  1.0000
  H   H107      1.0  0.51490  0.94199  0.09789  1.0000
  C   C124      1.0  0.98209  0.50142  0.27517  1.0000
  C   C125      1.0  0.00453  0.52371  0.27183  1.0000
  H   H108      1.0  0.00562  0.53741  0.21663  1.0000
  H   H109      1.0  0.96751  0.49952  0.22219  1.0000
  C   C126      1.0  0.04853  0.51328  0.04500  1.0000
  H   H110      1.0  0.02881  0.50190  0.07286  1.0000
  H   H111      1.0  0.04213  0.53601  0.02413  1.0000
  H   H112      1.0  0.06538  0.51506  0.09809  1.0000
  C   C127      1.0  0.28075  0.03159  0.36248  1.0000
  C   C128      1.0  0.26042  0.05596  0.36273  1.0000
  C   C129      1.0  0.22890  0.05168  0.35897  1.0000
  C   C130      1.0  0.21792  0.02169  0.35189  1.0000
  C   C131      1.0  0.23780  0.99649  0.35313  1.0000
  C   C132      1.0  0.26920  0.00204  0.35874  1.0000
  H   H113      1.0  0.19517  0.01814  0.34874  1.0000
  H   H114      1.0  0.28403  0.98437  0.35582  1.0000
  H   H115      1.0  0.26891  0.07746  0.36444  1.0000
  C   C133      1.0  0.72657  0.97514  0.35592  1.0000
  C   C134      1.0  0.74718  0.95104  0.35897  1.0000
  C   C135      1.0  0.77866  0.95570  0.35787  1.0000
  C   C136      1.0  0.78937  0.98579  0.35108  1.0000
  C   C137      1.0  0.76921  0.01076  0.35011  1.0000
  C   C138      1.0  0.73783  0.00485  0.35284  1.0000
  H   H116      1.0  0.81211  0.98958  0.34985  1.0000
  H   H117      1.0  0.72285  0.02235  0.34804  1.0000
  H   H118      1.0  0.73894  0.92944  0.36032  1.0000
  C   C139      1.0  0.97571  0.28081  0.36157  1.0000
  C   C140      1.0  0.95135  0.26047  0.36201  1.0000
  C   C141      1.0  0.95564  0.22895  0.35842  1.0000
  C   C142      1.0  0.98564  0.21798  0.35116  1.0000
  C   C143      1.0  0.01084  0.23787  0.35221  1.0000
  C   C144      1.0  0.00527  0.26926  0.35780  1.0000
  H   H119      1.0  0.98919  0.19523  0.34822  1.0000
  H   H120      1.0  0.02294  0.28410  0.35485  1.0000
  H   H121      1.0  0.92985  0.26896  0.36384  1.0000
  C   C145      1.0  0.03217  0.72662  0.35623  1.0000
  C   C146      1.0  0.05630  0.74721  0.35919  1.0000
  C   C147      1.0  0.05165  0.77868  0.35806  1.0000
  C   C148      1.0  0.02157  0.78943  0.35151  1.0000
  C   C149      1.0  0.99659  0.76927  0.35061  1.0000
  C   C150      1.0  0.00248  0.73789  0.35321  1.0000
  H   H122      1.0  0.01779  0.81216  0.35029  1.0000
  H   H123      1.0  0.98496  0.72292  0.34855  1.0000
  H   H124      1.0  0.07789  0.73895  0.36037  1.0000
  C   C151      1.0  0.22632  0.52949  0.35494  1.0000
  C   C152      1.0  0.24647  0.55398  0.35891  1.0000
  C   C153      1.0  0.27803  0.54992  0.35598  1.0000
  C   C154      1.0  0.28937  0.52001  0.35268  1.0000
  C   C155      1.0  0.26963  0.49472  0.34952  1.0000
  C   C156      1.0  0.23815  0.50007  0.34963  1.0000
  H   H125      1.0  0.31213  0.51668  0.34827  1.0000
  H   H126      1.0  0.22349  0.48224  0.34786  1.0000
  H   H127      1.0  0.23785  0.57543  0.35983  1.0000
  C   C157      1.0  0.77989  0.47817  0.34220  1.0000
  C   C158      1.0  0.75954  0.45383  0.34530  1.0000
  C   C159      1.0  0.72800  0.45804  0.34410  1.0000
  C   C160      1.0  0.71687  0.48805  0.34247  1.0000
  C   C161      1.0  0.73678  0.51321  0.33968  1.0000
  C   C162      1.0  0.76825  0.50769  0.33876  1.0000
  H   H128      1.0  0.69411  0.49155  0.33964  1.0000
  H   H129      1.0  0.78302  0.52544  0.33867  1.0000
  H   H130      1.0  0.76804  0.43232  0.34622  1.0000
  C   C163      1.0  0.52902  0.78097  0.35523  1.0000
  C   C164      1.0  0.55353  0.76084  0.35885  1.0000
  C   C165      1.0  0.54951  0.72928  0.35558  1.0000
  C   C166      1.0  0.51961  0.71790  0.35261  1.0000
  C   C167      1.0  0.49428  0.73761  0.34988  1.0000
  C   C168      1.0  0.49960  0.76910  0.35007  1.0000
  H   H131      1.0  0.51630  0.69514  0.34821  1.0000
  H   H132      1.0  0.48175  0.78373  0.34855  1.0000
  H   H133      1.0  0.57497  0.76949  0.35970  1.0000
  C   C169      1.0  0.47772  0.22741  0.34166  1.0000
  C   C170      1.0  0.45338  0.24775  0.34497  1.0000
  C   C171      1.0  0.45763  0.27929  0.34395  1.0000
  C   C172      1.0  0.48763  0.29041  0.34242  1.0000
  C   C173      1.0  0.51278  0.27048  0.33925  1.0000
  C   C174      1.0  0.50724  0.23903  0.33817  1.0000
  H   H134      1.0  0.49115  0.31318  0.33979  1.0000
  H   H135      1.0  0.52498  0.22425  0.33779  1.0000
  H   H136      1.0  0.43186  0.23927  0.34593  1.0000
  C   C175      1.0  0.19019  0.22357  0.32564  1.0000
  C   C176      1.0  0.19864  0.19280  0.33261  1.0000
  C   C177      1.0  0.17711  0.16918  0.33494  1.0000
  C   C178      1.0  0.14624  0.17688  0.33048  1.0000
  C   C179      1.0  0.13665  0.20729  0.32593  1.0000
  C   C180      1.0  0.15893  0.23026  0.32324  1.0000
  H   H137      1.0  0.13044  0.16012  0.33517  1.0000
  H   H138      1.0  0.15223  0.25233  0.32153  1.0000
  H   H139      1.0  0.22105  0.18742  0.33592  1.0000
  C   C181      1.0  0.81711  0.78390  0.32990  1.0000
  C   C182      1.0  0.80878  0.81470  0.33669  1.0000
  C   C183      1.0  0.83041  0.83824  0.33806  1.0000
  C   C184      1.0  0.86123  0.83042  0.33272  1.0000
  C   C185      1.0  0.87071  0.79998  0.32835  1.0000
  C   C186      1.0  0.84833  0.77709  0.32657  1.0000
  H   H140      1.0  0.87710  0.84713  0.33676  1.0000
  H   H141      1.0  0.85494  0.75500  0.32465  1.0000
  H   H142      1.0  0.78639  0.82016  0.34027  1.0000
  C   C187      1.0  0.78372  0.19025  0.32706  1.0000
  C   C188      1.0  0.81449  0.19866  0.33397  1.0000
  C   C189      1.0  0.83809  0.17710  0.33588  1.0000
  C   C190      1.0  0.83034  0.14624  0.33104  1.0000
  C   C191      1.0  0.79991  0.13668  0.32663  1.0000
  C   C192      1.0  0.77698  0.15900  0.32426  1.0000
  H   H143      1.0  0.84708  0.13042  0.33554  1.0000
  H   H144      1.0  0.75490  0.15234  0.32233  1.0000
  H   H145      1.0  0.81989  0.22107  0.33733  1.0000
  C   C193      1.0  0.22343  0.81714  0.32902  1.0000
  C   C194      1.0  0.19264  0.80876  0.33575  1.0000
  C   C195      1.0  0.16907  0.83035  0.33731  1.0000
  C   C196      1.0  0.17683  0.86119  0.33223  1.0000
  C   C197      1.0  0.20725  0.87070  0.32786  1.0000
  C   C198      1.0  0.23018  0.84838  0.32597  1.0000
  H   H146      1.0  0.16009  0.87703  0.33643  1.0000
  H   H147      1.0  0.25227  0.85503  0.32427  1.0000
  H   H148      1.0  0.18721  0.78636  0.33928  1.0000
  C   C199      1.0  0.31507  0.72392  0.33145  1.0000
  C   C200      1.0  0.30593  0.69322  0.33390  1.0000
  C   C201      1.0  0.32697  0.66911  0.33783  1.0000
  C   C202      1.0  0.35796  0.67644  0.34103  1.0000
  C   C203      1.0  0.36827  0.70664  0.33793  1.0000
  C   C204      1.0  0.34646  0.72999  0.33185  1.0000
  H   H149      1.0  0.37343  0.65932  0.34314  1.0000
  H   H150      1.0  0.35355  0.75194  0.33178  1.0000
  H   H151      1.0  0.28340  0.68828  0.33321  1.0000
  C   C205      1.0  0.69210  0.28352  0.32730  1.0000
  C   C206      1.0  0.70122  0.31424  0.32887  1.0000
  C   C207      1.0  0.68017  0.33836  0.33192  1.0000
  C   C208      1.0  0.64917  0.33101  0.33523  1.0000
  C   C209      1.0  0.63891  0.30080  0.33292  1.0000
  C   C210      1.0  0.66072  0.27743  0.32765  1.0000
  H   H152      1.0  0.63367  0.34811  0.33668  1.0000
  H   H153      1.0  0.65362  0.25548  0.32794  1.0000
  H   H154      1.0  0.72375  0.31920  0.32804  1.0000
  C   C211      1.0  0.72367  0.69252  0.33027  1.0000
  C   C212      1.0  0.69299  0.70172  0.33293  1.0000
  C   C213      1.0  0.66885  0.68073  0.33621  1.0000
  C   C214      1.0  0.67610  0.64970  0.33850  1.0000
  C   C215      1.0  0.70628  0.63936  0.33503  1.0000
  C   C216      1.0  0.72968  0.66113  0.32966  1.0000
  H   H155      1.0  0.65896  0.63425  0.34015  1.0000
  H   H156      1.0  0.75162  0.65399  0.32928  1.0000
  H   H157      1.0  0.68809  0.72427  0.33289  1.0000
  C   C217      1.0  0.28328  0.31546  0.32887  1.0000
  C   C218      1.0  0.31404  0.30645  0.33047  1.0000
  C   C219      1.0  0.33809  0.32757  0.33435  1.0000
  C   C220      1.0  0.33064  0.35852  0.33837  1.0000
  C   C221      1.0  0.30040  0.36870  0.33619  1.0000
  C   C222      1.0  0.27710  0.34683  0.33014  1.0000
  H   H158      1.0  0.34770  0.37407  0.34029  1.0000
  H   H159      1.0  0.25513  0.35386  0.33049  1.0000
  H   H160      1.0  0.31906  0.28394  0.32897  1.0000
  C   C223      1.0  0.44439  0.10321  0.34763  1.0000
  C   C224      1.0  0.41368  0.09452  0.35011  1.0000
  C   C225      1.0  0.40514  0.06375  0.35169  1.0000
  C   C226      1.0  0.42796  0.04160  0.35178  1.0000
  C   C227      1.0  0.45872  0.04966  0.34859  1.0000
  C   C228      1.0  0.46663  0.08046  0.34565  1.0000
  H   H161      1.0  0.42209  0.01926  0.35188  1.0000
  H   H162      1.0  0.48895  0.08640  0.34513  1.0000
  H   H163      1.0  0.39732  0.11080  0.35076  1.0000
  C   C229      1.0  0.56217  0.90488  0.33762  1.0000
  C   C230      1.0  0.59306  0.91287  0.33359  1.0000
  C   C231      1.0  0.60219  0.94344  0.32980  1.0000
  C   C232      1.0  0.57978  0.96605  0.33138  1.0000
  C   C233      1.0  0.54888  0.95862  0.33602  1.0000
  C   C234      1.0  0.54036  0.92798  0.33802  1.0000
  H   H164      1.0  0.58607  0.98827  0.33142  1.0000
  H   H165      1.0  0.51797  0.92245  0.34215  1.0000
  H   H166      1.0  0.60908  0.89627  0.33512  1.0000
  C   C235      1.0  0.90400  0.44446  0.34895  1.0000
  C   C236      1.0  0.91270  0.41374  0.35127  1.0000
  C   C237      1.0  0.94347  0.40522  0.35258  1.0000
  C   C238      1.0  0.96562  0.42803  0.35256  1.0000
  C   C239      1.0  0.95756  0.45879  0.34939  1.0000
  C   C240      1.0  0.92675  0.46670  0.34675  1.0000
  H   H167      1.0  0.98796  0.42217  0.35230  1.0000
  H   H168      1.0  0.92081  0.48901  0.34620  1.0000
  H   H169      1.0  0.89642  0.39739  0.35188  1.0000
  C   C241      1.0  0.10232  0.56229  0.33739  1.0000
  C   C242      1.0  0.09429  0.59317  0.33323  1.0000
  C   C243      1.0  0.06371  0.60225  0.32951  1.0000
  C   C244      1.0  0.04113  0.57981  0.33118  1.0000
  C   C245      1.0  0.04860  0.54893  0.33583  1.0000
  C   C246      1.0  0.07925  0.54044  0.33786  1.0000
  H   H170      1.0  0.01890  0.58608  0.33125  1.0000
  H   H171      1.0  0.08482  0.51807  0.34201  1.0000
  H   H172      1.0  0.11087  0.60921  0.33478  1.0000
  C   C247      1.0  0.33177  0.02998  0.42796  1.0000
  C   C248      1.0  0.36239  0.03836  0.42514  1.0000
  H   H173      1.0  0.37588  0.03291  0.47843  1.0000
  H   H174      1.0  0.32373  0.01912  0.48362  1.0000
  C   C249      1.0  0.36192  0.07165  0.63925  1.0000
  H   H175      1.0  0.33932  0.06490  0.61851  1.0000
  H   H176      1.0  0.37510  0.05150  0.65482  1.0000
  H   H177      1.0  0.37246  0.08317  0.58266  1.0000
  C   C250      1.0  0.67469  0.97624  0.41490  1.0000
  C   C251      1.0  0.64419  0.96782  0.40802  1.0000
  H   H178      1.0  0.63002  0.97320  0.45981  1.0000
  H   H179      1.0  0.68188  0.98715  0.47152  1.0000
  C   C252      1.0  0.63720  0.93595  0.64375  1.0000
  H   H180      1.0  0.65077  0.95610  0.63198  1.0000
  H   H181      1.0  0.63210  0.92594  0.57862  1.0000
  C   C253      1.0  0.97732  0.33174  0.42768  1.0000
  C   C254      1.0  0.96895  0.36236  0.42533  1.0000
  H   H182      1.0  0.97446  0.37578  0.47869  1.0000
  H   H183      1.0  0.98825  0.32361  0.48313  1.0000
  C   C255      1.0  0.93590  0.36231  0.63895  1.0000
  H   H184      1.0  0.94204  0.33958  0.61787  1.0000
  H   H185      1.0  0.95642  0.37494  0.65445  1.0000
  H   H186      1.0  0.92460  0.37324  0.58262  1.0000
  C   C256      1.0  0.03102  0.67473  0.41499  1.0000
  C   C257      1.0  0.03938  0.64422  0.40794  1.0000
  H   H187      1.0  0.03401  0.63003  0.45970  1.0000
  H   H188      1.0  0.02016  0.68192  0.47170  1.0000
  C   C258      1.0  0.07107  0.63726  0.64360  1.0000
  H   H189      1.0  0.05089  0.65078  0.63190  1.0000
  H   H190      1.0  0.08106  0.63216  0.57845  1.0000
  C   C259      1.0  0.13290  0.55297  0.34502  1.0000
  C   C260      1.0  0.15005  0.55875  0.42326  1.0000
  C   C261      1.0  0.18090  0.55032  0.42770  1.0000
  C   C262      1.0  0.19480  0.53524  0.35494  1.0000
  N   N37       1.0  0.19639  0.55653  0.50435  1.0000
  C   C263      1.0  0.18378  0.56970  0.57714  1.0000
  C   C264      1.0  0.15282  0.57655  0.57537  1.0000
  N   N38       1.0  0.13753  0.57126  0.49773  1.0000
  H   H191      1.0  0.19659  0.57361  0.63288  1.0000
  N   N39       1.0  0.13803  0.58896  0.65073  1.0000
  H   H192      1.0  0.11639  0.59403  0.63272  1.0000
  C   C265      1.0  0.87310  0.45335  0.34957  1.0000
  C   C266      1.0  0.85399  0.44741  0.42374  1.0000
  C   C267      1.0  0.82336  0.45672  0.42228  1.0000
  C   C268      1.0  0.81133  0.47216  0.34734  1.0000
  N   N40       1.0  0.80588  0.45072  0.49519  1.0000
  C   C269      1.0  0.81610  0.43652  0.56934  1.0000
  C   C270      1.0  0.84653  0.42785  0.57250  1.0000
  N   N41       1.0  0.86407  0.43343  0.49930  1.0000
  H   H193      1.0  0.80185  0.43260  0.62189  1.0000
  N   N42       1.0  0.85793  0.41319  0.64902  1.0000
  H   H194      1.0  0.87760  0.40283  0.63140  1.0000
  C   C271      1.0  0.55277  0.87431  0.34526  1.0000
  C   C272      1.0  0.55846  0.85715  0.42355  1.0000
  C   C273      1.0  0.54991  0.82634  0.42804  1.0000
  C   C274      1.0  0.53477  0.81249  0.35532  1.0000
  N   N43       1.0  0.55607  0.81084  0.50470  1.0000
  C   C275      1.0  0.56931  0.82341  0.57745  1.0000
  C   C276      1.0  0.57627  0.85434  0.57564  1.0000
  N   N44       1.0  0.57103  0.86964  0.49798  1.0000
  H   H195      1.0  0.57316  0.81059  0.63323  1.0000
  N   N45       1.0  0.58875  0.86908  0.65097  1.0000
  H   H196      1.0  0.59391  0.89070  0.63292  1.0000
  C   C277      1.0  0.45325  0.13411  0.34840  1.0000
  C   C278      1.0  0.44727  0.15313  0.42269  1.0000
  C   C279      1.0  0.45638  0.18382  0.42142  1.0000
  C   C280      1.0  0.47173  0.19596  0.34650  1.0000
  N   N46       1.0  0.45030  0.20119  0.49452  1.0000
  C   C281      1.0  0.43626  0.19078  0.56873  1.0000
  C   C282      1.0  0.42789  0.16026  0.57180  1.0000
  N   N47       1.0  0.43350  0.14287  0.49832  1.0000
  H   H197      1.0  0.43228  0.20495  0.62144  1.0000
  N   N48       1.0  0.41353  0.14845  0.64834  1.0000
  H   H198      1.0  0.40430  0.12820  0.63102  1.0000
  C   C283      1.0  0.18630  0.13845  0.34689  1.0000
  C   C284      1.0  0.20088  0.12873  0.42640  1.0000
  C   C285      1.0  0.21292  0.09907  0.43329  1.0000
  C   C286      1.0  0.21041  0.07822  0.36132  1.0000
  N   N49       1.0  0.22758  0.09160  0.51044  1.0000
  C   C287      1.0  0.23071  0.11051  0.58118  1.0000
  C   C288      1.0  0.21778  0.13945  0.57659  1.0000
  N   N50       1.0  0.20390  0.14730  0.49855  1.0000
  H   H199      1.0  0.24207  0.10345  0.63696  1.0000
  N   N51       1.0  0.22003  0.16009  0.64879  1.0000
  H   H200      1.0  0.21144  0.18050  0.62914  1.0000
  C   C289      1.0  0.82134  0.86904  0.34926  1.0000
  C   C290      1.0  0.80658  0.87901  0.42823  1.0000
  C   C291      1.0  0.79462  0.90871  0.43421  1.0000
  C   C292      1.0  0.79737  0.92935  0.36179  1.0000
  N   N52       1.0  0.77973  0.91642  0.51077  1.0000
  C   C293      1.0  0.77631  0.89768  0.58178  1.0000
  C   C294      1.0  0.78910  0.86866  0.57805  1.0000
  N   N53       1.0  0.80322  0.86058  0.50060  1.0000
  H   H201      1.0  0.76480  0.90489  0.63711  1.0000
  N   N54       1.0  0.78644  0.84817  0.65051  1.0000
  H   H202      1.0  0.79466  0.82757  0.63120  1.0000
  C   C295      1.0  0.86885  0.18629  0.34749  1.0000
  C   C296      1.0  0.87864  0.20099  0.42674  1.0000
  C   C297      1.0  0.90831  0.21302  0.43328  1.0000
  C   C298      1.0  0.92910  0.21045  0.36116  1.0000
  N   N55       1.0  0.91585  0.22776  0.51025  1.0000
  C   C299      1.0  0.89699  0.23101  0.58107  1.0000
  C   C300      1.0  0.86802  0.21816  0.57671  1.0000
  N   N56       1.0  0.86010  0.20417  0.49892  1.0000
  H   H203      1.0  0.90410  0.24243  0.63668  1.0000
  N   N57       1.0  0.84740  0.22064  0.64891  1.0000
  H   H204      1.0  0.82687  0.21233  0.62923  1.0000
  C   C301      1.0  0.13829  0.82127  0.34873  1.0000
  C   C302      1.0  0.12837  0.80662  0.42790  1.0000
  C   C303      1.0  0.09868  0.79468  0.43413  1.0000
  C   C304      1.0  0.07800  0.79737  0.36182  1.0000
  N   N58       1.0  0.09100  0.77985  0.51083  1.0000
  C   C305      1.0  0.10979  0.77650  0.58179  1.0000
  C   C306      1.0  0.13877  0.78935  0.57790  1.0000
  N   N59       1.0  0.14682  0.80337  0.50026  1.0000
  H   H205      1.0  0.10259  0.76506  0.63727  1.0000
  N   N60       1.0  0.15928  0.78684  0.65037  1.0000
  H   H206      1.0  0.17981  0.79523  0.63105  1.0000
  C   C307      1.0  0.31239  0.58921  0.41648  1.0000
  C   C308      1.0  0.32349  0.61907  0.41225  1.0000
  H   H207      1.0  0.33468  0.62750  0.46679  1.0000
  H   H208      1.0  0.31510  0.57725  0.47467  1.0000
  C   C309      1.0  0.29591  0.63934  0.62795  1.0000
  H   H209      1.0  0.29218  0.61602  0.60755  1.0000
  H   H210      1.0  0.31974  0.64242  0.64423  1.0000
  H   H211      1.0  0.29035  0.65372  0.57091  1.0000
  C   C310      1.0  0.69418  0.41872  0.40733  1.0000
  C   C311      1.0  0.68353  0.38867  0.40461  1.0000
  H   H212      1.0  0.67268  0.38031  0.45984  1.0000
  H   H213      1.0  0.69168  0.43082  0.46534  1.0000
  C   C312      1.0  0.70988  0.36580  0.62163  1.0000
  H   H214      1.0  0.71147  0.38930  0.60052  1.0000
  H   H215      1.0  0.68653  0.36077  0.63960  1.0000
  H   H216      1.0  0.71622  0.35178  0.56452  1.0000
  C   C313      1.0  0.58904  0.69510  0.41572  1.0000
  C   C314      1.0  0.61895  0.68414  0.41119  1.0000
  H   H217      1.0  0.62751  0.67304  0.46571  1.0000
  H   H218      1.0  0.57717  0.69235  0.47406  1.0000
  C   C315      1.0  0.63975  0.71201  0.62826  1.0000
  H   H219      1.0  0.61617  0.71399  0.60829  1.0000
  H   H220      1.0  0.64453  0.68853  0.64538  1.0000
  H   H221      1.0  0.65356  0.71832  0.57068  1.0000
  C   C316      1.0  0.41864  0.31332  0.40809  1.0000
  C   C317      1.0  0.38867  0.32421  0.40598  1.0000
  H   H222      1.0  0.38052  0.33514  0.46132  1.0000
  H   H223      1.0  0.43091  0.31578  0.46580  1.0000
  C   C318      1.0  0.36646  0.29850  0.62102  1.0000
  H   H224      1.0  0.38952  0.29416  0.59911  1.0000
  H   H225      1.0  0.36415  0.32239  0.63774  1.0000
  H   H226      1.0  0.35153  0.29343  0.56483  1.0000
  C   C319      1.0  0.22989  0.91390  0.40682  1.0000
  C   C320      1.0  0.23642  0.94487  0.41431  1.0000
  H   H227      1.0  0.24805  0.95209  0.46964  1.0000
  H   H228      1.0  0.23658  0.89982  0.45750  1.0000
  C   C321      1.0  0.20389  0.98077  0.64485  1.0000
  H   H229      1.0  0.20362  0.95825  0.61533  1.0000
  H   H230      1.0  0.22692  0.98628  0.66512  1.0000
  H   H231      1.0  0.19687  0.99672  0.59316  1.0000
  C   C322      1.0  0.77676  0.09340  0.40436  1.0000
  C   C323      1.0  0.77008  0.06243  0.41127  1.0000
  H   H232      1.0  0.75818  0.05517  0.46605  1.0000
  H   H233      1.0  0.76985  0.10744  0.45484  1.0000
  C   C324      1.0  0.80374  0.02651  0.64407  1.0000
  H   H234      1.0  0.80355  0.04905  0.61465  1.0000
  H   H235      1.0  0.78087  0.02060  0.66491  1.0000
  H   H236      1.0  0.81088  0.01071  0.59214  1.0000
  C   C325      1.0  0.09351  0.22995  0.40528  1.0000
  C   C326      1.0  0.06254  0.23651  0.41298  1.0000
  H   H237      1.0  0.05539  0.24818  0.46831  1.0000
  H   H238      1.0  0.10764  0.23669  0.45577  1.0000
  C   C327      1.0  0.02625  0.20390  0.64409  1.0000
  H   H239      1.0  0.04875  0.20366  0.61442  1.0000
  H   H240      1.0  0.02074  0.22692  0.66448  1.0000
  H   H241      1.0  0.01027  0.19689  0.59249  1.0000
  C   C328      1.0  0.91404  0.77682  0.40565  1.0000
  C   C329      1.0  0.94502  0.77017  0.41231  1.0000
  H   H242      1.0  0.95233  0.75830  0.46706  1.0000
  H   H243      1.0  0.90005  0.76994  0.45630  1.0000
  C   C330      1.0  0.98052  0.80374  0.64461  1.0000
  H   H244      1.0  0.95795  0.80354  0.61536  1.0000
  H   H245      1.0  0.98645  0.78086  0.66539  1.0000
  H   H246      1.0  0.99628  0.81089  0.59257  1.0000
  C   C331      1.0  0.28006  0.46412  0.34470  1.0000
  C   C332      1.0  0.29642  0.45030  0.41540  1.0000
  C   C333      1.0  0.30359  0.41894  0.41260  1.0000
  C   C334      1.0  0.29394  0.40042  0.34027  1.0000
  N   N61       1.0  0.31878  0.40703  0.48363  1.0000
  C   C335      1.0  0.32738  0.42325  0.55627  1.0000
  C   C336      1.0  0.31958  0.45391  0.56070  1.0000
  N   N62       1.0  0.30451  0.46611  0.48998  1.0000
  H   H247      1.0  0.33851  0.41292  0.60781  1.0000
  N   N63       1.0  0.32709  0.47094  0.63733  1.0000
  H   H248      1.0  0.33837  0.48998  0.61735  1.0000
  H   H249      1.0  0.28514  0.49377  0.65567  1.0000
  C   C337      1.0  0.72652  0.54390  0.33741  1.0000
  C   C338      1.0  0.71036  0.55723  0.40935  1.0000
  C   C339      1.0  0.70317  0.58860  0.40850  1.0000
  C   C340      1.0  0.71265  0.60759  0.33708  1.0000
  N   N64       1.0  0.68807  0.60003  0.48038  1.0000
  C   C341      1.0  0.67951  0.58331  0.55205  1.0000
  C   C342      1.0  0.68731  0.55263  0.55461  1.0000
  N   N65       1.0  0.70238  0.54092  0.48312  1.0000
  H   H250      1.0  0.66841  0.59329  0.60424  1.0000
  N   N66       1.0  0.67975  0.53506  0.63018  1.0000
  H   H251      1.0  0.67223  0.51434  0.60927  1.0000
  H   H252      1.0  0.72409  0.51998  0.66341  1.0000
  C   C343      1.0  0.46369  0.72711  0.34538  1.0000
  C   C344      1.0  0.44999  0.71071  0.41617  1.0000
  C   C345      1.0  0.41864  0.70345  0.41365  1.0000
  C   C346      1.0  0.40002  0.71305  0.34151  1.0000
  N   N67       1.0  0.40685  0.68824  0.48483  1.0000
  C   C347      1.0  0.42317  0.67967  0.55730  1.0000
  C   C348      1.0  0.45381  0.68755  0.56144  1.0000
  N   N68       1.0  0.46590  0.70266  0.49060  1.0000
  H   H253      1.0  0.41291  0.66856  0.60899  1.0000
  N   N69       1.0  0.47094  0.68011  0.63793  1.0000
  H   H254      1.0  0.48998  0.66886  0.61780  1.0000
  H   H255      1.0  0.49370  0.72211  0.65596  1.0000
  C   C349      1.0  0.54347  0.28071  0.33665  1.0000
  C   C350      1.0  0.55693  0.29681  0.40848  1.0000
  C   C351      1.0  0.58832  0.30393  0.40724  1.0000
  C   C352      1.0  0.60717  0.29441  0.33557  1.0000
  N   N70       1.0  0.59988  0.31901  0.47896  1.0000
  C   C353      1.0  0.58328  0.32760  0.55084  1.0000
  C   C354      1.0  0.55258  0.31987  0.55380  1.0000
  N   N71       1.0  0.54074  0.30483  0.48245  1.0000
  H   H256      1.0  0.59335  0.33869  0.60290  1.0000
  N   N72       1.0  0.53513  0.32747  0.62957  1.0000
  H   H257      1.0  0.51443  0.33509  0.60889  1.0000
  H   H258      1.0  0.51989  0.28318  0.66281  1.0000
  C   C355      1.0  0.25924  0.29341  0.32993  1.0000
  C   C356      1.0  0.25503  0.27345  0.40317  1.0000
  C   C357      1.0  0.23254  0.25045  0.40195  1.0000
  C   C358      1.0  0.21272  0.24707  0.32794  1.0000
  N   N73       1.0  0.22982  0.23258  0.47579  1.0000
  C   C359      1.0  0.24686  0.23591  0.55047  1.0000
  C   C360      1.0  0.26774  0.25969  0.55435  1.0000
  N   N74       1.0  0.27120  0.27697  0.47975  1.0000
  H   H259      1.0  0.24368  0.22204  0.60410  1.0000
  N   N75       1.0  0.28474  0.26565  0.63236  1.0000
  H   H260      1.0  0.29923  0.28288  0.61766  1.0000
  C   C361      1.0  0.74779  0.71442  0.33225  1.0000
  C   C362      1.0  0.75195  0.73416  0.40604  1.0000
  C   C363      1.0  0.77456  0.75705  0.40565  1.0000
  C   C364      1.0  0.79448  0.76051  0.33187  1.0000
  N   N76       1.0  0.77724  0.77469  0.47998  1.0000
  C   C365      1.0  0.76004  0.77123  0.55434  1.0000
  C   C366      1.0  0.73897  0.74759  0.55732  1.0000
  N   N77       1.0  0.73558  0.73053  0.48227  1.0000
  H   H261      1.0  0.76325  0.78491  0.60841  1.0000
  N   N78       1.0  0.72175  0.74155  0.63494  1.0000
  H   H262      1.0  0.70681  0.72470  0.61986  1.0000
  C   C367      1.0  0.71404  0.25942  0.32925  1.0000
  C   C368      1.0  0.73375  0.25524  0.40308  1.0000
  C   C369      1.0  0.75673  0.23272  0.40264  1.0000
  C   C370      1.0  0.76027  0.21283  0.32883  1.0000
  N   N79       1.0  0.77435  0.23005  0.47701  1.0000
  C   C371      1.0  0.77073  0.24713  0.55156  1.0000
  C   C372      1.0  0.74689  0.26796  0.55474  1.0000
  N   N80       1.0  0.72991  0.27140  0.47955  1.0000
  H   H263      1.0  0.78442  0.24393  0.60564  1.0000
  N   N81       1.0  0.74048  0.28491  0.63261  1.0000
  H   H264      1.0  0.72307  0.29922  0.61787  1.0000
  C   C373      1.0  0.29309  0.74799  0.33284  1.0000
  C   C374      1.0  0.27317  0.75214  0.40622  1.0000
  C   C375      1.0  0.25023  0.77470  0.40527  1.0000
  C   C376      1.0  0.24687  0.79457  0.33137  1.0000
  N   N82       1.0  0.23240  0.77737  0.47922  1.0000
  C   C377      1.0  0.23569  0.76018  0.55365  1.0000
  C   C378      1.0  0.25934  0.73915  0.55716  1.0000
  N   N83       1.0  0.27661  0.73578  0.48253  1.0000
  H   H265      1.0  0.22188  0.76338  0.60744  1.0000
  N   N84       1.0  0.26516  0.72194  0.63492  1.0000
  H   H266      1.0  0.28197  0.70695  0.61998  1.0000
  C   C379      1.0  0.52669  0.98154  0.34210  1.0000
  C   C380      1.0  0.50718  0.98378  0.41715  1.0000
  C   C381      1.0  0.48454  0.00639  0.42013  1.0000
  C   C382      1.0  0.48137  0.02708  0.34828  1.0000
  N   N85       1.0  0.46668  0.00776  0.49438  1.0000
  C   C383      1.0  0.46939  0.98876  0.56517  1.0000
  C   C384      1.0  0.49203  0.96656  0.56346  1.0000
  N   N86       1.0  0.50979  0.96504  0.48919  1.0000
  H   H267      1.0  0.45524  0.99089  0.61887  1.0000
  N   N87       1.0  0.49559  0.94620  0.63567  1.0000
  H   H268      1.0  0.50624  0.92705  0.61353  1.0000
  C   C385      1.0  0.02569  0.52672  0.34208  1.0000
  C   C386      1.0  0.02349  0.50727  0.41728  1.0000
  C   C387      1.0  0.00087  0.48465  0.42051  1.0000
  C   C388      1.0  0.98014  0.48144  0.34880  1.0000
  N   N88       1.0  0.99953  0.46684  0.49489  1.0000
  C   C389      1.0  0.01855  0.46961  0.56560  1.0000
  C   C390      1.0  0.04076  0.49223  0.56364  1.0000
  N   N89       1.0  0.04226  0.50993  0.48922  1.0000
  H   H269      1.0  0.01645  0.45549  0.61938  1.0000
  N   N90       1.0  0.06117  0.49585  0.63573  1.0000
  H   H270      1.0  0.08023  0.50667  0.61356  1.0000
