data_image0
_chemical_formula_structural       C8H3NC3O2HC3O2HNC8H3NC3O2HC3O2HNC3O2HNOHC4HCH2C4HCH2NOC3O2H2C3O2HNOHC4HCH2C4HCH2NOC3O2H2CNC2O2HCNC2OC18NC3OHNC3O2CNC2O2HCNC2OC18NC3OHNC3O2C7HCH2CNC2O2HCNC2O2HCHCH2C2H3NC3O2HNC3O2HC7HCH2CNC2O2HCNC2O2HCHCH2C2H3NC3O2HNC3O2HC8HC7HCH4CNC2O2HCNC2O2HCNC2O2HCNC2O2HCNC2O2HCNC2O2HC8HC7HCH4C8HC7HCH4NC3O2HNC3O2HNC3O2HNC3O2HNC3O2HNC3O2HC8HC7HCH4CNC2O2HCNC2O2HCNC2O2HCNC2O2HCNC2O2HCNC2O2HC8HC7HCH4C8HC7HCH4NC3O2HNC3O2HNC3O2HNC3O2HNC3O2HNC3O2H
_chemical_formula_sum              "C336 H120 N48 O96"
_cell_length_a       46.5023
_cell_length_b       46.5023
_cell_length_c       14.8098
_cell_angle_alpha    89.998
_cell_angle_beta     90.002
_cell_angle_gamma    120

_space_group_name_H-M_alt    "P 1"
_space_group_IT_number       1

loop_
  _space_group_symop_operation_xyz
  'x, y, z'

loop_
  _atom_site_type_symbol
  _atom_site_label
  _atom_site_symmetry_multiplicity
  _atom_site_fract_x
  _atom_site_fract_y
  _atom_site_fract_z
  _atom_site_occupancy
  C   C1        1.0  0.02789  0.26468  0.34350  1.0000
  C   C2        1.0  0.04573  0.30025  0.34368  1.0000
  C   C3        1.0  0.08112  0.31802  0.34478  1.0000
  C   C4        1.0  0.09792  0.29982  0.34741  1.0000
  C   C5        1.0  0.08122  0.26481  0.34766  1.0000
  C   C6        1.0  0.04585  0.24707  0.34472  1.0000
  C   C7        1.0  0.02735  0.31694  0.34424  1.0000
  C   C8        1.0  0.02760  0.21199  0.34488  1.0000
  H   H1        1.0  0.12347  0.31263  0.34865  1.0000
  H   H2        1.0  0.03918  0.34233  0.34525  1.0000
  H   H3        1.0  0.03952  0.19853  0.34603  1.0000
  N   N1        1.0  0.11634  0.24962  0.27342  1.0000
  C   C9        1.0  0.10173  0.35307  0.34496  1.0000
  C   C10       1.0  0.11781  0.37072  0.26497  1.0000
  C   C11       1.0  0.10698  0.35778  0.17902  1.0000
  O   O1        1.0  0.12766  0.36072  0.12318  1.0000
  O   O2        1.0  0.08068  0.35376  0.14709  1.0000
  H   H4        1.0  0.06489  0.35461  0.17828  1.0000
  C   C12       1.0  0.12022  0.25326  0.43207  1.0000
  C   C13       1.0  0.10184  0.25042  0.35250  1.0000
  C   C14       1.0  0.11176  0.25960  0.51691  1.0000
  O   O3        1.0  0.13375  0.27800  0.56889  1.0000
  O   O4        1.0  0.08450  0.24135  0.55246  1.0000
  H   H5        1.0  0.06726  0.22476  0.52515  1.0000
  N   N2        1.0  0.11857  0.36629  0.42314  1.0000
  C   C15       1.0  0.02789  0.76468  0.34350  1.0000
  C   C16       1.0  0.04573  0.80025  0.34368  1.0000
  C   C17       1.0  0.08111  0.81802  0.34478  1.0000
  C   C18       1.0  0.09792  0.79982  0.34741  1.0000
  C   C19       1.0  0.08122  0.76480  0.34766  1.0000
  C   C20       1.0  0.04585  0.74707  0.34472  1.0000
  C   C21       1.0  0.02735  0.81694  0.34424  1.0000
  C   C22       1.0  0.02759  0.71199  0.34488  1.0000
  H   H6        1.0  0.12347  0.81263  0.34865  1.0000
  H   H7        1.0  0.03918  0.84233  0.34525  1.0000
  H   H8        1.0  0.03952  0.69853  0.34603  1.0000
  N   N3        1.0  0.11634  0.74962  0.27342  1.0000
  C   C23       1.0  0.10173  0.85307  0.34496  1.0000
  C   C24       1.0  0.11781  0.87072  0.26497  1.0000
  C   C25       1.0  0.10698  0.85778  0.17902  1.0000
  O   O5        1.0  0.12766  0.86073  0.12318  1.0000
  O   O6        1.0  0.08068  0.85376  0.14709  1.0000
  H   H9        1.0  0.06489  0.85461  0.17828  1.0000
  C   C26       1.0  0.12023  0.75326  0.43207  1.0000
  C   C27       1.0  0.10184  0.75042  0.35250  1.0000
  C   C28       1.0  0.11176  0.75960  0.51691  1.0000
  O   O7        1.0  0.13375  0.77800  0.56889  1.0000
  O   O8        1.0  0.08450  0.74135  0.55246  1.0000
  H   H10       1.0  0.06726  0.72476  0.52515  1.0000
  N   N4        1.0  0.11857  0.86629  0.42314  1.0000
  C   C29       1.0  0.16269  0.25002  0.34449  1.0000
  C   C30       1.0  0.14486  0.24828  0.26481  1.0000
  C   C31       1.0  0.15769  0.25040  0.17875  1.0000
  O   O9        1.0  0.15465  0.26794  0.12244  1.0000
  O   O10       1.0  0.16225  0.22840  0.14726  1.0000
  H   H11       1.0  0.16155  0.21185  0.17857  1.0000
  N   N5        1.0  0.14764  0.39929  0.27337  1.0000
  O   O11       1.0  0.23371  0.07658  0.14641  1.0000
  H   H12       1.0  0.21721  0.06059  0.17747  1.0000
  C   C32       1.0  0.21554  0.24692  0.34369  1.0000
  C   C33       1.0  0.19775  0.26452  0.34481  1.0000
  C   C34       1.0  0.21595  0.29954  0.34729  1.0000
  C   C35       1.0  0.19886  0.21184  0.34437  1.0000
  H   H13       1.0  0.20314  0.31227  0.34855  1.0000
  C   C36       1.0  0.21635  0.19448  0.34479  1.0000
  H   H14       1.0  0.20289  0.16909  0.34585  1.0000
  H   H15       1.0  0.17348  0.19828  0.34548  1.0000
  C   C37       1.0  0.21622  0.41785  0.34683  1.0000
  C   C38       1.0  0.19795  0.43460  0.34713  1.0000
  C   C39       1.0  0.21562  0.46997  0.34448  1.0000
  C   C40       1.0  0.19882  0.48825  0.34454  1.0000
  H   H16       1.0  0.20345  0.39230  0.34801  1.0000
  C   C41       1.0  0.21622  0.02310  0.34408  1.0000
  H   H17       1.0  0.20268  0.03495  0.34503  1.0000
  H   H18       1.0  0.17343  0.47635  0.34552  1.0000
  N   N6        1.0  0.14969  0.25392  0.42282  1.0000
  O   O12       1.0  0.23831  0.35741  0.56966  1.0000
  C   C42       1.0  0.14736  0.39579  0.43197  1.0000
  C   C43       1.0  0.16296  0.41404  0.35225  1.0000
  C   C44       1.0  0.16217  0.40447  0.51677  1.0000
  O   O13       1.0  0.15870  0.38261  0.56910  1.0000
  O   O14       1.0  0.17109  0.43177  0.55190  1.0000
  H   H19       1.0  0.17164  0.44892  0.52430  1.0000
  H   H20       1.0  0.22891  0.16742  0.52471  1.0000
  C   C45       1.0  0.16269  0.75002  0.34449  1.0000
  C   C46       1.0  0.14485  0.74828  0.26481  1.0000
  C   C47       1.0  0.15769  0.75041  0.17875  1.0000
  O   O15       1.0  0.15465  0.76794  0.12244  1.0000
  O   O16       1.0  0.16225  0.72840  0.14726  1.0000
  H   H21       1.0  0.16155  0.71186  0.17857  1.0000
  N   N7        1.0  0.14763  0.89929  0.27337  1.0000
  O   O17       1.0  0.23371  0.57658  0.14641  1.0000
  H   H22       1.0  0.21721  0.56059  0.17747  1.0000
  C   C48       1.0  0.21554  0.74692  0.34369  1.0000
  C   C49       1.0  0.19775  0.76452  0.34481  1.0000
  C   C50       1.0  0.21595  0.79954  0.34729  1.0000
  C   C51       1.0  0.19886  0.71184  0.34437  1.0000
  H   H23       1.0  0.20314  0.81227  0.34855  1.0000
  C   C52       1.0  0.21635  0.69448  0.34479  1.0000
  H   H24       1.0  0.20289  0.66909  0.34585  1.0000
  H   H25       1.0  0.17348  0.69828  0.34548  1.0000
  C   C53       1.0  0.21622  0.91785  0.34683  1.0000
  C   C54       1.0  0.19795  0.93460  0.34713  1.0000
  C   C55       1.0  0.21562  0.96997  0.34448  1.0000
  C   C56       1.0  0.19882  0.98825  0.34454  1.0000
  H   H26       1.0  0.20345  0.89230  0.34801  1.0000
  C   C57       1.0  0.21622  0.52310  0.34408  1.0000
  H   H27       1.0  0.20268  0.53495  0.34503  1.0000
  H   H28       1.0  0.17343  0.97635  0.34552  1.0000
  N   N8        1.0  0.14969  0.75392  0.42282  1.0000
  O   O18       1.0  0.23831  0.85741  0.56966  1.0000
  C   C58       1.0  0.14736  0.89579  0.43197  1.0000
  C   C59       1.0  0.16296  0.91404  0.35225  1.0000
  C   C60       1.0  0.16217  0.90447  0.51677  1.0000
  O   O19       1.0  0.15870  0.88261  0.56910  1.0000
  O   O20       1.0  0.17109  0.93177  0.55190  1.0000
  H   H29       1.0  0.17164  0.94892  0.52430  1.0000
  H   H30       1.0  0.22891  0.66742  0.52471  1.0000
  C   C61       1.0  0.26565  0.41398  0.34475  1.0000
  N   N9        1.0  0.26584  0.36795  0.27374  1.0000
  C   C62       1.0  0.26710  0.39776  0.26496  1.0000
  C   C63       1.0  0.26484  0.40834  0.17880  1.0000
  O   O21       1.0  0.24690  0.38767  0.12324  1.0000
  O   O22       1.0  0.28669  0.43497  0.14720  1.0000
  H   H31       1.0  0.30334  0.45079  0.17828  1.0000
  C   C64       1.0  0.25447  0.09743  0.34393  1.0000
  N   N10       1.0  0.25432  0.14356  0.27327  1.0000
  C   C65       1.0  0.25303  0.11374  0.26433  1.0000
  C   C66       1.0  0.25543  0.10324  0.17822  1.0000
  O   O23       1.0  0.27292  0.12396  0.12218  1.0000
  C   C67       1.0  0.25111  0.26465  0.34349  1.0000
  C   C68       1.0  0.25097  0.31785  0.34745  1.0000
  C   C69       1.0  0.26870  0.30021  0.34467  1.0000
  C   C70       1.0  0.30378  0.31705  0.34480  1.0000
  C   C71       1.0  0.26903  0.24688  0.34344  1.0000
  C   C72       1.0  0.25143  0.21132  0.34458  1.0000
  C   C73       1.0  0.26918  0.19368  0.34718  1.0000
  C   C74       1.0  0.30419  0.21200  0.34684  1.0000
  C   C75       1.0  0.30459  0.26462  0.34357  1.0000
  C   C76       1.0  0.25118  0.48789  0.34347  1.0000
  C   C77       1.0  0.26888  0.47002  0.34374  1.0000
  C   C78       1.0  0.25123  0.43462  0.34454  1.0000
  C   C79       1.0  0.30395  0.48837  0.34456  1.0000
  C   C80       1.0  0.26899  0.02358  0.34349  1.0000
  C   C81       1.0  0.30455  0.04150  0.34473  1.0000
  C   C82       1.0  0.30395  0.09362  0.34683  1.0000
  C   C83       1.0  0.26894  0.07685  0.34443  1.0000
  C   C84       1.0  0.25130  0.04145  0.34353  1.0000
  N   N11       1.0  0.26205  0.39731  0.42326  1.0000
  C   C85       1.0  0.26276  0.36852  0.43246  1.0000
  C   C86       1.0  0.26539  0.35284  0.35297  1.0000
  C   C87       1.0  0.25657  0.35375  0.51731  1.0000
  O   O24       1.0  0.27479  0.34462  0.55243  1.0000
  H   H32       1.0  0.29131  0.34392  0.52484  1.0000
  N   N12       1.0  0.25817  0.11418  0.42240  1.0000
  C   C88       1.0  0.25748  0.14297  0.43177  1.0000
  C   C89       1.0  0.25478  0.15870  0.35242  1.0000
  C   C90       1.0  0.26373  0.15771  0.51669  1.0000
  O   O25       1.0  0.28207  0.15407  0.56878  1.0000
  O   O26       1.0  0.24548  0.16673  0.55212  1.0000
  C   C91       1.0  0.26564  0.91398  0.34475  1.0000
  N   N13       1.0  0.26584  0.86795  0.27374  1.0000
  C   C92       1.0  0.26710  0.89776  0.26496  1.0000
  C   C93       1.0  0.26484  0.90834  0.17880  1.0000
  O   O27       1.0  0.24690  0.88767  0.12324  1.0000
  O   O28       1.0  0.28669  0.93497  0.14720  1.0000
  H   H33       1.0  0.30334  0.95079  0.17828  1.0000
  C   C94       1.0  0.25447  0.59743  0.34393  1.0000
  N   N14       1.0  0.25432  0.64356  0.27327  1.0000
  C   C95       1.0  0.25303  0.61374  0.26433  1.0000
  C   C96       1.0  0.25543  0.60324  0.17822  1.0000
  O   O29       1.0  0.27292  0.62396  0.12218  1.0000
  C   C97       1.0  0.25110  0.76465  0.34349  1.0000
  C   C98       1.0  0.25097  0.81785  0.34745  1.0000
  C   C99       1.0  0.26870  0.80021  0.34467  1.0000
  C   C100      1.0  0.30378  0.81705  0.34480  1.0000
  C   C101      1.0  0.26903  0.74688  0.34344  1.0000
  C   C102      1.0  0.25143  0.71132  0.34458  1.0000
  C   C103      1.0  0.26918  0.69368  0.34718  1.0000
  C   C104      1.0  0.30419  0.71200  0.34684  1.0000
  C   C105      1.0  0.30459  0.76462  0.34357  1.0000
  C   C106      1.0  0.25118  0.98789  0.34347  1.0000
  C   C107      1.0  0.26887  0.97002  0.34374  1.0000
  C   C108      1.0  0.25123  0.93462  0.34454  1.0000
  C   C109      1.0  0.30395  0.98837  0.34456  1.0000
  C   C110      1.0  0.26899  0.52358  0.34349  1.0000
  C   C111      1.0  0.30455  0.54150  0.34473  1.0000
  C   C112      1.0  0.30395  0.59362  0.34683  1.0000
  C   C113      1.0  0.26894  0.57685  0.34443  1.0000
  C   C114      1.0  0.25130  0.54145  0.34353  1.0000
  N   N15       1.0  0.26205  0.89731  0.42326  1.0000
  C   C115      1.0  0.26276  0.86852  0.43246  1.0000
  C   C116      1.0  0.26539  0.85284  0.35297  1.0000
  C   C117      1.0  0.25657  0.85375  0.51731  1.0000
  O   O30       1.0  0.27479  0.84462  0.55243  1.0000
  H   H34       1.0  0.29131  0.84391  0.52484  1.0000
  N   N16       1.0  0.25817  0.61419  0.42240  1.0000
  C   C118      1.0  0.25748  0.64297  0.43177  1.0000
  C   C119      1.0  0.25478  0.65870  0.35242  1.0000
  C   C120      1.0  0.26373  0.65771  0.51669  1.0000
  O   O31       1.0  0.28207  0.65407  0.56878  1.0000
  O   O32       1.0  0.24547  0.66673  0.55212  1.0000
  C   C121      1.0  0.49220  0.24677  0.34343  1.0000
  C   C122      1.0  0.47424  0.26438  0.34444  1.0000
  C   C123      1.0  0.43887  0.24665  0.34710  1.0000
  C   C124      1.0  0.42216  0.21163  0.34678  1.0000
  C   C125      1.0  0.43897  0.19343  0.34446  1.0000
  C   C126      1.0  0.47436  0.21121  0.34365  1.0000
  C   C127      1.0  0.49250  0.29946  0.34455  1.0000
  H   H35       1.0  0.39662  0.19883  0.34787  1.0000
  C   C128      1.0  0.49275  0.19451  0.34440  1.0000
  H   H36       1.0  0.48057  0.31293  0.34556  1.0000
  H   H37       1.0  0.48091  0.16913  0.34541  1.0000
  C   C129      1.0  0.35744  0.26152  0.34390  1.0000
  N   N17       1.0  0.40367  0.26169  0.27273  1.0000
  C   C130      1.0  0.37515  0.26302  0.26416  1.0000
  C   C131      1.0  0.36223  0.26080  0.17817  1.0000
  O   O33       1.0  0.36531  0.24330  0.12185  1.0000
  O   O34       1.0  0.35746  0.28268  0.14669  1.0000
  H   H38       1.0  0.35812  0.29921  0.17798  1.0000
  C   C132      1.0  0.41837  0.15837  0.34450  1.0000
  N   N18       1.0  0.37234  0.11220  0.27344  1.0000
  C   C133      1.0  0.40214  0.14076  0.26465  1.0000
  C   C134      1.0  0.41266  0.15367  0.17852  1.0000
  O   O35       1.0  0.39195  0.15090  0.12305  1.0000
  O   O36       1.0  0.43936  0.15869  0.14685  1.0000
  H   H39       1.0  0.45524  0.15793  0.17782  1.0000
  C   C135      1.0  0.32238  0.24702  0.34448  1.0000
  H   H40       1.0  0.31700  0.19927  0.34792  1.0000
  C   C136      1.0  0.32127  0.29969  0.34426  1.0000
  H   H41       1.0  0.34666  0.31325  0.34530  1.0000
  H   H42       1.0  0.31725  0.34244  0.34589  1.0000
  C   C137      1.0  0.32222  0.07688  0.34730  1.0000
  C   C138      1.0  0.32135  0.02322  0.34502  1.0000
  H   H43       1.0  0.31671  0.11917  0.34793  1.0000
  H   H44       1.0  0.34674  0.03512  0.34614  1.0000
  H   H45       1.0  0.31748  0.47651  0.34565  1.0000
  N   N19       1.0  0.37052  0.25774  0.42225  1.0000
  C   C139      1.0  0.39998  0.25838  0.43143  1.0000
  C   C140      1.0  0.41826  0.26104  0.35179  1.0000
  C   C141      1.0  0.40844  0.25211  0.51637  1.0000
  O   O37       1.0  0.38646  0.23320  0.56764  1.0000
  O   O38       1.0  0.43580  0.27013  0.55161  1.0000
  H   H46       1.0  0.45297  0.28687  0.52447  1.0000
  N   N20       1.0  0.40173  0.14522  0.42297  1.0000
  C   C142      1.0  0.37295  0.11571  0.43206  1.0000
  C   C143      1.0  0.35721  0.09743  0.35253  1.0000
  C   C144      1.0  0.35822  0.10708  0.51696  1.0000
  O   O39       1.0  0.36178  0.12897  0.56929  1.0000
  O   O40       1.0  0.34925  0.07977  0.55208  1.0000
  H   H47       1.0  0.34863  0.06259  0.52447  1.0000
  C   C145      1.0  0.49220  0.74677  0.34343  1.0000
  C   C146      1.0  0.47425  0.76438  0.34444  1.0000
  C   C147      1.0  0.43887  0.74665  0.34710  1.0000
  C   C148      1.0  0.42216  0.71163  0.34678  1.0000
  C   C149      1.0  0.43897  0.69343  0.34446  1.0000
  C   C150      1.0  0.47436  0.71121  0.34365  1.0000
  C   C151      1.0  0.49250  0.79946  0.34455  1.0000
  H   H48       1.0  0.39662  0.69883  0.34787  1.0000
  C   C152      1.0  0.49275  0.69451  0.34440  1.0000
  H   H49       1.0  0.48057  0.81292  0.34556  1.0000
  H   H50       1.0  0.48091  0.66913  0.34541  1.0000
  C   C153      1.0  0.35744  0.76152  0.34390  1.0000
  N   N21       1.0  0.40367  0.76169  0.27273  1.0000
  C   C154      1.0  0.37515  0.76302  0.26416  1.0000
  C   C155      1.0  0.36223  0.76080  0.17817  1.0000
  O   O41       1.0  0.36531  0.74330  0.12185  1.0000
  O   O42       1.0  0.35746  0.78268  0.14669  1.0000
  H   H51       1.0  0.35812  0.79921  0.17798  1.0000
  C   C156      1.0  0.41837  0.65837  0.34450  1.0000
  N   N22       1.0  0.37234  0.61220  0.27344  1.0000
  C   C157      1.0  0.40214  0.64076  0.26465  1.0000
  C   C158      1.0  0.41266  0.65367  0.17852  1.0000
  O   O43       1.0  0.39194  0.65090  0.12305  1.0000
  O   O44       1.0  0.43936  0.65869  0.14685  1.0000
  H   H52       1.0  0.45524  0.65793  0.17782  1.0000
  C   C159      1.0  0.32238  0.74702  0.34448  1.0000
  H   H53       1.0  0.31700  0.69927  0.34792  1.0000
  C   C160      1.0  0.32127  0.79969  0.34426  1.0000
  H   H54       1.0  0.34666  0.81325  0.34530  1.0000
  H   H55       1.0  0.31725  0.84244  0.34589  1.0000
  C   C161      1.0  0.32222  0.57688  0.34730  1.0000
  C   C162      1.0  0.32135  0.52322  0.34502  1.0000
  H   H56       1.0  0.31671  0.61917  0.34793  1.0000
  H   H57       1.0  0.34673  0.53512  0.34614  1.0000
  H   H58       1.0  0.31748  0.97651  0.34565  1.0000
  N   N23       1.0  0.37052  0.75774  0.42225  1.0000
  C   C163      1.0  0.39997  0.75838  0.43143  1.0000
  C   C164      1.0  0.41826  0.76104  0.35179  1.0000
  C   C165      1.0  0.40844  0.75211  0.51637  1.0000
  O   O45       1.0  0.38646  0.73320  0.56764  1.0000
  O   O46       1.0  0.43580  0.77013  0.55161  1.0000
  H   H59       1.0  0.45297  0.78687  0.52447  1.0000
  N   N24       1.0  0.40173  0.64522  0.42297  1.0000
  C   C166      1.0  0.37295  0.61572  0.43206  1.0000
  C   C167      1.0  0.35721  0.59743  0.35253  1.0000
  C   C168      1.0  0.35822  0.60708  0.51696  1.0000
  O   O47       1.0  0.36178  0.62897  0.56929  1.0000
  O   O48       1.0  0.34925  0.57977  0.55208  1.0000
  H   H60       1.0  0.34863  0.56259  0.52447  1.0000
  C   C169      1.0  0.52789  0.26468  0.34350  1.0000
  C   C170      1.0  0.54573  0.30025  0.34368  1.0000
  C   C171      1.0  0.58112  0.31802  0.34478  1.0000
  C   C172      1.0  0.59792  0.29982  0.34741  1.0000
  C   C173      1.0  0.58122  0.26481  0.34766  1.0000
  C   C174      1.0  0.54585  0.24707  0.34472  1.0000
  C   C175      1.0  0.52735  0.31694  0.34424  1.0000
  C   C176      1.0  0.52759  0.21199  0.34488  1.0000
  H   H61       1.0  0.62347  0.31263  0.34865  1.0000
  C   C177      1.0  0.99220  0.24677  0.34343  1.0000
  C   C178      1.0  0.97425  0.26438  0.34444  1.0000
  C   C179      1.0  0.93887  0.24665  0.34710  1.0000
  C   C180      1.0  0.92216  0.21163  0.34678  1.0000
  C   C181      1.0  0.93897  0.19343  0.34446  1.0000
  C   C182      1.0  0.97436  0.21121  0.34365  1.0000
  C   C183      1.0  0.99250  0.29946  0.34455  1.0000
  H   H62       1.0  0.89662  0.19883  0.34787  1.0000
  C   C184      1.0  0.99275  0.19451  0.34440  1.0000
  H   H63       1.0  0.98057  0.31293  0.34556  1.0000
  H   H64       1.0  0.53918  0.34233  0.34525  1.0000
  H   H65       1.0  0.98091  0.16913  0.34541  1.0000
  H   H66       1.0  0.53952  0.19853  0.34603  1.0000
  C   C185      1.0  0.66269  0.25002  0.34449  1.0000
  N   N25       1.0  0.61634  0.24962  0.27342  1.0000
  C   C186      1.0  0.64486  0.24828  0.26481  1.0000
  C   C187      1.0  0.65769  0.25040  0.17875  1.0000
  O   O49       1.0  0.65465  0.26794  0.12244  1.0000
  O   O50       1.0  0.66225  0.22840  0.14726  1.0000
  H   H67       1.0  0.66155  0.21185  0.17857  1.0000
  C   C188      1.0  0.76564  0.41398  0.34475  1.0000
  N   N26       1.0  0.76584  0.36795  0.27374  1.0000
  C   C189      1.0  0.76710  0.39776  0.26496  1.0000
  C   C190      1.0  0.76484  0.40834  0.17880  1.0000
  O   O51       1.0  0.74690  0.38767  0.12324  1.0000
  O   O52       1.0  0.78669  0.43497  0.14720  1.0000
  H   H68       1.0  0.80334  0.45079  0.17828  1.0000
  C   C191      1.0  0.60173  0.35307  0.34496  1.0000
  N   N27       1.0  0.64764  0.39929  0.27337  1.0000
  C   C192      1.0  0.61781  0.37072  0.26497  1.0000
  C   C193      1.0  0.60698  0.35778  0.17902  1.0000
  O   O53       1.0  0.62766  0.36072  0.12318  1.0000
  O   O54       1.0  0.58069  0.35376  0.14709  1.0000
  H   H69       1.0  0.56489  0.35461  0.17828  1.0000
  C   C194      1.0  0.85744  0.26152  0.34390  1.0000
  N   N28       1.0  0.90367  0.26169  0.27273  1.0000
  C   C195      1.0  0.87515  0.26302  0.26416  1.0000
  C   C196      1.0  0.86223  0.26080  0.17817  1.0000
  O   O55       1.0  0.86531  0.24330  0.12185  1.0000
  O   O56       1.0  0.85746  0.28268  0.14669  1.0000
  H   H70       1.0  0.85812  0.29921  0.17798  1.0000
  C   C197      1.0  0.75447  0.09743  0.34393  1.0000
  N   N29       1.0  0.75432  0.14356  0.27327  1.0000
  C   C198      1.0  0.75303  0.11374  0.26433  1.0000
  C   C199      1.0  0.75543  0.10324  0.17822  1.0000
  O   O57       1.0  0.77292  0.12396  0.12218  1.0000
  O   O58       1.0  0.73371  0.07658  0.14641  1.0000
  H   H71       1.0  0.71721  0.06059  0.17747  1.0000
  C   C200      1.0  0.91837  0.15837  0.34450  1.0000
  N   N30       1.0  0.87234  0.11220  0.27344  1.0000
  C   C201      1.0  0.90214  0.14076  0.26465  1.0000
  C   C202      1.0  0.91266  0.15367  0.17852  1.0000
  O   O59       1.0  0.89194  0.15090  0.12305  1.0000
  O   O60       1.0  0.93936  0.15869  0.14685  1.0000
  H   H72       1.0  0.95524  0.15793  0.17782  1.0000
  C   C203      1.0  0.75110  0.26465  0.34349  1.0000
  C   C204      1.0  0.71554  0.24692  0.34369  1.0000
  C   C205      1.0  0.69775  0.26452  0.34481  1.0000
  C   C206      1.0  0.71595  0.29954  0.34729  1.0000
  C   C207      1.0  0.75097  0.31785  0.34745  1.0000
  C   C208      1.0  0.76870  0.30021  0.34467  1.0000
  C   C209      1.0  0.69886  0.21184  0.34437  1.0000
  C   C210      1.0  0.80378  0.31705  0.34480  1.0000
  H   H73       1.0  0.70314  0.31227  0.34855  1.0000
  C   C211      1.0  0.76903  0.24688  0.34344  1.0000
  C   C212      1.0  0.75143  0.21132  0.34458  1.0000
  C   C213      1.0  0.76918  0.19368  0.34718  1.0000
  C   C214      1.0  0.80419  0.21200  0.34684  1.0000
  C   C215      1.0  0.82238  0.24702  0.34448  1.0000
  C   C216      1.0  0.80459  0.26462  0.34357  1.0000
  C   C217      1.0  0.71635  0.19448  0.34479  1.0000
  H   H74       1.0  0.81701  0.19927  0.34792  1.0000
  C   C218      1.0  0.82127  0.29969  0.34426  1.0000
  H   H75       1.0  0.70289  0.16909  0.34585  1.0000
  H   H76       1.0  0.67348  0.19828  0.34548  1.0000
  H   H77       1.0  0.84666  0.31325  0.34530  1.0000
  H   H78       1.0  0.81724  0.34244  0.34589  1.0000
  C   C219      1.0  0.75118  0.48789  0.34347  1.0000
  C   C220      1.0  0.76887  0.47002  0.34374  1.0000
  C   C221      1.0  0.75123  0.43462  0.34454  1.0000
  C   C222      1.0  0.71622  0.41785  0.34683  1.0000
  C   C223      1.0  0.69795  0.43460  0.34713  1.0000
  C   C224      1.0  0.71562  0.46997  0.34448  1.0000
  C   C225      1.0  0.80395  0.48837  0.34456  1.0000
  C   C226      1.0  0.69882  0.48825  0.34454  1.0000
  H   H79       1.0  0.70345  0.39230  0.34801  1.0000
  C   C227      1.0  0.76899  0.02358  0.34349  1.0000
  C   C228      1.0  0.80455  0.04150  0.34473  1.0000
  C   C229      1.0  0.82222  0.07688  0.34730  1.0000
  C   C230      1.0  0.80395  0.09362  0.34683  1.0000
  C   C231      1.0  0.76894  0.07685  0.34443  1.0000
  C   C232      1.0  0.75130  0.04145  0.34353  1.0000
  C   C233      1.0  0.82135  0.02322  0.34502  1.0000
  H   H80       1.0  0.81671  0.11917  0.34793  1.0000
  C   C234      1.0  0.71622  0.02310  0.34408  1.0000
  H   H81       1.0  0.84673  0.03512  0.34614  1.0000
  H   H82       1.0  0.81748  0.47651  0.34565  1.0000
  H   H83       1.0  0.70268  0.03495  0.34503  1.0000
  H   H84       1.0  0.67343  0.47635  0.34552  1.0000
  N   N31       1.0  0.64969  0.25392  0.42282  1.0000
  C   C235      1.0  0.62023  0.25326  0.43207  1.0000
  C   C236      1.0  0.60184  0.25042  0.35250  1.0000
  C   C237      1.0  0.61176  0.25960  0.51691  1.0000
  O   O61       1.0  0.63375  0.27800  0.56889  1.0000
  O   O62       1.0  0.58450  0.24135  0.55246  1.0000
  H   H85       1.0  0.56726  0.22476  0.52515  1.0000
  N   N32       1.0  0.76205  0.39731  0.42326  1.0000
  C   C238      1.0  0.76276  0.36852  0.43246  1.0000
  C   C239      1.0  0.76539  0.35284  0.35297  1.0000
  C   C240      1.0  0.75657  0.35375  0.51731  1.0000
  O   O63       1.0  0.73831  0.35741  0.56966  1.0000
  O   O64       1.0  0.77479  0.34462  0.55243  1.0000
  H   H86       1.0  0.79131  0.34392  0.52484  1.0000
  N   N33       1.0  0.61857  0.36629  0.42314  1.0000
  C   C241      1.0  0.64736  0.39579  0.43197  1.0000
  C   C242      1.0  0.66296  0.41404  0.35225  1.0000
  C   C243      1.0  0.66217  0.40447  0.51677  1.0000
  O   O65       1.0  0.65870  0.38261  0.56910  1.0000
  O   O66       1.0  0.67109  0.43177  0.55190  1.0000
  H   H87       1.0  0.67164  0.44892  0.52430  1.0000
  N   N34       1.0  0.87052  0.25774  0.42225  1.0000
  C   C244      1.0  0.89997  0.25838  0.43143  1.0000
  C   C245      1.0  0.91826  0.26104  0.35179  1.0000
  C   C246      1.0  0.90844  0.25211  0.51637  1.0000
  O   O67       1.0  0.88646  0.23320  0.56764  1.0000
  O   O68       1.0  0.93580  0.27013  0.55161  1.0000
  H   H88       1.0  0.95297  0.28687  0.52447  1.0000
  N   N35       1.0  0.75817  0.11418  0.42240  1.0000
  C   C247      1.0  0.75748  0.14297  0.43177  1.0000
  C   C248      1.0  0.75478  0.15870  0.35242  1.0000
  C   C249      1.0  0.76372  0.15771  0.51669  1.0000
  O   O69       1.0  0.78207  0.15407  0.56878  1.0000
  O   O70       1.0  0.74548  0.16673  0.55212  1.0000
  H   H89       1.0  0.72891  0.16742  0.52471  1.0000
  N   N36       1.0  0.90173  0.14522  0.42297  1.0000
  C   C250      1.0  0.87295  0.11571  0.43206  1.0000
  C   C251      1.0  0.85721  0.09743  0.35253  1.0000
  C   C252      1.0  0.85822  0.10708  0.51696  1.0000
  O   O71       1.0  0.86178  0.12897  0.56929  1.0000
  O   O72       1.0  0.84925  0.07977  0.55208  1.0000
  H   H90       1.0  0.84863  0.06259  0.52447  1.0000
  C   C253      1.0  0.52789  0.76468  0.34350  1.0000
  C   C254      1.0  0.54573  0.80025  0.34368  1.0000
  C   C255      1.0  0.58111  0.81802  0.34478  1.0000
  C   C256      1.0  0.59792  0.79982  0.34741  1.0000
  C   C257      1.0  0.58122  0.76480  0.34766  1.0000
  C   C258      1.0  0.54585  0.74707  0.34472  1.0000
  C   C259      1.0  0.52735  0.81694  0.34424  1.0000
  C   C260      1.0  0.52759  0.71199  0.34488  1.0000
  H   H91       1.0  0.62347  0.81263  0.34865  1.0000
  C   C261      1.0  0.99220  0.74677  0.34343  1.0000
  C   C262      1.0  0.97425  0.76438  0.34444  1.0000
  C   C263      1.0  0.93887  0.74665  0.34710  1.0000
  C   C264      1.0  0.92216  0.71163  0.34678  1.0000
  C   C265      1.0  0.93897  0.69343  0.34446  1.0000
  C   C266      1.0  0.97436  0.71121  0.34365  1.0000
  C   C267      1.0  0.99250  0.79946  0.34455  1.0000
  H   H92       1.0  0.89661  0.69883  0.34787  1.0000
  C   C268      1.0  0.99275  0.69451  0.34440  1.0000
  H   H93       1.0  0.98057  0.81292  0.34556  1.0000
  H   H94       1.0  0.53918  0.84233  0.34525  1.0000
  H   H95       1.0  0.98091  0.66913  0.34541  1.0000
  H   H96       1.0  0.53952  0.69853  0.34603  1.0000
  C   C269      1.0  0.66269  0.75002  0.34449  1.0000
  N   N37       1.0  0.61633  0.74962  0.27342  1.0000
  C   C270      1.0  0.64485  0.74828  0.26481  1.0000
  C   C271      1.0  0.65769  0.75041  0.17875  1.0000
  O   O73       1.0  0.65465  0.76794  0.12244  1.0000
  O   O74       1.0  0.66225  0.72840  0.14726  1.0000
  H   H97       1.0  0.66155  0.71186  0.17857  1.0000
  C   C272      1.0  0.76564  0.91398  0.34475  1.0000
  N   N38       1.0  0.76584  0.86795  0.27374  1.0000
  C   C273      1.0  0.76710  0.89776  0.26496  1.0000
  C   C274      1.0  0.76484  0.90834  0.17880  1.0000
  O   O75       1.0  0.74690  0.88767  0.12324  1.0000
  O   O76       1.0  0.78669  0.93497  0.14720  1.0000
  H   H98       1.0  0.80334  0.95079  0.17828  1.0000
  C   C275      1.0  0.60173  0.85307  0.34496  1.0000
  N   N39       1.0  0.64763  0.89929  0.27337  1.0000
  C   C276      1.0  0.61781  0.87072  0.26497  1.0000
  C   C277      1.0  0.60698  0.85778  0.17902  1.0000
  O   O77       1.0  0.62766  0.86073  0.12318  1.0000
  O   O78       1.0  0.58068  0.85376  0.14709  1.0000
  H   H99       1.0  0.56489  0.85461  0.17828  1.0000
  C   C278      1.0  0.85744  0.76152  0.34390  1.0000
  N   N40       1.0  0.90367  0.76169  0.27273  1.0000
  C   C279      1.0  0.87515  0.76302  0.26416  1.0000
  C   C280      1.0  0.86223  0.76080  0.17817  1.0000
  O   O79       1.0  0.86531  0.74330  0.12185  1.0000
  O   O80       1.0  0.85746  0.78268  0.14669  1.0000
  H   H100      1.0  0.85812  0.79921  0.17798  1.0000
  C   C281      1.0  0.75447  0.59743  0.34393  1.0000
  N   N41       1.0  0.75432  0.64356  0.27327  1.0000
  C   C282      1.0  0.75303  0.61374  0.26433  1.0000
  C   C283      1.0  0.75543  0.60324  0.17822  1.0000
  O   O81       1.0  0.77292  0.62396  0.12218  1.0000
  O   O82       1.0  0.73371  0.57658  0.14641  1.0000
  H   H101      1.0  0.71721  0.56059  0.17747  1.0000
  C   C284      1.0  0.91837  0.65837  0.34450  1.0000
  N   N42       1.0  0.87234  0.61220  0.27344  1.0000
  C   C285      1.0  0.90214  0.64076  0.26465  1.0000
  C   C286      1.0  0.91266  0.65367  0.17852  1.0000
  O   O83       1.0  0.89194  0.65090  0.12305  1.0000
  O   O84       1.0  0.93936  0.65869  0.14685  1.0000
  H   H102      1.0  0.95524  0.65793  0.17782  1.0000
  C   C287      1.0  0.75110  0.76465  0.34349  1.0000
  C   C288      1.0  0.71554  0.74692  0.34369  1.0000
  C   C289      1.0  0.69775  0.76452  0.34481  1.0000
  C   C290      1.0  0.71595  0.79954  0.34729  1.0000
  C   C291      1.0  0.75097  0.81785  0.34745  1.0000
  C   C292      1.0  0.76870  0.80021  0.34467  1.0000
  C   C293      1.0  0.69886  0.71184  0.34437  1.0000
  C   C294      1.0  0.80378  0.81705  0.34480  1.0000
  H   H103      1.0  0.70314  0.81227  0.34855  1.0000
  C   C295      1.0  0.76903  0.74688  0.34344  1.0000
  C   C296      1.0  0.75143  0.71132  0.34458  1.0000
  C   C297      1.0  0.76918  0.69368  0.34718  1.0000
  C   C298      1.0  0.80419  0.71200  0.34684  1.0000
  C   C299      1.0  0.82238  0.74702  0.34448  1.0000
  C   C300      1.0  0.80459  0.76462  0.34357  1.0000
  C   C301      1.0  0.71635  0.69448  0.34479  1.0000
  H   H104      1.0  0.81700  0.69927  0.34792  1.0000
  C   C302      1.0  0.82127  0.79969  0.34426  1.0000
  H   H105      1.0  0.70289  0.66909  0.34585  1.0000
  H   H106      1.0  0.67348  0.69828  0.34548  1.0000
  H   H107      1.0  0.84666  0.81325  0.34530  1.0000
  H   H108      1.0  0.81725  0.84244  0.34589  1.0000
  C   C303      1.0  0.75118  0.98789  0.34347  1.0000
  C   C304      1.0  0.76888  0.97002  0.34374  1.0000
  C   C305      1.0  0.75123  0.93462  0.34454  1.0000
  C   C306      1.0  0.71622  0.91785  0.34683  1.0000
  C   C307      1.0  0.69795  0.93460  0.34713  1.0000
  C   C308      1.0  0.71562  0.96997  0.34448  1.0000
  C   C309      1.0  0.80395  0.98837  0.34456  1.0000
  C   C310      1.0  0.69882  0.98825  0.34454  1.0000
  H   H109      1.0  0.70345  0.89230  0.34801  1.0000
  C   C311      1.0  0.76899  0.52358  0.34349  1.0000
  C   C312      1.0  0.80455  0.54150  0.34473  1.0000
  C   C313      1.0  0.82222  0.57688  0.34730  1.0000
  C   C314      1.0  0.80395  0.59362  0.34683  1.0000
  C   C315      1.0  0.76894  0.57685  0.34443  1.0000
  C   C316      1.0  0.75130  0.54145  0.34353  1.0000
  C   C317      1.0  0.82135  0.52322  0.34502  1.0000
  H   H110      1.0  0.81671  0.61917  0.34793  1.0000
  C   C318      1.0  0.71622  0.52310  0.34408  1.0000
  H   H111      1.0  0.84674  0.53512  0.34614  1.0000
  H   H112      1.0  0.81748  0.97651  0.34565  1.0000
  H   H113      1.0  0.70268  0.53495  0.34503  1.0000
  H   H114      1.0  0.67343  0.97635  0.34552  1.0000
  N   N43       1.0  0.64969  0.75392  0.42282  1.0000
  C   C319      1.0  0.62022  0.75326  0.43207  1.0000
  C   C320      1.0  0.60184  0.75042  0.35250  1.0000
  C   C321      1.0  0.61175  0.75960  0.51691  1.0000
  O   O85       1.0  0.63375  0.77800  0.56889  1.0000
  O   O86       1.0  0.58450  0.74135  0.55246  1.0000
  H   H115      1.0  0.56725  0.72476  0.52515  1.0000
  N   N44       1.0  0.76205  0.89731  0.42326  1.0000
  C   C322      1.0  0.76276  0.86852  0.43246  1.0000
  C   C323      1.0  0.76539  0.85284  0.35297  1.0000
  C   C324      1.0  0.75657  0.85375  0.51731  1.0000
  O   O87       1.0  0.73831  0.85741  0.56966  1.0000
  O   O88       1.0  0.77479  0.84462  0.55243  1.0000
  H   H116      1.0  0.79131  0.84391  0.52484  1.0000
  N   N45       1.0  0.61857  0.86629  0.42314  1.0000
  C   C325      1.0  0.64736  0.89579  0.43197  1.0000
  C   C326      1.0  0.66296  0.91404  0.35225  1.0000
  C   C327      1.0  0.66217  0.90447  0.51677  1.0000
  O   O89       1.0  0.65869  0.88261  0.56910  1.0000
  O   O90       1.0  0.67109  0.93177  0.55190  1.0000
  H   H117      1.0  0.67164  0.94892  0.52430  1.0000
  N   N46       1.0  0.87052  0.75774  0.42225  1.0000
  C   C328      1.0  0.89997  0.75838  0.43143  1.0000
  C   C329      1.0  0.91826  0.76104  0.35179  1.0000
  C   C330      1.0  0.90844  0.75211  0.51637  1.0000
  O   O91       1.0  0.88646  0.73320  0.56764  1.0000
  O   O92       1.0  0.93580  0.77013  0.55161  1.0000
  H   H118      1.0  0.95297  0.78687  0.52447  1.0000
  N   N47       1.0  0.75817  0.61419  0.42240  1.0000
  C   C331      1.0  0.75748  0.64297  0.43177  1.0000
  C   C332      1.0  0.75478  0.65870  0.35242  1.0000
  C   C333      1.0  0.76373  0.65771  0.51669  1.0000
  O   O93       1.0  0.78207  0.65407  0.56878  1.0000
  O   O94       1.0  0.74547  0.66673  0.55212  1.0000
  H   H119      1.0  0.72891  0.66742  0.52471  1.0000
  N   N48       1.0  0.90173  0.64522  0.42297  1.0000
  C   C334      1.0  0.87296  0.61572  0.43206  1.0000
  C   C335      1.0  0.85721  0.59743  0.35253  1.0000
  C   C336      1.0  0.85822  0.60708  0.51696  1.0000
  O   O95       1.0  0.86178  0.62897  0.56929  1.0000
  O   O96       1.0  0.84925  0.57977  0.55208  1.0000
  H   H120      1.0  0.84863  0.56259  0.52447  1.0000
