data_image0
_chemical_formula_structural       C4OHOHC4OHOHC2O2H2C2O2H2C2O2H2C2O2H2C2O2H2C2O2H2C4OHOHC4OHOHC2O2H2C2O2H2C4OHOHC4OHOHC2O2H2C2O2H2C2O2H2C2O2H2C4OHOHC4OHOHC2O2H2C2O2H2C4OHOHC4OHOHC2O2H2C2O2H2C2O2H2C2O2H2C4OHOHC4OHOHCNCNCNCNCNCNCNCNCNCNCNCNCNCNCNCNCNCNCNCNCNCNCNCNCNCNCNCNCNCNCNCNCNCNCNCNCNCNCNCNCNCNCNCNCNCNCNCNCNCNCNCNCNCNCNCNCNCNCNCNC2O2H2C2O2H2C4OHOHC4OHOHC4OHOHC4OHOHC4OHOHC4OHOHC2O2H2C2O2H2C4OHOHC4OHOHC2O2H2C2O2H2C4OHOHC4OHOHC4OHOHC4OHOHC2O2H2C2O2H2C4OHOHC4OHOHC2O2H2C2O2H2C4OHOHC4OHOHC4OHOHC4OHOHC2O2H2C2O2H2C4OHOHC4OHOHC2O2H2C2O2H2C2O2H2C2O2H2C2O2H2C2O2H2C4OHOHC4OHOHC2O2H2C2O2H2C4OHOHC4OHOHC2O2H2C2O2H2C2O2H2C2O2H2C4OHOHC4OHOHC2O2H2C2O2H2C4OHOHC4OHOHC2O2H2C2O2H2C2O2H2C2O2H2C4OHOHC4OHOHCNCNCNCNCNCNCNCNCNCNCNCNCNCNCNCNCNCNCNCNCNCNCNCNCNCNCNCNCNCNCNCNCNCNCNCNCNCNCNCNCNCNCNCNCNCNCNCNCNCNCNCNCNCNCNCNCNCNCNCNC2O2H2C2O2H2C4OHOHC4OHOHC4OHOHC4OHOHC4OHOHC4OHOHC2O2H2C2O2H2C4OHOHC4OHOHC2O2H2C2O2H2C4OHOHC4OHOHC4OHOHC4OHOHC2O2H2C2O2H2C4OHOHC4OHOHC2O2H2C2O2H2C4OHOHC4OHOHC4OHOHC4OHOHC2O2H2C2O2H2
_chemical_formula_sum              "C480 O240 H240 N120"
_cell_length_a       84.2312
_cell_length_b       44.3688
_cell_length_c       14.8682
_cell_angle_alpha    90
_cell_angle_beta     90
_cell_angle_gamma    90

_space_group_name_H-M_alt    "P 1"
_space_group_IT_number       1

loop_
  _space_group_symop_operation_xyz
  'x, y, z'

loop_
  _atom_site_type_symbol
  _atom_site_label
  _atom_site_symmetry_multiplicity
  _atom_site_fract_x
  _atom_site_fract_y
  _atom_site_fract_z
  _atom_site_occupancy
  C   C1        1.0  0.27107  0.12298  0.33555  1.0000
  C   C2        1.0  0.26270  0.12569  0.25339  1.0000
  C   C3        1.0  0.24635  0.13289  0.25335  1.0000
  C   C4        1.0  0.23792  0.13534  0.33541  1.0000
  O   O1        1.0  0.23871  0.13642  0.17319  1.0000
  H   H1        1.0  0.24032  0.15754  0.15541  1.0000
  O   O2        1.0  0.27038  0.12241  0.17328  1.0000
  H   H2        1.0  0.26885  0.10131  0.15509  1.0000
  C   C5        1.0  0.73750  0.38518  0.34016  1.0000
  C   C6        1.0  0.74587  0.38321  0.25777  1.0000
  C   C7        1.0  0.76224  0.37614  0.25700  1.0000
  C   C8        1.0  0.77069  0.37304  0.33875  1.0000
  O   O3        1.0  0.76986  0.37339  0.17653  1.0000
  H   H3        1.0  0.76834  0.35240  0.15723  1.0000
  O   O4        1.0  0.73817  0.38722  0.17800  1.0000
  H   H4        1.0  0.73977  0.40843  0.16124  1.0000
  C   C9        1.0  0.76270  0.13264  0.26321  1.0000
  C   C10       1.0  0.74634  0.12551  0.26415  1.0000
  O   O5        1.0  0.77027  0.13567  0.18268  1.0000
  O   O6        1.0  0.73858  0.12179  0.18449  1.0000
  H   H5        1.0  0.76864  0.15666  0.16373  1.0000
  H   H6        1.0  0.74013  0.10062  0.16714  1.0000
  C   C11       1.0  0.24620  0.37641  0.25976  1.0000
  C   C12       1.0  0.26256  0.38356  0.25948  1.0000
  O   O7        1.0  0.23846  0.37325  0.17980  1.0000
  O   O8        1.0  0.27016  0.38716  0.17925  1.0000
  H   H7        1.0  0.24007  0.35224  0.16097  1.0000
  H   H8        1.0  0.26855  0.40829  0.16165  1.0000
  C   C13       1.0  0.30377  0.48813  0.25768  1.0000
  C   C14       1.0  0.30388  0.01987  0.25599  1.0000
  O   O9        1.0  0.30360  0.47275  0.17831  1.0000
  O   O10       1.0  0.30377  0.03429  0.17503  1.0000
  H   H9        1.0  0.31474  0.46801  0.16447  1.0000
  H   H10       1.0  0.31492  0.03861  0.16056  1.0000
  C   C15       1.0  0.70644  0.02106  0.26316  1.0000
  C   C16       1.0  0.70643  0.48932  0.26139  1.0000
  O   O11       1.0  0.70747  0.03645  0.18401  1.0000
  O   O12       1.0  0.70743  0.47490  0.18062  1.0000
  H   H11       1.0  0.69651  0.04126  0.16643  1.0000
  H   H12       1.0  0.69646  0.47067  0.16208  1.0000
  C   C17       1.0  0.80375  0.23822  0.25847  1.0000
  C   C18       1.0  0.80375  0.26996  0.25676  1.0000
  O   O13       1.0  0.80379  0.22282  0.17913  1.0000
  O   O14       1.0  0.80377  0.28438  0.17580  1.0000
  H   H13       1.0  0.81497  0.21828  0.16593  1.0000
  H   H14       1.0  0.81495  0.28870  0.16194  1.0000
  C   C19       1.0  0.20535  0.27069  0.25869  1.0000
  C   C20       1.0  0.20524  0.23895  0.25694  1.0000
  O   O15       1.0  0.20522  0.28610  0.17938  1.0000
  O   O16       1.0  0.20506  0.22454  0.17596  1.0000
  H   H15       1.0  0.19402  0.29063  0.16656  1.0000
  H   H16       1.0  0.19385  0.22032  0.16262  1.0000
  C   C21       1.0  0.36181  0.14698  0.33613  1.0000
  C   C22       1.0  0.35427  0.14080  0.25312  1.0000
  C   C23       1.0  0.33819  0.13170  0.25126  1.0000
  C   C24       1.0  0.32920  0.13030  0.33170  1.0000
  O   O17       1.0  0.33144  0.12421  0.17091  1.0000
  H   H17       1.0  0.33422  0.10302  0.15970  1.0000
  O   O18       1.0  0.36265  0.14121  0.17475  1.0000
  H   H18       1.0  0.36174  0.16183  0.15117  1.0000
  C   C25       1.0  0.64642  0.36363  0.33517  1.0000
  C   C26       1.0  0.65310  0.37629  0.25635  1.0000
  C   C27       1.0  0.66924  0.38495  0.25442  1.0000
  C   C28       1.0  0.67915  0.38013  0.33006  1.0000
  O   O19       1.0  0.67525  0.39762  0.17802  1.0000
  H   H19       1.0  0.67190  0.41885  0.17827  1.0000
  O   O20       1.0  0.64404  0.38137  0.18192  1.0000
  H   H20       1.0  0.64420  0.36253  0.14718  1.0000
  C   C29       1.0  0.67160  0.13345  0.26527  1.0000
  C   C30       1.0  0.65543  0.14205  0.26412  1.0000
  O   O21       1.0  0.67915  0.12819  0.18568  1.0000
  O   O22       1.0  0.64783  0.14442  0.18354  1.0000
  H   H21       1.0  0.67678  0.10720  0.16931  1.0000
  H   H22       1.0  0.64875  0.16566  0.16553  1.0000
  C   C31       1.0  0.33639  0.36802  0.27186  1.0000
  C   C32       1.0  0.35252  0.35900  0.27087  1.0000
  O   O23       1.0  0.32784  0.36664  0.19408  1.0000
  O   O24       1.0  0.35916  0.34986  0.19181  1.0000
  H   H23       1.0  0.32975  0.38575  0.16240  1.0000
  H   H24       1.0  0.35539  0.32920  0.18127  1.0000
  C   C33       1.0  0.86165  0.39626  0.33812  1.0000
  C   C34       1.0  0.85378  0.39179  0.25509  1.0000
  C   C35       1.0  0.83765  0.38295  0.25353  1.0000
  C   C36       1.0  0.82892  0.38023  0.33457  1.0000
  O   O25       1.0  0.83063  0.37691  0.17287  1.0000
  H   H25       1.0  0.83320  0.35585  0.15851  1.0000
  O   O26       1.0  0.86192  0.39346  0.17605  1.0000
  H   H26       1.0  0.86069  0.41428  0.15466  1.0000
  C   C37       1.0  0.14704  0.11286  0.33846  1.0000
  C   C38       1.0  0.15516  0.11615  0.25565  1.0000
  C   C39       1.0  0.17128  0.12504  0.25443  1.0000
  C   C40       1.0  0.17973  0.12897  0.33591  1.0000
  O   O27       1.0  0.17852  0.13003  0.17375  1.0000
  H   H27       1.0  0.17608  0.15096  0.15707  1.0000
  O   O28       1.0  0.14722  0.11339  0.17621  1.0000
  H   H28       1.0  0.14885  0.09250  0.15631  1.0000
  C   C41       1.0  0.17276  0.39159  0.27513  1.0000
  C   C42       1.0  0.15663  0.40062  0.27372  1.0000
  O   O29       1.0  0.18158  0.39426  0.19862  1.0000
  O   O30       1.0  0.15023  0.41098  0.19534  1.0000
  H   H29       1.0  0.17981  0.37568  0.16401  1.0000
  H   H30       1.0  0.15465  0.43121  0.18544  1.0000
  C   C43       1.0  0.83636  0.11765  0.27422  1.0000
  C   C44       1.0  0.85247  0.10852  0.27301  1.0000
  O   O31       1.0  0.82767  0.11564  0.19708  1.0000
  O   O32       1.0  0.85897  0.09872  0.19427  1.0000
  H   H31       1.0  0.82953  0.13447  0.16385  1.0000
  H   H32       1.0  0.85481  0.07832  0.18394  1.0000
  C   C45       1.0  0.08911  0.20278  0.33310  1.0000
  C   C46       1.0  0.09903  0.17707  0.33146  1.0000
  O   O33       1.0  0.09644  0.22953  0.31484  1.0000
  O   O34       1.0  0.11465  0.18299  0.31374  1.0000
  H   H33       1.0  0.09511  0.23310  0.24998  1.0000
  H   H34       1.0  0.11598  0.18101  0.24827  1.0000
  C   C47       1.0  0.91966  0.30615  0.33373  1.0000
  C   C48       1.0  0.90971  0.33183  0.33206  1.0000
  O   O35       1.0  0.91239  0.27943  0.31418  1.0000
  O   O36       1.0  0.89412  0.32594  0.31336  1.0000
  H   H35       1.0  0.91386  0.27609  0.24932  1.0000
  H   H36       1.0  0.89291  0.32808  0.24786  1.0000
  C   C49       1.0  0.91647  0.14576  0.37404  1.0000
  C   C50       1.0  0.93310  0.14399  0.35776  1.0000
  C   C51       1.0  0.94302  0.17008  0.35807  1.0000
  C   C52       1.0  0.93686  0.19953  0.37376  1.0000
  O   O37       1.0  0.95851  0.16639  0.33419  1.0000
  H   H37       1.0  0.96424  0.16152  0.38990  1.0000
  O   O38       1.0  0.93985  0.11727  0.33392  1.0000
  H   H38       1.0  0.94356  0.10796  0.39012  1.0000
  C   C53       1.0  0.09240  0.36305  0.37375  1.0000
  C   C54       1.0  0.07577  0.36486  0.35708  1.0000
  C   C55       1.0  0.06582  0.33882  0.35781  1.0000
  C   C56       1.0  0.07192  0.30938  0.37433  1.0000
  O   O39       1.0  0.05036  0.34251  0.33330  1.0000
  H   H39       1.0  0.04457  0.34759  0.38867  1.0000
  O   O40       1.0  0.06909  0.39153  0.33217  1.0000
  H   H40       1.0  0.06532  0.40104  0.38792  1.0000
  C   C57       1.0  0.58793  0.45084  0.28797  1.0000
  C   C58       1.0  0.59775  0.42499  0.28712  1.0000
  O   O41       1.0  0.59488  0.47695  0.25957  1.0000
  O   O42       1.0  0.61303  0.42991  0.25982  1.0000
  H   H41       1.0  0.59215  0.47915  0.19559  1.0000
  H   H42       1.0  0.61341  0.42457  0.19567  1.0000
  C   C59       1.0  0.41958  0.05653  0.33016  1.0000
  C   C60       1.0  0.40967  0.08225  0.32969  1.0000
  O   O43       1.0  0.41225  0.02988  0.31055  1.0000
  O   O44       1.0  0.39402  0.07644  0.31251  1.0000
  H   H43       1.0  0.41362  0.02664  0.24556  1.0000
  H   H44       1.0  0.39262  0.07851  0.24711  1.0000
  C   C61       1.0  0.41634  0.39613  0.37246  1.0000
  C   C62       1.0  0.43296  0.39429  0.35583  1.0000
  C   C63       1.0  0.44288  0.42037  0.35493  1.0000
  C   C64       1.0  0.43674  0.44987  0.37000  1.0000
  O   O45       1.0  0.45834  0.41655  0.33070  1.0000
  H   H45       1.0  0.46414  0.41197  0.38644  1.0000
  O   O46       1.0  0.43970  0.36749  0.33262  1.0000
  H   H46       1.0  0.44347  0.35839  0.38900  1.0000
  C   C65       1.0  0.59304  0.11172  0.34141  1.0000
  C   C66       1.0  0.57625  0.11398  0.33229  1.0000
  C   C67       1.0  0.56622  0.08803  0.33056  1.0000
  C   C68       1.0  0.57235  0.05818  0.33826  1.0000
  O   O47       1.0  0.55046  0.09249  0.31496  1.0000
  H   H47       1.0  0.54559  0.09618  0.37402  1.0000
  O   O48       1.0  0.56939  0.14140  0.31855  1.0000
  H   H48       1.0  0.56586  0.14848  0.37790  1.0000
  C   C69       1.0  0.11930  0.01999  0.26659  1.0000
  C   C70       1.0  0.11918  0.48829  0.26662  1.0000
  O   O49       1.0  0.13097  0.03323  0.21620  1.0000
  O   O50       1.0  0.13073  0.47472  0.21630  1.0000
  H   H49       1.0  0.12586  0.04030  0.16062  1.0000
  H   H50       1.0  0.12555  0.46767  0.16091  1.0000
  C   C71       1.0  0.88993  0.48880  0.26658  1.0000
  C   C72       1.0  0.89012  0.02049  0.26637  1.0000
  O   O51       1.0  0.87850  0.47555  0.21457  1.0000
  O   O52       1.0  0.87885  0.03416  0.21426  1.0000
  H   H51       1.0  0.88387  0.46831  0.15997  1.0000
  H   H52       1.0  0.88433  0.04132  0.15993  1.0000
  C   C73       1.0  0.59449  0.27042  0.33475  1.0000
  C   C74       1.0  0.59462  0.23818  0.33515  1.0000
  O   O53       1.0  0.58291  0.28470  0.28728  1.0000
  O   O54       1.0  0.58316  0.22332  0.28827  1.0000
  H   H53       1.0  0.57428  0.28856  0.33023  1.0000
  H   H54       1.0  0.57447  0.21978  0.33104  1.0000
  C   C75       1.0  0.39061  0.23914  0.26462  1.0000
  C   C76       1.0  0.39072  0.27083  0.26461  1.0000
  O   O55       1.0  0.37960  0.22574  0.21011  1.0000
  O   O56       1.0  0.37981  0.28453  0.21024  1.0000
  H   H55       1.0  0.38539  0.21842  0.15701  1.0000
  H   H56       1.0  0.38565  0.29184  0.15734  1.0000
  C   C77       1.0  0.98734  0.25457  0.35813  1.0000
  C   C78       1.0  0.99594  0.25203  0.27654  1.0000
  C   C79       1.0  0.01277  0.25146  0.27658  1.0000
  C   C80       1.0  0.02141  0.25445  0.35788  1.0000
  O   O57       1.0  0.02058  0.24948  0.19655  1.0000
  H   H57       1.0  0.02201  0.22786  0.18472  1.0000
  O   O58       1.0  0.98810  0.24923  0.19682  1.0000
  H   H58       1.0  0.98639  0.26984  0.17463  1.0000
  C   C81       1.0  0.48722  0.00467  0.34530  1.0000
  C   C82       1.0  0.49523  0.00438  0.26147  1.0000
  C   C83       1.0  0.51205  0.00382  0.25754  1.0000
  C   C84       1.0  0.52126  0.00464  0.33728  1.0000
  O   O59       1.0  0.51927  0.00368  0.17555  1.0000
  H   H59       1.0  0.52066  0.98238  0.15923  1.0000
  O   O60       1.0  0.48683  0.00346  0.18321  1.0000
  H   H60       1.0  0.48510  0.02454  0.16544  1.0000
  C   C85       1.0  0.31459  0.11485  0.33203  1.0000
  N   N1        1.0  0.30006  0.12848  0.33342  1.0000
  C   C86       1.0  0.28661  0.11132  0.33555  1.0000
  N   N2        1.0  0.28781  0.08089  0.33678  1.0000
  C   C87       1.0  0.30218  0.06746  0.33574  1.0000
  N   N3        1.0  0.31550  0.08435  0.33341  1.0000
  C   C88       1.0  0.69400  0.39484  0.33434  1.0000
  N   N4        1.0  0.70840  0.38065  0.33679  1.0000
  C   C89       1.0  0.72204  0.39727  0.34112  1.0000
  N   N5        1.0  0.72116  0.42773  0.34309  1.0000
  C   C90       1.0  0.70694  0.44172  0.34149  1.0000
  N   N6        1.0  0.69347  0.42536  0.33688  1.0000
  C   C91       1.0  0.69449  0.11489  0.34905  1.0000
  N   N7        1.0  0.70899  0.12868  0.34827  1.0000
  C   C92       1.0  0.72250  0.11165  0.34784  1.0000
  N   N8        1.0  0.72139  0.08121  0.34763  1.0000
  C   C93       1.0  0.70705  0.06763  0.34843  1.0000
  N   N9        1.0  0.69367  0.08439  0.34884  1.0000
  C   C94       1.0  0.31463  0.39430  0.34774  1.0000
  N   N10       1.0  0.30013  0.38048  0.34513  1.0000
  C   C95       1.0  0.28661  0.39746  0.34143  1.0000
  N   N11       1.0  0.28771  0.42791  0.34032  1.0000
  C   C96       1.0  0.30203  0.44153  0.34240  1.0000
  N   N12       1.0  0.31539  0.42481  0.34620  1.0000
  C   C97       1.0  0.81425  0.36491  0.33412  1.0000
  N   N13       1.0  0.79972  0.37857  0.33597  1.0000
  C   C98       1.0  0.78625  0.36142  0.33773  1.0000
  N   N14       1.0  0.78745  0.33099  0.33818  1.0000
  C   C99       1.0  0.80181  0.31754  0.33646  1.0000
  N   N15       1.0  0.81515  0.33441  0.33466  1.0000
  C   C100      1.0  0.19443  0.14416  0.33490  1.0000
  N   N16       1.0  0.20890  0.13027  0.33488  1.0000
  C   C101      1.0  0.22243  0.14722  0.33544  1.0000
  N   N17       1.0  0.22138  0.17766  0.33647  1.0000
  C   C102      1.0  0.20706  0.19134  0.33648  1.0000
  N   N18       1.0  0.19366  0.17466  0.33586  1.0000
  C   C103      1.0  0.19433  0.36422  0.34966  1.0000
  N   N19       1.0  0.20875  0.37833  0.34647  1.0000
  C   C104      1.0  0.22237  0.36164  0.34237  1.0000
  N   N20       1.0  0.22145  0.33118  0.34113  1.0000
  C   C105      1.0  0.20721  0.31726  0.34344  1.0000
  N   N21       1.0  0.19376  0.33370  0.34782  1.0000
  C   C106      1.0  0.81475  0.14456  0.34940  1.0000
  N   N22       1.0  0.80030  0.13056  0.34758  1.0000
  C   C107      1.0  0.78672  0.14738  0.34397  1.0000
  N   N23       1.0  0.78771  0.17783  0.34215  1.0000
  C   C108      1.0  0.80199  0.19162  0.34324  1.0000
  N   N24       1.0  0.81541  0.17507  0.34710  1.0000
  C   C109      1.0  0.10352  0.12155  0.34342  1.0000
  N   N25       1.0  0.09930  0.09150  0.33685  1.0000
  C   C110      1.0  0.11032  0.06871  0.32684  1.0000
  N   N26       1.0  0.12583  0.07722  0.32924  1.0000
  C   C111      1.0  0.13074  0.10575  0.33979  1.0000
  N   N27       1.0  0.11943  0.12709  0.34533  1.0000
  C   C112      1.0  0.90517  0.38729  0.34484  1.0000
  N   N28       1.0  0.90945  0.41731  0.33901  1.0000
  C   C113      1.0  0.89848  0.44014  0.32876  1.0000
  N   N29       1.0  0.88294  0.43179  0.33022  1.0000
  C   C114      1.0  0.87798  0.40325  0.34010  1.0000
  N   N30       1.0  0.88924  0.38182  0.34577  1.0000
  C   C115      1.0  0.90588  0.12061  0.36370  1.0000
  N   N31       1.0  0.90998  0.09089  0.34863  1.0000
  C   C116      1.0  0.89896  0.06871  0.33073  1.0000
  N   N32       1.0  0.88349  0.07753  0.33114  1.0000
  C   C117      1.0  0.87860  0.10585  0.34722  1.0000
  N   N33       1.0  0.89000  0.12652  0.36294  1.0000
  C   C118      1.0  0.10304  0.38811  0.36300  1.0000
  N   N34       1.0  0.09900  0.41784  0.34735  1.0000
  C   C119      1.0  0.11005  0.43995  0.32937  1.0000
  N   N35       1.0  0.12551  0.43100  0.33036  1.0000
  C   C120      1.0  0.13036  0.40268  0.34681  1.0000
  N   N36       1.0  0.11891  0.38210  0.36260  1.0000
  C   C121      1.0  0.60272  0.37076  0.32248  1.0000
  N   N37       1.0  0.59873  0.34102  0.33823  1.0000
  C   C122      1.0  0.60982  0.31893  0.35576  1.0000
  N   N38       1.0  0.62526  0.32795  0.35430  1.0000
  C   C123      1.0  0.63007  0.35629  0.33782  1.0000
  N   N39       1.0  0.61859  0.37683  0.32249  1.0000
  C   C124      1.0  0.40527  0.13773  0.34340  1.0000
  N   N40       1.0  0.40963  0.16773  0.33871  1.0000
  C   C125      1.0  0.39871  0.19065  0.32910  1.0000
  N   N41       1.0  0.38314  0.18251  0.32996  1.0000
  C   C126      1.0  0.37812  0.15396  0.33880  1.0000
  N   N42       1.0  0.38934  0.13240  0.34375  1.0000
  C   C127      1.0  0.40575  0.37096  0.36301  1.0000
  N   N43       1.0  0.40993  0.34126  0.34884  1.0000
  C   C128      1.0  0.39899  0.31897  0.33117  1.0000
  N   N44       1.0  0.38348  0.32756  0.33081  1.0000
  C   C129      1.0  0.37853  0.35589  0.34628  1.0000
  N   N45       1.0  0.38985  0.37675  0.36184  1.0000
  C   C130      1.0  0.60350  0.13732  0.34174  1.0000
  N   N46       1.0  0.59929  0.16737  0.34828  1.0000
  C   C131      1.0  0.61031  0.19015  0.35791  1.0000
  N   N47       1.0  0.62582  0.18166  0.35518  1.0000
  C   C132      1.0  0.63073  0.15312  0.34457  1.0000
  N   N48       1.0  0.61942  0.13177  0.33944  1.0000
  C   C133      1.0  0.06263  0.28240  0.36754  1.0000
  N   N49       1.0  0.04644  0.28123  0.36415  1.0000
  C   C134      1.0  0.03831  0.25464  0.35803  1.0000
  N   N50       1.0  0.04669  0.22828  0.35386  1.0000
  C   C135      1.0  0.06290  0.22753  0.35449  1.0000
  N   N51       1.0  0.06993  0.25508  0.36205  1.0000
  C   C136      1.0  0.94615  0.22653  0.36704  1.0000
  N   N52       1.0  0.96234  0.22773  0.36337  1.0000
  C   C137      1.0  0.97045  0.25436  0.35857  1.0000
  N   N53       1.0  0.96207  0.28073  0.35570  1.0000
  C   C138      1.0  0.94585  0.28144  0.35591  1.0000
  N   N54       1.0  0.93884  0.25386  0.36244  1.0000
  C   C139      1.0  0.56275  0.03150  0.33327  1.0000
  N   N55       1.0  0.54654  0.03080  0.33598  1.0000
  C   C140      1.0  0.53813  0.00445  0.33328  1.0000
  N   N56       1.0  0.54622  0.47782  0.32680  1.0000
  C   C141      1.0  0.56239  0.47660  0.32107  1.0000
  N   N57       1.0  0.56972  0.00392  0.32521  1.0000
  C   C142      1.0  0.44604  0.47681  0.36195  1.0000
  N   N58       1.0  0.46222  0.47793  0.35603  1.0000
  C   C143      1.0  0.47035  0.50450  0.34940  1.0000
  N   N59       1.0  0.46199  0.03090  0.34702  1.0000
  C   C144      1.0  0.44579  0.03169  0.34983  1.0000
  N   N60       1.0  0.43876  0.50417  0.35786  1.0000
  C   C145      1.0  0.24630  0.13266  0.41757  1.0000
  C   C146      1.0  0.26265  0.12540  0.41764  1.0000
  O   O61       1.0  0.23863  0.13600  0.49767  1.0000
  O   O62       1.0  0.27029  0.12193  0.49778  1.0000
  H   H61       1.0  0.24023  0.15707  0.51593  1.0000
  H   H62       1.0  0.26869  0.10082  0.51570  1.0000
  C   C147      1.0  0.76232  0.37491  0.42115  1.0000
  C   C148      1.0  0.74596  0.38209  0.42191  1.0000
  O   O63       1.0  0.77003  0.37101  0.50089  1.0000
  O   O64       1.0  0.73835  0.38495  0.50237  1.0000
  H   H63       1.0  0.76846  0.34980  0.51779  1.0000
  H   H64       1.0  0.74000  0.40589  0.52184  1.0000
  C   C149      1.0  0.73804  0.12339  0.34669  1.0000
  C   C150      1.0  0.74655  0.12623  0.42836  1.0000
  C   C151      1.0  0.76292  0.13330  0.42739  1.0000
  C   C152      1.0  0.77123  0.13546  0.34484  1.0000
  O   O65       1.0  0.77067  0.13705  0.50710  1.0000
  H   H65       1.0  0.76913  0.15823  0.52434  1.0000
  O   O66       1.0  0.73898  0.12325  0.50892  1.0000
  H   H66       1.0  0.74054  0.10223  0.52778  1.0000
  C   C153      1.0  0.27106  0.38572  0.34137  1.0000
  C   C154      1.0  0.26273  0.38294  0.42365  1.0000
  C   C155      1.0  0.24635  0.37590  0.42393  1.0000
  C   C156      1.0  0.23786  0.37366  0.34200  1.0000
  O   O67       1.0  0.23877  0.37226  0.50422  1.0000
  H   H67       1.0  0.24037  0.35110  0.52165  1.0000
  O   O68       1.0  0.27046  0.38601  0.50367  1.0000
  H   H68       1.0  0.26896  0.40707  0.52234  1.0000
  C   C157      1.0  0.30316  0.03613  0.33764  1.0000
  C   C158      1.0  0.30272  0.02085  0.42105  1.0000
  C   C159      1.0  0.30267  0.48911  0.42275  1.0000
  C   C160      1.0  0.30298  0.47286  0.34100  1.0000
  O   O69       1.0  0.30151  0.47468  0.50344  1.0000
  H   H69       1.0  0.31244  0.47023  0.52228  1.0000
  O   O70       1.0  0.30159  0.03623  0.50019  1.0000
  H   H70       1.0  0.31253  0.04109  0.51809  1.0000
  C   C161      1.0  0.70620  0.47306  0.34312  1.0000
  C   C162      1.0  0.70558  0.48830  0.42653  1.0000
  C   C163      1.0  0.70554  0.02004  0.42830  1.0000
  C   C164      1.0  0.70615  0.03631  0.34664  1.0000
  O   O71       1.0  0.70574  0.03445  0.50926  1.0000
  H   H71       1.0  0.69461  0.03880  0.52408  1.0000
  O   O72       1.0  0.70577  0.47288  0.50584  1.0000
  H   H72       1.0  0.69463  0.46835  0.52013  1.0000
  C   C165      1.0  0.80280  0.28621  0.33833  1.0000
  C   C166      1.0  0.80223  0.27095  0.42174  1.0000
  C   C167      1.0  0.80228  0.23921  0.42347  1.0000
  C   C168      1.0  0.80283  0.22296  0.34177  1.0000
  O   O73       1.0  0.80101  0.22479  0.50412  1.0000
  H   H73       1.0  0.81192  0.22038  0.52352  1.0000
  O   O74       1.0  0.80092  0.28632  0.50079  1.0000
  H   H74       1.0  0.81181  0.29129  0.51934  1.0000
  C   C169      1.0  0.20622  0.22267  0.33847  1.0000
  C   C170      1.0  0.20695  0.23791  0.42186  1.0000
  C   C171      1.0  0.20701  0.26965  0.42364  1.0000
  C   C172      1.0  0.20641  0.28592  0.34197  1.0000
  O   O75       1.0  0.20840  0.28406  0.50424  1.0000
  H   H75       1.0  0.19752  0.28846  0.52417  1.0000
  O   O76       1.0  0.20830  0.22251  0.50084  1.0000
  H   H76       1.0  0.19742  0.21771  0.51985  1.0000
  C   C173      1.0  0.33677  0.13677  0.41456  1.0000
  C   C174      1.0  0.35287  0.14577  0.41659  1.0000
  O   O77       1.0  0.32873  0.13389  0.49372  1.0000
  O   O78       1.0  0.35992  0.15082  0.49766  1.0000
  H   H77       1.0  0.33095  0.11346  0.51595  1.0000
  H   H78       1.0  0.35886  0.17253  0.50924  1.0000
  C   C175      1.0  0.67251  0.36734  0.40874  1.0000
  C   C176      1.0  0.65638  0.35828  0.41038  1.0000
  O   O79       1.0  0.68138  0.36453  0.48499  1.0000
  O   O80       1.0  0.65004  0.34775  0.48872  1.0000
  H   H79       1.0  0.67963  0.38302  0.52002  1.0000
  H   H80       1.0  0.65455  0.32759  0.49852  1.0000
  C   C177      1.0  0.64705  0.14605  0.34571  1.0000
  C   C178      1.0  0.65522  0.14293  0.42839  1.0000
  C   C179      1.0  0.67136  0.13410  0.42943  1.0000
  C   C180      1.0  0.67979  0.13009  0.34786  1.0000
  O   O81       1.0  0.67864  0.12926  0.51007  1.0000
  H   H81       1.0  0.67621  0.10836  0.52714  1.0000
  O   O82       1.0  0.64733  0.14575  0.50794  1.0000
  H   H82       1.0  0.64897  0.16666  0.52766  1.0000
  C   C181      1.0  0.36215  0.36295  0.34813  1.0000
  C   C182      1.0  0.35513  0.37400  0.42812  1.0000
  C   C183      1.0  0.33898  0.38257  0.42937  1.0000
  C   C184      1.0  0.32938  0.37923  0.35171  1.0000
  O   O83       1.0  0.33266  0.39385  0.50687  1.0000
  H   H83       1.0  0.33586  0.41514  0.50995  1.0000
  O   O84       1.0  0.36391  0.37775  0.50432  1.0000
  H   H84       1.0  0.36365  0.35830  0.53590  1.0000
  C   C185      1.0  0.83682  0.38497  0.41749  1.0000
  C   C186      1.0  0.85298  0.39362  0.41922  1.0000
  O   O85       1.0  0.82902  0.38087  0.49693  1.0000
  O   O86       1.0  0.86031  0.39719  0.50021  1.0000
  H   H85       1.0  0.83129  0.36009  0.51604  1.0000
  H   H86       1.0  0.85937  0.41868  0.51522  1.0000
  C   C187      1.0  0.17161  0.12544  0.41867  1.0000
  C   C188      1.0  0.15546  0.11676  0.41998  1.0000
  O   O87       1.0  0.17921  0.13058  0.49820  1.0000
  O   O88       1.0  0.14791  0.11422  0.50065  1.0000
  H   H87       1.0  0.17682  0.15152  0.51499  1.0000
  H   H88       1.0  0.14885  0.09295  0.51830  1.0000
  C   C189      1.0  0.14672  0.39539  0.34921  1.0000
  C   C190      1.0  0.15347  0.38291  0.42810  1.0000
  C   C191      1.0  0.16962  0.37429  0.42980  1.0000
  C   C192      1.0  0.17949  0.37898  0.35385  1.0000
  O   O89       1.0  0.17568  0.36180  0.50632  1.0000
  H   H89       1.0  0.17234  0.34057  0.50658  1.0000
  O   O90       1.0  0.14446  0.37795  0.50281  1.0000
  H   H90       1.0  0.14463  0.39686  0.53721  1.0000
  C   C193      1.0  0.86225  0.11308  0.34940  1.0000
  C   C194      1.0  0.85540  0.12492  0.42886  1.0000
  C   C195      1.0  0.83926  0.13361  0.43034  1.0000
  C   C196      1.0  0.82952  0.12962  0.35354  1.0000
  O   O91       1.0  0.83310  0.14557  0.50733  1.0000
  H   H91       1.0  0.83636  0.16684  0.50876  1.0000
  O   O92       1.0  0.86430  0.12927  0.50430  1.0000
  H   H92       1.0  0.86408  0.11009  0.53733  1.0000
  C   C197      1.0  0.09308  0.14718  0.34411  1.0000
  C   C198      1.0  0.07630  0.14498  0.35386  1.0000
  C   C199      1.0  0.06631  0.17097  0.35624  1.0000
  C   C200      1.0  0.07245  0.20080  0.34851  1.0000
  O   O93       1.0  0.05056  0.16654  0.37245  1.0000
  H   H93       1.0  0.04560  0.16307  0.31351  1.0000
  O   O94       1.0  0.06943  0.11757  0.36766  1.0000
  H   H94       1.0  0.06583  0.11055  0.30837  1.0000
  C   C201      1.0  0.91563  0.36169  0.34567  1.0000
  C   C202      1.0  0.93238  0.36392  0.35653  1.0000
  C   C203      1.0  0.94239  0.33796  0.35893  1.0000
  C   C204      1.0  0.93628  0.30814  0.35018  1.0000
  O   O95       1.0  0.95810  0.34238  0.37617  1.0000
  H   H95       1.0  0.96317  0.34608  0.31762  1.0000
  O   O96       1.0  0.93921  0.39132  0.37128  1.0000
  H   H96       1.0  0.94293  0.39846  0.31236  1.0000
  C   C205      1.0  0.92049  0.20082  0.39756  1.0000
  C   C206      1.0  0.91069  0.17495  0.39805  1.0000
  O   O97       1.0  0.91344  0.22697  0.42477  1.0000
  O   O98       1.0  0.89532  0.17992  0.42360  1.0000
  H   H97       1.0  0.91593  0.22926  0.48903  1.0000
  H   H98       1.0  0.89473  0.17480  0.48787  1.0000
  C   C207      1.0  0.08826  0.30807  0.39857  1.0000
  C   C208      1.0  0.09811  0.33389  0.39868  1.0000
  O   O99       1.0  0.09524  0.28194  0.42655  1.0000
  O   O100      1.0  0.11343  0.32893  0.42489  1.0000
  H   H99       1.0  0.09264  0.27975  0.49070  1.0000
  H   H100      1.0  0.11396  0.33423  0.48906  1.0000
  C   C209      1.0  0.59208  0.39584  0.31237  1.0000
  C   C210      1.0  0.57548  0.39407  0.33007  1.0000
  C   C211      1.0  0.56555  0.42014  0.33021  1.0000
  C   C212      1.0  0.57165  0.44958  0.31345  1.0000
  O   O101      1.0  0.55014  0.41648  0.35560  1.0000
  H   H101      1.0  0.54424  0.41157  0.30047  1.0000
  O   O102      1.0  0.56883  0.36739  0.35516  1.0000
  H   H102      1.0  0.56497  0.35793  0.29952  1.0000
  C   C213      1.0  0.41567  0.11205  0.34331  1.0000
  C   C214      1.0  0.43245  0.11419  0.35306  1.0000
  C   C215      1.0  0.44243  0.08819  0.35402  1.0000
  C   C216      1.0  0.43625  0.05843  0.34522  1.0000
  O   O103      1.0  0.45819  0.09248  0.37025  1.0000
  H   H103      1.0  0.46312  0.09635  0.31145  1.0000
  O   O104      1.0  0.43936  0.14151  0.36785  1.0000
  H   H104      1.0  0.44296  0.14877  0.30881  1.0000
  C   C217      1.0  0.42040  0.45124  0.39428  1.0000
  C   C218      1.0  0.41058  0.42539  0.39565  1.0000
  O   O105      1.0  0.41335  0.47748  0.42074  1.0000
  O   O106      1.0  0.39521  0.43042  0.42111  1.0000
  H   H105      1.0  0.41586  0.47999  0.48491  1.0000
  H   H106      1.0  0.39463  0.42548  0.48551  1.0000
  C   C219      1.0  0.58903  0.05615  0.35279  1.0000
  C   C220      1.0  0.59898  0.08181  0.35385  1.0000
  O   O107      1.0  0.59635  0.02937  0.37093  1.0000
  O   O108      1.0  0.61462  0.07585  0.37087  1.0000
  H   H107      1.0  0.59511  0.02587  0.43587  1.0000
  H   H108      1.0  0.61604  0.07781  0.43628  1.0000
  C   C221      1.0  0.10759  0.47148  0.31506  1.0000
  C   C222      1.0  0.09466  0.48838  0.35071  1.0000
  C   C223      1.0  0.09472  0.02061  0.35018  1.0000
  C   C224      1.0  0.10777  0.03712  0.31458  1.0000
  O   O109      1.0  0.08330  0.03542  0.39746  1.0000
  H   H109      1.0  0.07456  0.03893  0.35498  1.0000
  O   O110      1.0  0.08316  0.47403  0.39865  1.0000
  H   H110      1.0  0.07448  0.47015  0.35607  1.0000
  C   C225      1.0  0.90150  0.03721  0.31666  1.0000
  C   C226      1.0  0.91420  0.02031  0.35464  1.0000
  C   C227      1.0  0.91407  0.48807  0.35429  1.0000
  C   C228      1.0  0.90118  0.47167  0.31659  1.0000
  O   O111      1.0  0.92515  0.47322  0.40403  1.0000
  H   H111      1.0  0.93422  0.46986  0.36369  1.0000
  O   O112      1.0  0.92540  0.03465  0.40485  1.0000
  H   H112      1.0  0.93440  0.03826  0.36426  1.0000
  C   C229      1.0  0.60773  0.22174  0.37021  1.0000
  C   C230      1.0  0.61929  0.23893  0.41782  1.0000
  C   C231      1.0  0.61910  0.27062  0.41798  1.0000
  C   C232      1.0  0.60742  0.28738  0.37003  1.0000
  O   O113      1.0  0.63068  0.28423  0.46802  1.0000
  H   H113      1.0  0.62553  0.29122  0.52361  1.0000
  O   O114      1.0  0.63104  0.22575  0.46771  1.0000
  H   H114      1.0  0.62602  0.21865  0.52352  1.0000
  C   C233      1.0  0.40170  0.28754  0.31756  1.0000
  C   C234      1.0  0.41413  0.27075  0.35880  1.0000
  C   C235      1.0  0.41406  0.23853  0.35848  1.0000
  C   C236      1.0  0.40151  0.22212  0.31729  1.0000
  O   O115      1.0  0.42462  0.22370  0.41174  1.0000
  H   H115      1.0  0.43419  0.22080  0.37493  1.0000
  O   O116      1.0  0.42476  0.28513  0.41270  1.0000
  H   H116      1.0  0.43419  0.28872  0.37529  1.0000
  C   C237      1.0  0.01281  0.25707  0.43944  1.0000
  C   C238      1.0  0.99598  0.25745  0.43947  1.0000
  O   O117      1.0  0.02062  0.25984  0.51927  1.0000
  O   O118      1.0  0.98819  0.25940  0.51958  1.0000
  H   H117      1.0  0.02247  0.23922  0.54101  1.0000
  H   H118      1.0  0.98652  0.28101  0.53076  1.0000
  C   C239      1.0  0.51325  0.00504  0.42109  1.0000
  C   C240      1.0  0.49643  0.00539  0.42503  1.0000
  O   O119      1.0  0.52164  0.00586  0.49939  1.0000
  O   O120      1.0  0.48922  0.00543  0.50706  1.0000
  H   H119      1.0  0.52347  0.98477  0.51663  1.0000
  H   H120      1.0  0.48755  0.52671  0.52283  1.0000
  C   C241      1.0  0.27107  0.62298  0.33555  1.0000
  C   C242      1.0  0.26270  0.62569  0.25339  1.0000
  C   C243      1.0  0.24635  0.63288  0.25335  1.0000
  C   C244      1.0  0.23792  0.63534  0.33541  1.0000
  O   O121      1.0  0.23871  0.63642  0.17319  1.0000
  H   H121      1.0  0.24032  0.65754  0.15541  1.0000
  O   O122      1.0  0.27038  0.62241  0.17328  1.0000
  H   H122      1.0  0.26885  0.60132  0.15509  1.0000
  C   C245      1.0  0.73750  0.88518  0.34016  1.0000
  C   C246      1.0  0.74587  0.88321  0.25777  1.0000
  C   C247      1.0  0.76224  0.87614  0.25700  1.0000
  C   C248      1.0  0.77069  0.87304  0.33875  1.0000
  O   O123      1.0  0.76986  0.87339  0.17653  1.0000
  H   H123      1.0  0.76834  0.85240  0.15723  1.0000
  O   O124      1.0  0.73817  0.88722  0.17800  1.0000
  H   H124      1.0  0.73977  0.90843  0.16124  1.0000
  C   C249      1.0  0.76270  0.63264  0.26321  1.0000
  C   C250      1.0  0.74634  0.62551  0.26415  1.0000
  O   O125      1.0  0.77027  0.63567  0.18268  1.0000
  O   O126      1.0  0.73858  0.62179  0.18449  1.0000
  H   H125      1.0  0.76864  0.65666  0.16373  1.0000
  H   H126      1.0  0.74013  0.60062  0.16714  1.0000
  C   C251      1.0  0.24620  0.87641  0.25976  1.0000
  C   C252      1.0  0.26256  0.88356  0.25948  1.0000
  O   O127      1.0  0.23846  0.87325  0.17980  1.0000
  O   O128      1.0  0.27016  0.88716  0.17925  1.0000
  H   H127      1.0  0.24007  0.85224  0.16097  1.0000
  H   H128      1.0  0.26855  0.90829  0.16165  1.0000
  C   C253      1.0  0.30377  0.98813  0.25768  1.0000
  C   C254      1.0  0.30388  0.51987  0.25599  1.0000
  O   O129      1.0  0.30360  0.97274  0.17831  1.0000
  O   O130      1.0  0.30377  0.53429  0.17503  1.0000
  H   H129      1.0  0.31474  0.96801  0.16447  1.0000
  H   H130      1.0  0.31492  0.53860  0.16056  1.0000
  C   C255      1.0  0.70644  0.52106  0.26316  1.0000
  C   C256      1.0  0.70643  0.98933  0.26139  1.0000
  O   O131      1.0  0.70747  0.53645  0.18401  1.0000
  O   O132      1.0  0.70743  0.97490  0.18062  1.0000
  H   H131      1.0  0.69651  0.54126  0.16643  1.0000
  H   H132      1.0  0.69646  0.97067  0.16208  1.0000
  C   C257      1.0  0.80375  0.73822  0.25847  1.0000
  C   C258      1.0  0.80375  0.76996  0.25676  1.0000
  O   O133      1.0  0.80379  0.72282  0.17913  1.0000
  O   O134      1.0  0.80377  0.78438  0.17580  1.0000
  H   H133      1.0  0.81497  0.71828  0.16593  1.0000
  H   H134      1.0  0.81495  0.78870  0.16194  1.0000
  C   C259      1.0  0.20535  0.77068  0.25869  1.0000
  C   C260      1.0  0.20524  0.73895  0.25694  1.0000
  O   O135      1.0  0.20522  0.78610  0.17938  1.0000
  O   O136      1.0  0.20506  0.72454  0.17596  1.0000
  H   H135      1.0  0.19402  0.79063  0.16656  1.0000
  H   H136      1.0  0.19385  0.72032  0.16262  1.0000
  C   C261      1.0  0.36181  0.64698  0.33613  1.0000
  C   C262      1.0  0.35427  0.64080  0.25312  1.0000
  C   C263      1.0  0.33819  0.63170  0.25126  1.0000
  C   C264      1.0  0.32920  0.63030  0.33170  1.0000
  O   O137      1.0  0.33144  0.62421  0.17091  1.0000
  H   H137      1.0  0.33422  0.60302  0.15970  1.0000
  O   O138      1.0  0.36265  0.64121  0.17475  1.0000
  H   H138      1.0  0.36174  0.66183  0.15117  1.0000
  C   C265      1.0  0.64642  0.86363  0.33517  1.0000
  C   C266      1.0  0.65310  0.87629  0.25635  1.0000
  C   C267      1.0  0.66924  0.88495  0.25442  1.0000
  C   C268      1.0  0.67915  0.88013  0.33006  1.0000
  O   O139      1.0  0.67525  0.89762  0.17802  1.0000
  H   H139      1.0  0.67190  0.91885  0.17827  1.0000
  O   O140      1.0  0.64404  0.88137  0.18192  1.0000
  H   H140      1.0  0.64420  0.86253  0.14718  1.0000
  C   C269      1.0  0.67160  0.63345  0.26527  1.0000
  C   C270      1.0  0.65543  0.64205  0.26412  1.0000
  O   O141      1.0  0.67915  0.62819  0.18568  1.0000
  O   O142      1.0  0.64783  0.64442  0.18354  1.0000
  H   H141      1.0  0.67678  0.60720  0.16931  1.0000
  H   H142      1.0  0.64875  0.66566  0.16553  1.0000
  C   C271      1.0  0.33639  0.86802  0.27186  1.0000
  C   C272      1.0  0.35252  0.85899  0.27087  1.0000
  O   O143      1.0  0.32784  0.86665  0.19408  1.0000
  O   O144      1.0  0.35916  0.84986  0.19181  1.0000
  H   H143      1.0  0.32975  0.88575  0.16240  1.0000
  H   H144      1.0  0.35539  0.82920  0.18127  1.0000
  C   C273      1.0  0.86165  0.89626  0.33812  1.0000
  C   C274      1.0  0.85378  0.89179  0.25509  1.0000
  C   C275      1.0  0.83765  0.88295  0.25353  1.0000
  C   C276      1.0  0.82892  0.88023  0.33457  1.0000
  O   O145      1.0  0.83063  0.87691  0.17287  1.0000
  H   H145      1.0  0.83320  0.85584  0.15851  1.0000
  O   O146      1.0  0.86192  0.89346  0.17605  1.0000
  H   H146      1.0  0.86069  0.91428  0.15466  1.0000
  C   C277      1.0  0.14704  0.61286  0.33846  1.0000
  C   C278      1.0  0.15516  0.61615  0.25565  1.0000
  C   C279      1.0  0.17128  0.62504  0.25443  1.0000
  C   C280      1.0  0.17973  0.62897  0.33591  1.0000
  O   O147      1.0  0.17852  0.63003  0.17375  1.0000
  H   H147      1.0  0.17608  0.65096  0.15707  1.0000
  O   O148      1.0  0.14722  0.61339  0.17621  1.0000
  H   H148      1.0  0.14885  0.59250  0.15631  1.0000
  C   C281      1.0  0.17276  0.89159  0.27513  1.0000
  C   C282      1.0  0.15663  0.90062  0.27372  1.0000
  O   O149      1.0  0.18158  0.89426  0.19862  1.0000
  O   O150      1.0  0.15023  0.91098  0.19534  1.0000
  H   H149      1.0  0.17981  0.87568  0.16401  1.0000
  H   H150      1.0  0.15465  0.93121  0.18544  1.0000
  C   C283      1.0  0.83636  0.61765  0.27422  1.0000
  C   C284      1.0  0.85247  0.60852  0.27301  1.0000
  O   O151      1.0  0.82767  0.61564  0.19708  1.0000
  O   O152      1.0  0.85897  0.59872  0.19427  1.0000
  H   H151      1.0  0.82953  0.63447  0.16385  1.0000
  H   H152      1.0  0.85481  0.57832  0.18394  1.0000
  C   C285      1.0  0.08911  0.70278  0.33310  1.0000
  C   C286      1.0  0.09903  0.67707  0.33146  1.0000
  O   O153      1.0  0.09644  0.72953  0.31484  1.0000
  O   O154      1.0  0.11465  0.68298  0.31374  1.0000
  H   H153      1.0  0.09511  0.73310  0.24998  1.0000
  H   H154      1.0  0.11598  0.68101  0.24827  1.0000
  C   C287      1.0  0.91966  0.80615  0.33373  1.0000
  C   C288      1.0  0.90971  0.83183  0.33205  1.0000
  O   O155      1.0  0.91239  0.77944  0.31418  1.0000
  O   O156      1.0  0.89412  0.82594  0.31336  1.0000
  H   H155      1.0  0.91386  0.77608  0.24932  1.0000
  H   H156      1.0  0.89291  0.82807  0.24786  1.0000
  C   C289      1.0  0.91647  0.64576  0.37404  1.0000
  C   C290      1.0  0.93310  0.64399  0.35776  1.0000
  C   C291      1.0  0.94302  0.67008  0.35807  1.0000
  C   C292      1.0  0.93686  0.69953  0.37376  1.0000
  O   O157      1.0  0.95851  0.66639  0.33419  1.0000
  H   H157      1.0  0.96424  0.66152  0.38990  1.0000
  O   O158      1.0  0.93985  0.61727  0.33392  1.0000
  H   H158      1.0  0.94356  0.60796  0.39012  1.0000
  C   C293      1.0  0.09240  0.86305  0.37375  1.0000
  C   C294      1.0  0.07577  0.86486  0.35708  1.0000
  C   C295      1.0  0.06582  0.83883  0.35781  1.0000
  C   C296      1.0  0.07192  0.80938  0.37433  1.0000
  O   O159      1.0  0.05036  0.84251  0.33330  1.0000
  H   H159      1.0  0.04457  0.84759  0.38867  1.0000
  O   O160      1.0  0.06909  0.89153  0.33217  1.0000
  H   H160      1.0  0.06532  0.90104  0.38792  1.0000
  C   C297      1.0  0.58793  0.95084  0.28797  1.0000
  C   C298      1.0  0.59775  0.92499  0.28712  1.0000
  O   O161      1.0  0.59488  0.97695  0.25957  1.0000
  O   O162      1.0  0.61303  0.92991  0.25982  1.0000
  H   H161      1.0  0.59215  0.97915  0.19559  1.0000
  H   H162      1.0  0.61341  0.92457  0.19567  1.0000
  C   C299      1.0  0.41958  0.55653  0.33016  1.0000
  C   C300      1.0  0.40967  0.58225  0.32969  1.0000
  O   O163      1.0  0.41225  0.52988  0.31055  1.0000
  O   O164      1.0  0.39402  0.57644  0.31251  1.0000
  H   H163      1.0  0.41362  0.52664  0.24556  1.0000
  H   H164      1.0  0.39262  0.57851  0.24711  1.0000
  C   C301      1.0  0.41634  0.89613  0.37246  1.0000
  C   C302      1.0  0.43296  0.89429  0.35583  1.0000
  C   C303      1.0  0.44288  0.92037  0.35493  1.0000
  C   C304      1.0  0.43674  0.94987  0.37000  1.0000
  O   O165      1.0  0.45834  0.91655  0.33070  1.0000
  H   H165      1.0  0.46414  0.91197  0.38644  1.0000
  O   O166      1.0  0.43970  0.86749  0.33262  1.0000
  H   H166      1.0  0.44347  0.85839  0.38900  1.0000
  C   C305      1.0  0.59304  0.61172  0.34141  1.0000
  C   C306      1.0  0.57625  0.61398  0.33229  1.0000
  C   C307      1.0  0.56622  0.58803  0.33056  1.0000
  C   C308      1.0  0.57235  0.55818  0.33826  1.0000
  O   O167      1.0  0.55046  0.59249  0.31496  1.0000
  H   H167      1.0  0.54559  0.59618  0.37402  1.0000
  O   O168      1.0  0.56939  0.64140  0.31855  1.0000
  H   H168      1.0  0.56586  0.64848  0.37790  1.0000
  C   C309      1.0  0.11930  0.51999  0.26659  1.0000
  C   C310      1.0  0.11918  0.98829  0.26662  1.0000
  O   O169      1.0  0.13097  0.53323  0.21620  1.0000
  O   O170      1.0  0.13073  0.97472  0.21630  1.0000
  H   H169      1.0  0.12586  0.54030  0.16062  1.0000
  H   H170      1.0  0.12555  0.96766  0.16091  1.0000
  C   C311      1.0  0.88993  0.98880  0.26658  1.0000
  C   C312      1.0  0.89012  0.52049  0.26637  1.0000
  O   O171      1.0  0.87850  0.97555  0.21457  1.0000
  O   O172      1.0  0.87885  0.53416  0.21426  1.0000
  H   H171      1.0  0.88387  0.96831  0.15997  1.0000
  H   H172      1.0  0.88433  0.54132  0.15993  1.0000
  C   C313      1.0  0.59449  0.77042  0.33475  1.0000
  C   C314      1.0  0.59462  0.73818  0.33515  1.0000
  O   O173      1.0  0.58291  0.78470  0.28728  1.0000
  O   O174      1.0  0.58316  0.72332  0.28827  1.0000
  H   H173      1.0  0.57428  0.78856  0.33023  1.0000
  H   H174      1.0  0.57447  0.71978  0.33104  1.0000
  C   C315      1.0  0.39061  0.73914  0.26462  1.0000
  C   C316      1.0  0.39072  0.77082  0.26461  1.0000
  O   O175      1.0  0.37960  0.72574  0.21011  1.0000
  O   O176      1.0  0.37981  0.78453  0.21024  1.0000
  H   H175      1.0  0.38539  0.71842  0.15701  1.0000
  H   H176      1.0  0.38565  0.79184  0.15734  1.0000
  C   C317      1.0  0.98734  0.75457  0.35813  1.0000
  C   C318      1.0  0.99594  0.75203  0.27654  1.0000
  C   C319      1.0  0.01277  0.75146  0.27658  1.0000
  C   C320      1.0  0.02141  0.75445  0.35788  1.0000
  O   O177      1.0  0.02058  0.74948  0.19655  1.0000
  H   H177      1.0  0.02201  0.72786  0.18472  1.0000
  O   O178      1.0  0.98810  0.74923  0.19682  1.0000
  H   H178      1.0  0.98639  0.76984  0.17463  1.0000
  C   C321      1.0  0.48722  0.50467  0.34530  1.0000
  C   C322      1.0  0.49523  0.50438  0.26147  1.0000
  C   C323      1.0  0.51205  0.50382  0.25754  1.0000
  C   C324      1.0  0.52126  0.50464  0.33728  1.0000
  O   O179      1.0  0.51927  0.50368  0.17555  1.0000
  H   H179      1.0  0.52066  0.48238  0.15923  1.0000
  O   O180      1.0  0.48683  0.50346  0.18321  1.0000
  H   H180      1.0  0.48510  0.52454  0.16544  1.0000
  C   C325      1.0  0.31459  0.61485  0.33203  1.0000
  N   N61       1.0  0.30006  0.62848  0.33342  1.0000
  C   C326      1.0  0.28661  0.61131  0.33555  1.0000
  N   N62       1.0  0.28781  0.58089  0.33678  1.0000
  C   C327      1.0  0.30218  0.56746  0.33574  1.0000
  N   N63       1.0  0.31550  0.58435  0.33341  1.0000
  C   C328      1.0  0.69400  0.89484  0.33434  1.0000
  N   N64       1.0  0.70840  0.88065  0.33679  1.0000
  C   C329      1.0  0.72204  0.89727  0.34112  1.0000
  N   N65       1.0  0.72116  0.92773  0.34309  1.0000
  C   C330      1.0  0.70694  0.94172  0.34149  1.0000
  N   N66       1.0  0.69347  0.92536  0.33688  1.0000
  C   C331      1.0  0.69449  0.61489  0.34905  1.0000
  N   N67       1.0  0.70899  0.62868  0.34827  1.0000
  C   C332      1.0  0.72250  0.61165  0.34784  1.0000
  N   N68       1.0  0.72139  0.58121  0.34763  1.0000
  C   C333      1.0  0.70705  0.56763  0.34843  1.0000
  N   N69       1.0  0.69367  0.58439  0.34884  1.0000
  C   C334      1.0  0.31463  0.89430  0.34774  1.0000
  N   N70       1.0  0.30013  0.88048  0.34513  1.0000
  C   C335      1.0  0.28661  0.89746  0.34143  1.0000
  N   N71       1.0  0.28771  0.92790  0.34032  1.0000
  C   C336      1.0  0.30203  0.94153  0.34240  1.0000
  N   N72       1.0  0.31539  0.92481  0.34620  1.0000
  C   C337      1.0  0.81425  0.86491  0.33412  1.0000
  N   N73       1.0  0.79972  0.87857  0.33597  1.0000
  C   C338      1.0  0.78625  0.86142  0.33773  1.0000
  N   N74       1.0  0.78745  0.83099  0.33818  1.0000
  C   C339      1.0  0.80181  0.81754  0.33646  1.0000
  N   N75       1.0  0.81515  0.83441  0.33466  1.0000
  C   C340      1.0  0.19443  0.64416  0.33490  1.0000
  N   N76       1.0  0.20890  0.63027  0.33488  1.0000
  C   C341      1.0  0.22243  0.64722  0.33544  1.0000
  N   N77       1.0  0.22138  0.67766  0.33647  1.0000
  C   C342      1.0  0.20706  0.69134  0.33648  1.0000
  N   N78       1.0  0.19366  0.67466  0.33586  1.0000
  C   C343      1.0  0.19433  0.86422  0.34966  1.0000
  N   N79       1.0  0.20875  0.87833  0.34647  1.0000
  C   C344      1.0  0.22237  0.86164  0.34237  1.0000
  N   N80       1.0  0.22145  0.83118  0.34113  1.0000
  C   C345      1.0  0.20721  0.81726  0.34344  1.0000
  N   N81       1.0  0.19376  0.83370  0.34782  1.0000
  C   C346      1.0  0.81475  0.64456  0.34940  1.0000
  N   N82       1.0  0.80030  0.63057  0.34758  1.0000
  C   C347      1.0  0.78672  0.64738  0.34397  1.0000
  N   N83       1.0  0.78771  0.67783  0.34215  1.0000
  C   C348      1.0  0.80199  0.69162  0.34324  1.0000
  N   N84       1.0  0.81541  0.67507  0.34710  1.0000
  C   C349      1.0  0.10352  0.62155  0.34342  1.0000
  N   N85       1.0  0.09930  0.59149  0.33685  1.0000
  C   C350      1.0  0.11032  0.56871  0.32684  1.0000
  N   N86       1.0  0.12583  0.57722  0.32924  1.0000
  C   C351      1.0  0.13074  0.60575  0.33979  1.0000
  N   N87       1.0  0.11943  0.62709  0.34533  1.0000
  C   C352      1.0  0.90517  0.88729  0.34484  1.0000
  N   N88       1.0  0.90945  0.91731  0.33901  1.0000
  C   C353      1.0  0.89848  0.94014  0.32876  1.0000
  N   N89       1.0  0.88294  0.93179  0.33022  1.0000
  C   C354      1.0  0.87798  0.90325  0.34010  1.0000
  N   N90       1.0  0.88924  0.88182  0.34577  1.0000
  C   C355      1.0  0.90588  0.62061  0.36370  1.0000
  N   N91       1.0  0.90998  0.59089  0.34863  1.0000
  C   C356      1.0  0.89896  0.56871  0.33073  1.0000
  N   N92       1.0  0.88349  0.57753  0.33114  1.0000
  C   C357      1.0  0.87860  0.60585  0.34722  1.0000
  N   N93       1.0  0.89000  0.62652  0.36294  1.0000
  C   C358      1.0  0.10304  0.88811  0.36300  1.0000
  N   N94       1.0  0.09900  0.91784  0.34735  1.0000
  C   C359      1.0  0.11005  0.93995  0.32937  1.0000
  N   N95       1.0  0.12551  0.93100  0.33036  1.0000
  C   C360      1.0  0.13036  0.90268  0.34681  1.0000
  N   N96       1.0  0.11891  0.88210  0.36260  1.0000
  C   C361      1.0  0.60272  0.87077  0.32248  1.0000
  N   N97       1.0  0.59873  0.84102  0.33823  1.0000
  C   C362      1.0  0.60982  0.81893  0.35576  1.0000
  N   N98       1.0  0.62526  0.82795  0.35430  1.0000
  C   C363      1.0  0.63007  0.85629  0.33782  1.0000
  N   N99       1.0  0.61859  0.87683  0.32249  1.0000
  C   C364      1.0  0.40527  0.63773  0.34340  1.0000
  N   N100      1.0  0.40963  0.66772  0.33871  1.0000
  C   C365      1.0  0.39871  0.69065  0.32910  1.0000
  N   N101      1.0  0.38314  0.68251  0.32996  1.0000
  C   C366      1.0  0.37812  0.65396  0.33880  1.0000
  N   N102      1.0  0.38934  0.63240  0.34375  1.0000
  C   C367      1.0  0.40575  0.87096  0.36301  1.0000
  N   N103      1.0  0.40993  0.84126  0.34884  1.0000
  C   C368      1.0  0.39899  0.81897  0.33117  1.0000
  N   N104      1.0  0.38348  0.82756  0.33081  1.0000
  C   C369      1.0  0.37853  0.85589  0.34628  1.0000
  N   N105      1.0  0.38985  0.87675  0.36184  1.0000
  C   C370      1.0  0.60350  0.63732  0.34174  1.0000
  N   N106      1.0  0.59929  0.66737  0.34828  1.0000
  C   C371      1.0  0.61031  0.69015  0.35791  1.0000
  N   N107      1.0  0.62582  0.68166  0.35518  1.0000
  C   C372      1.0  0.63073  0.65312  0.34457  1.0000
  N   N108      1.0  0.61942  0.63177  0.33944  1.0000
  C   C373      1.0  0.06263  0.78240  0.36754  1.0000
  N   N109      1.0  0.04644  0.78122  0.36415  1.0000
  C   C374      1.0  0.03831  0.75464  0.35803  1.0000
  N   N110      1.0  0.04669  0.72828  0.35386  1.0000
  C   C375      1.0  0.06290  0.72753  0.35449  1.0000
  N   N111      1.0  0.06993  0.75508  0.36205  1.0000
  C   C376      1.0  0.94615  0.72652  0.36704  1.0000
  N   N112      1.0  0.96234  0.72773  0.36337  1.0000
  C   C377      1.0  0.97045  0.75436  0.35857  1.0000
  N   N113      1.0  0.96207  0.78073  0.35570  1.0000
  C   C378      1.0  0.94585  0.78144  0.35591  1.0000
  N   N114      1.0  0.93884  0.75386  0.36244  1.0000
  C   C379      1.0  0.56275  0.53150  0.33327  1.0000
  N   N115      1.0  0.54654  0.53080  0.33598  1.0000
  C   C380      1.0  0.53813  0.50445  0.33328  1.0000
  N   N116      1.0  0.54622  0.97782  0.32680  1.0000
  C   C381      1.0  0.56239  0.97659  0.32107  1.0000
  N   N117      1.0  0.56972  0.50392  0.32521  1.0000
  C   C382      1.0  0.44604  0.97681  0.36195  1.0000
  N   N118      1.0  0.46222  0.97794  0.35603  1.0000
  C   C383      1.0  0.47035  0.00451  0.34940  1.0000
  N   N119      1.0  0.46199  0.53090  0.34702  1.0000
  C   C384      1.0  0.44579  0.53169  0.34983  1.0000
  N   N120      1.0  0.43876  0.00417  0.35786  1.0000
  C   C385      1.0  0.24630  0.63266  0.41757  1.0000
  C   C386      1.0  0.26265  0.62540  0.41764  1.0000
  O   O181      1.0  0.23863  0.63600  0.49767  1.0000
  O   O182      1.0  0.27029  0.62193  0.49778  1.0000
  H   H181      1.0  0.24023  0.65707  0.51593  1.0000
  H   H182      1.0  0.26869  0.60082  0.51570  1.0000
  C   C387      1.0  0.76232  0.87491  0.42115  1.0000
  C   C388      1.0  0.74596  0.88209  0.42191  1.0000
  O   O183      1.0  0.77003  0.87101  0.50089  1.0000
  O   O184      1.0  0.73835  0.88495  0.50237  1.0000
  H   H183      1.0  0.76846  0.84980  0.51779  1.0000
  H   H184      1.0  0.74000  0.90589  0.52184  1.0000
  C   C389      1.0  0.73804  0.62339  0.34669  1.0000
  C   C390      1.0  0.74655  0.62623  0.42836  1.0000
  C   C391      1.0  0.76292  0.63330  0.42739  1.0000
  C   C392      1.0  0.77123  0.63546  0.34484  1.0000
  O   O185      1.0  0.77067  0.63705  0.50710  1.0000
  H   H185      1.0  0.76913  0.65823  0.52434  1.0000
  O   O186      1.0  0.73898  0.62325  0.50892  1.0000
  H   H186      1.0  0.74054  0.60223  0.52778  1.0000
  C   C393      1.0  0.27106  0.88572  0.34137  1.0000
  C   C394      1.0  0.26273  0.88294  0.42365  1.0000
  C   C395      1.0  0.24635  0.87590  0.42393  1.0000
  C   C396      1.0  0.23786  0.87366  0.34200  1.0000
  O   O187      1.0  0.23877  0.87225  0.50422  1.0000
  H   H187      1.0  0.24037  0.85110  0.52165  1.0000
  O   O188      1.0  0.27046  0.88601  0.50367  1.0000
  H   H188      1.0  0.26896  0.90707  0.52234  1.0000
  C   C397      1.0  0.30316  0.53613  0.33764  1.0000
  C   C398      1.0  0.30272  0.52085  0.42105  1.0000
  C   C399      1.0  0.30267  0.98911  0.42275  1.0000
  C   C400      1.0  0.30298  0.97286  0.34100  1.0000
  O   O189      1.0  0.30151  0.97469  0.50344  1.0000
  H   H189      1.0  0.31244  0.97023  0.52228  1.0000
  O   O190      1.0  0.30159  0.53623  0.50019  1.0000
  H   H190      1.0  0.31253  0.54109  0.51809  1.0000
  C   C401      1.0  0.70620  0.97306  0.34312  1.0000
  C   C402      1.0  0.70558  0.98830  0.42653  1.0000
  C   C403      1.0  0.70554  0.52004  0.42830  1.0000
  C   C404      1.0  0.70615  0.53631  0.34664  1.0000
  O   O191      1.0  0.70574  0.53445  0.50926  1.0000
  H   H191      1.0  0.69461  0.53880  0.52408  1.0000
  O   O192      1.0  0.70577  0.97288  0.50584  1.0000
  H   H192      1.0  0.69463  0.96835  0.52013  1.0000
  C   C405      1.0  0.80280  0.78621  0.33833  1.0000
  C   C406      1.0  0.80223  0.77095  0.42174  1.0000
  C   C407      1.0  0.80228  0.73921  0.42347  1.0000
  C   C408      1.0  0.80283  0.72296  0.34177  1.0000
  O   O193      1.0  0.80101  0.72479  0.50412  1.0000
  H   H193      1.0  0.81192  0.72038  0.52352  1.0000
  O   O194      1.0  0.80092  0.78632  0.50079  1.0000
  H   H194      1.0  0.81181  0.79129  0.51934  1.0000
  C   C409      1.0  0.20622  0.72267  0.33847  1.0000
  C   C410      1.0  0.20695  0.73791  0.42186  1.0000
  C   C411      1.0  0.20701  0.76965  0.42364  1.0000
  C   C412      1.0  0.20641  0.78592  0.34197  1.0000
  O   O195      1.0  0.20840  0.78406  0.50424  1.0000
  H   H195      1.0  0.19752  0.78846  0.52417  1.0000
  O   O196      1.0  0.20830  0.72251  0.50084  1.0000
  H   H196      1.0  0.19742  0.71771  0.51985  1.0000
  C   C413      1.0  0.33677  0.63677  0.41456  1.0000
  C   C414      1.0  0.35287  0.64576  0.41659  1.0000
  O   O197      1.0  0.32873  0.63389  0.49372  1.0000
  O   O198      1.0  0.35992  0.65082  0.49766  1.0000
  H   H197      1.0  0.33095  0.61346  0.51595  1.0000
  H   H198      1.0  0.35886  0.67253  0.50924  1.0000
  C   C415      1.0  0.67251  0.86734  0.40874  1.0000
  C   C416      1.0  0.65638  0.85828  0.41038  1.0000
  O   O199      1.0  0.68138  0.86453  0.48499  1.0000
  O   O200      1.0  0.65004  0.84775  0.48872  1.0000
  H   H199      1.0  0.67963  0.88302  0.52002  1.0000
  H   H200      1.0  0.65455  0.82759  0.49852  1.0000
  C   C417      1.0  0.64705  0.64605  0.34571  1.0000
  C   C418      1.0  0.65522  0.64293  0.42839  1.0000
  C   C419      1.0  0.67136  0.63410  0.42943  1.0000
  C   C420      1.0  0.67979  0.63009  0.34786  1.0000
  O   O201      1.0  0.67864  0.62926  0.51007  1.0000
  H   H201      1.0  0.67621  0.60836  0.52714  1.0000
  O   O202      1.0  0.64733  0.64575  0.50794  1.0000
  H   H202      1.0  0.64897  0.66666  0.52766  1.0000
  C   C421      1.0  0.36215  0.86294  0.34813  1.0000
  C   C422      1.0  0.35513  0.87400  0.42812  1.0000
  C   C423      1.0  0.33898  0.88257  0.42937  1.0000
  C   C424      1.0  0.32938  0.87923  0.35171  1.0000
  O   O203      1.0  0.33266  0.89385  0.50687  1.0000
  H   H203      1.0  0.33586  0.91514  0.50995  1.0000
  O   O204      1.0  0.36391  0.87775  0.50432  1.0000
  H   H204      1.0  0.36365  0.85830  0.53590  1.0000
  C   C425      1.0  0.83682  0.88497  0.41749  1.0000
  C   C426      1.0  0.85298  0.89362  0.41922  1.0000
  O   O205      1.0  0.82902  0.88087  0.49693  1.0000
  O   O206      1.0  0.86031  0.89719  0.50021  1.0000
  H   H205      1.0  0.83129  0.86009  0.51604  1.0000
  H   H206      1.0  0.85937  0.91868  0.51522  1.0000
  C   C427      1.0  0.17161  0.62545  0.41867  1.0000
  C   C428      1.0  0.15546  0.61676  0.41998  1.0000
  O   O207      1.0  0.17921  0.63058  0.49820  1.0000
  O   O208      1.0  0.14791  0.61422  0.50065  1.0000
  H   H207      1.0  0.17682  0.65152  0.51499  1.0000
  H   H208      1.0  0.14885  0.59295  0.51830  1.0000
  C   C429      1.0  0.14672  0.89539  0.34921  1.0000
  C   C430      1.0  0.15347  0.88291  0.42810  1.0000
  C   C431      1.0  0.16962  0.87429  0.42980  1.0000
  C   C432      1.0  0.17949  0.87898  0.35385  1.0000
  O   O209      1.0  0.17568  0.86180  0.50632  1.0000
  H   H209      1.0  0.17234  0.84057  0.50658  1.0000
  O   O210      1.0  0.14446  0.87795  0.50281  1.0000
  H   H210      1.0  0.14463  0.89686  0.53721  1.0000
  C   C433      1.0  0.86225  0.61308  0.34940  1.0000
  C   C434      1.0  0.85540  0.62492  0.42886  1.0000
  C   C435      1.0  0.83926  0.63361  0.43034  1.0000
  C   C436      1.0  0.82952  0.62962  0.35354  1.0000
  O   O211      1.0  0.83310  0.64557  0.50733  1.0000
  H   H211      1.0  0.83636  0.66684  0.50876  1.0000
  O   O212      1.0  0.86430  0.62927  0.50430  1.0000
  H   H212      1.0  0.86408  0.61009  0.53733  1.0000
  C   C437      1.0  0.09308  0.64718  0.34411  1.0000
  C   C438      1.0  0.07630  0.64498  0.35386  1.0000
  C   C439      1.0  0.06631  0.67097  0.35624  1.0000
  C   C440      1.0  0.07245  0.70080  0.34851  1.0000
  O   O213      1.0  0.05056  0.66654  0.37245  1.0000
  H   H213      1.0  0.04560  0.66307  0.31351  1.0000
  O   O214      1.0  0.06943  0.61757  0.36766  1.0000
  H   H214      1.0  0.06583  0.61055  0.30837  1.0000
  C   C441      1.0  0.91563  0.86169  0.34567  1.0000
  C   C442      1.0  0.93238  0.86392  0.35653  1.0000
  C   C443      1.0  0.94239  0.83796  0.35893  1.0000
  C   C444      1.0  0.93628  0.80814  0.35018  1.0000
  O   O215      1.0  0.95810  0.84238  0.37617  1.0000
  H   H215      1.0  0.96317  0.84608  0.31762  1.0000
  O   O216      1.0  0.93921  0.89131  0.37128  1.0000
  H   H216      1.0  0.94293  0.89846  0.31236  1.0000
  C   C445      1.0  0.92049  0.70082  0.39756  1.0000
  C   C446      1.0  0.91069  0.67495  0.39805  1.0000
  O   O217      1.0  0.91344  0.72697  0.42477  1.0000
  O   O218      1.0  0.89532  0.67992  0.42360  1.0000
  H   H217      1.0  0.91593  0.72927  0.48903  1.0000
  H   H218      1.0  0.89473  0.67480  0.48787  1.0000
  C   C447      1.0  0.08826  0.80807  0.39857  1.0000
  C   C448      1.0  0.09811  0.83389  0.39868  1.0000
  O   O219      1.0  0.09524  0.78194  0.42655  1.0000
  O   O220      1.0  0.11343  0.82893  0.42489  1.0000
  H   H219      1.0  0.09264  0.77976  0.49070  1.0000
  H   H220      1.0  0.11396  0.83423  0.48906  1.0000
  C   C449      1.0  0.59208  0.89584  0.31237  1.0000
  C   C450      1.0  0.57548  0.89407  0.33007  1.0000
  C   C451      1.0  0.56555  0.92014  0.33021  1.0000
  C   C452      1.0  0.57165  0.94958  0.31345  1.0000
  O   O221      1.0  0.55014  0.91647  0.35560  1.0000
  H   H221      1.0  0.54424  0.91157  0.30047  1.0000
  O   O222      1.0  0.56883  0.86739  0.35516  1.0000
  H   H222      1.0  0.56497  0.85793  0.29952  1.0000
  C   C453      1.0  0.41567  0.61205  0.34331  1.0000
  C   C454      1.0  0.43245  0.61419  0.35306  1.0000
  C   C455      1.0  0.44243  0.58819  0.35402  1.0000
  C   C456      1.0  0.43625  0.55842  0.34522  1.0000
  O   O223      1.0  0.45819  0.59248  0.37025  1.0000
  H   H223      1.0  0.46312  0.59635  0.31145  1.0000
  O   O224      1.0  0.43936  0.64151  0.36785  1.0000
  H   H224      1.0  0.44296  0.64877  0.30881  1.0000
  C   C457      1.0  0.42040  0.95124  0.39428  1.0000
  C   C458      1.0  0.41058  0.92539  0.39565  1.0000
  O   O225      1.0  0.41335  0.97748  0.42074  1.0000
  O   O226      1.0  0.39521  0.93042  0.42111  1.0000
  H   H225      1.0  0.41586  0.97999  0.48491  1.0000
  H   H226      1.0  0.39463  0.92548  0.48551  1.0000
  C   C459      1.0  0.58903  0.55615  0.35279  1.0000
  C   C460      1.0  0.59898  0.58181  0.35385  1.0000
  O   O227      1.0  0.59635  0.52937  0.37093  1.0000
  O   O228      1.0  0.61462  0.57585  0.37086  1.0000
  H   H227      1.0  0.59511  0.52587  0.43587  1.0000
  H   H228      1.0  0.61604  0.57781  0.43628  1.0000
  C   C461      1.0  0.10759  0.97149  0.31506  1.0000
  C   C462      1.0  0.09466  0.98837  0.35071  1.0000
  C   C463      1.0  0.09472  0.52061  0.35018  1.0000
  C   C464      1.0  0.10777  0.53712  0.31458  1.0000
  O   O229      1.0  0.08330  0.53541  0.39746  1.0000
  H   H229      1.0  0.07456  0.53893  0.35498  1.0000
  O   O230      1.0  0.08316  0.97403  0.39865  1.0000
  H   H230      1.0  0.07448  0.97015  0.35607  1.0000
  C   C465      1.0  0.90150  0.53721  0.31666  1.0000
  C   C466      1.0  0.91420  0.52031  0.35464  1.0000
  C   C467      1.0  0.91407  0.98808  0.35429  1.0000
  C   C468      1.0  0.90118  0.97167  0.31659  1.0000
  O   O231      1.0  0.92515  0.97322  0.40403  1.0000
  H   H231      1.0  0.93422  0.96986  0.36368  1.0000
  O   O232      1.0  0.92540  0.53464  0.40485  1.0000
  H   H232      1.0  0.93440  0.53826  0.36426  1.0000
  C   C469      1.0  0.60773  0.72174  0.37021  1.0000
  C   C470      1.0  0.61929  0.73893  0.41782  1.0000
  C   C471      1.0  0.61910  0.77062  0.41798  1.0000
  C   C472      1.0  0.60742  0.78738  0.37003  1.0000
  O   O233      1.0  0.63068  0.78423  0.46802  1.0000
  H   H233      1.0  0.62553  0.79122  0.52361  1.0000
  O   O234      1.0  0.63104  0.72575  0.46771  1.0000
  H   H234      1.0  0.62601  0.71865  0.52352  1.0000
  C   C473      1.0  0.40170  0.78754  0.31756  1.0000
  C   C474      1.0  0.41413  0.77075  0.35880  1.0000
  C   C475      1.0  0.41406  0.73853  0.35848  1.0000
  C   C476      1.0  0.40151  0.72212  0.31729  1.0000
  O   O235      1.0  0.42462  0.72370  0.41174  1.0000
  H   H235      1.0  0.43419  0.72080  0.37493  1.0000
  O   O236      1.0  0.42476  0.78513  0.41270  1.0000
  H   H236      1.0  0.43419  0.78872  0.37529  1.0000
  C   C477      1.0  0.01281  0.75707  0.43944  1.0000
  C   C478      1.0  0.99598  0.75745  0.43947  1.0000
  O   O237      1.0  0.02062  0.75984  0.51927  1.0000
  O   O238      1.0  0.98819  0.75940  0.51958  1.0000
  H   H237      1.0  0.02247  0.73922  0.54101  1.0000
  H   H238      1.0  0.98652  0.78100  0.53076  1.0000
  C   C479      1.0  0.51325  0.50504  0.42109  1.0000
  C   C480      1.0  0.49643  0.50539  0.42503  1.0000
  O   O239      1.0  0.52164  0.50586  0.49939  1.0000
  O   O240      1.0  0.48922  0.50543  0.50706  1.0000
  H   H239      1.0  0.52347  0.48477  0.51663  1.0000
  H   H240      1.0  0.48755  0.02671  0.52283  1.0000
