data_image0
_chemical_formula_structural       C7H4C8H4C2N2C6SiC11H12N2C6H4C7H4C8H4C2N2C6SiC11H12N2C6H4C7H4C8H4C2N2C6SiC11H12N2C6H4C7H4C8H4C2N2C6SiC11H12N2C6H4C7H4C8H4C2N2C6SiC11H12N2C6H4C7H4C8H4C2N2C6SiC11H12N2C6H4C7H4C8H4C2N2C6SiC11H12N2C6H4C7H4C8H4C2N2C6SiC11H12N2C6H4C7H4C8H4C2N2C6SiC11H12N2C6H4
_chemical_formula_sum              "C360 H216 N36 Si9"
_cell_length_a       36.3374
_cell_length_b       36.3381
_cell_length_c       15.1242
_cell_angle_alpha    90
_cell_angle_beta     90
_cell_angle_gamma    90.0701

_space_group_name_H-M_alt    "P 1"
_space_group_IT_number       1

loop_
  _space_group_symop_operation_xyz
  'x, y, z'

loop_
  _atom_site_type_symbol
  _atom_site_label
  _atom_site_symmetry_multiplicity
  _atom_site_fract_x
  _atom_site_fract_y
  _atom_site_fract_z
  _atom_site_occupancy
  C   C1        1.0  0.06951  0.02945  0.06192  1.0000
  C   C2        1.0  0.08652  0.32921  0.08477  1.0000
  C   C3        1.0  0.06939  0.29561  0.06209  1.0000
  C   C4        1.0  0.28403  0.29583  0.00007  1.0000
  C   C5        1.0  0.25548  0.29579  0.06232  1.0000
  C   C6        1.0  0.23854  0.99613  0.08494  1.0000
  C   C7        1.0  0.25557  0.02972  0.06212  1.0000
  H   H1        1.0  0.08231  0.05397  0.07536  1.0000
  H   H2        1.0  0.08227  0.27106  0.07442  1.0000
  H   H3        1.0  0.24250  0.27130  0.07512  1.0000
  H   H4        1.0  0.24260  0.05420  0.07460  1.0000
  C   C8        1.0  0.99570  0.20057  0.33549  1.0000
  C   C9        1.0  0.99578  0.18224  0.25268  1.0000
  C   C10       1.0  0.32922  0.14285  0.25260  1.0000
  C   C11       1.0  0.32924  0.12446  0.33534  1.0000
  C   C12       1.0  0.32930  0.12376  0.17107  1.0000
  C   C13       1.0  0.32927  0.14326  0.09073  1.0000
  C   C14       1.0  0.99583  0.18194  0.09080  1.0000
  C   C15       1.0  0.99575  0.20138  0.17123  1.0000
  H   H5        1.0  0.32937  0.09561  0.16934  1.0000
  H   H6        1.0  0.32933  0.12926  0.03206  1.0000
  H   H7        1.0  0.99581  0.19599  0.03219  1.0000
  H   H8        1.0  0.99568  0.22953  0.16961  1.0000
  C   C16       1.0  0.12481  0.99576  0.07794  1.0000
  C   C17       1.0  0.20022  0.99589  0.07795  1.0000
  N   N1        1.0  0.18041  0.99586  0.15376  1.0000
  N   N2        1.0  0.14460  0.99580  0.15376  1.0000
  C   C18       1.0  0.32887  0.23839  0.35349  1.0000
  C   C19       1.0  0.29543  0.25357  0.38382  1.0000
  C   C20       1.0  0.29553  0.28163  0.44764  1.0000
  C   C21       1.0  0.32902  0.29435  0.48443  1.0000
  C   C22       1.0  0.02911  0.28176  0.44716  1.0000
  C   C23       1.0  0.02906  0.25356  0.38371  1.0000
  Si  Si1       1.0  0.32911  0.99593  0.55452  1.0000
  C   C24       1.0  0.32921  0.03081  0.48430  1.0000
  C   C25       1.0  0.02938  0.04350  0.44749  1.0000
  C   C26       1.0  0.02948  0.07161  0.38383  1.0000
  C   C27       1.0  0.32935  0.08660  0.35313  1.0000
  C   C28       1.0  0.29581  0.07143  0.38313  1.0000
  C   C29       1.0  0.29579  0.04338  0.44698  1.0000
  C   C30       1.0  0.29578  0.99601  0.62800  1.0000
  C   C31       1.0  0.02914  0.32926  0.62791  1.0000
  C   C32       1.0  0.04088  0.02944  0.66660  1.0000
  C   C33       1.0  0.04092  0.29570  0.66626  1.0000
  C   C34       1.0  0.28403  0.02958  0.66630  1.0000
  H   H9        1.0  0.03162  0.05434  0.64405  1.0000
  H   H10       1.0  0.03168  0.27082  0.64339  1.0000
  H   H11       1.0  0.29315  0.27093  0.64389  1.0000
  H   H12       1.0  0.29325  0.05445  0.64329  1.0000
  H   H13       1.0  0.27090  0.03397  0.46921  1.0000
  H   H14       1.0  0.27123  0.08336  0.36650  1.0000
  H   H15       1.0  0.05408  0.08354  0.36713  1.0000
  H   H16       1.0  0.05423  0.03410  0.46990  1.0000
  H   H17       1.0  0.05400  0.29121  0.46925  1.0000
  H   H18       1.0  0.27069  0.29104  0.47001  1.0000
  H   H19       1.0  0.27083  0.24154  0.36759  1.0000
  H   H20       1.0  0.05366  0.24173  0.36681  1.0000
  N   N3        1.0  0.32914  0.14474  0.41031  1.0000
  N   N4        1.0  0.99570  0.18024  0.41038  1.0000
  C   C35       1.0  0.14301  0.99583  0.66103  1.0000
  C   C36       1.0  0.18202  0.99589  0.66104  1.0000
  C   C37       1.0  0.20050  0.99596  0.57803  1.0000
  C   C38       1.0  0.18169  0.99598  0.49722  1.0000
  C   C39       1.0  0.14333  0.99594  0.49721  1.0000
  C   C40       1.0  0.12453  0.99586  0.57801  1.0000
  H   H21       1.0  0.22815  0.99598  0.57383  1.0000
  H   H22       1.0  0.19587  0.99603  0.43876  1.0000
  H   H23       1.0  0.12916  0.99595  0.43875  1.0000
  H   H24       1.0  0.09687  0.99583  0.57381  1.0000
  C   C41       1.0  0.06952  0.36278  0.06191  1.0000
  C   C42       1.0  0.08652  0.66254  0.08477  1.0000
  C   C43       1.0  0.06939  0.62894  0.06209  1.0000
  C   C44       1.0  0.28403  0.62916  0.00007  1.0000
  C   C45       1.0  0.25548  0.62912  0.06232  1.0000
  C   C46       1.0  0.23855  0.32946  0.08495  1.0000
  C   C47       1.0  0.25559  0.36305  0.06212  1.0000
  H   H25       1.0  0.08232  0.38731  0.07536  1.0000
  H   H26       1.0  0.08227  0.60439  0.07442  1.0000
  H   H27       1.0  0.24250  0.60463  0.07512  1.0000
  H   H28       1.0  0.24261  0.38753  0.07460  1.0000
  C   C48       1.0  0.99569  0.53390  0.33549  1.0000
  C   C49       1.0  0.99578  0.51557  0.25268  1.0000
  C   C50       1.0  0.32922  0.47618  0.25260  1.0000
  C   C51       1.0  0.32924  0.45779  0.33534  1.0000
  C   C52       1.0  0.32930  0.45710  0.17107  1.0000
  C   C53       1.0  0.32927  0.47659  0.09073  1.0000
  C   C54       1.0  0.99583  0.51528  0.09081  1.0000
  C   C55       1.0  0.99575  0.53472  0.17123  1.0000
  H   H29       1.0  0.32938  0.42895  0.16934  1.0000
  H   H30       1.0  0.32933  0.46259  0.03206  1.0000
  H   H31       1.0  0.99581  0.52932  0.03220  1.0000
  H   H32       1.0  0.99568  0.56287  0.16961  1.0000
  C   C56       1.0  0.12482  0.32910  0.07794  1.0000
  C   C57       1.0  0.20022  0.32922  0.07795  1.0000
  N   N5        1.0  0.18042  0.32919  0.15376  1.0000
  N   N6        1.0  0.14461  0.32913  0.15376  1.0000
  C   C58       1.0  0.32887  0.57173  0.35349  1.0000
  C   C59       1.0  0.29543  0.58691  0.38382  1.0000
  C   C60       1.0  0.29553  0.61496  0.44764  1.0000
  C   C61       1.0  0.32902  0.62768  0.48443  1.0000
  C   C62       1.0  0.02911  0.61509  0.44716  1.0000
  C   C63       1.0  0.02906  0.58690  0.38371  1.0000
  Si  Si2       1.0  0.32912  0.32927  0.55452  1.0000
  C   C64       1.0  0.32922  0.36414  0.48431  1.0000
  C   C65       1.0  0.02939  0.37683  0.44749  1.0000
  C   C66       1.0  0.02948  0.40494  0.38383  1.0000
  C   C67       1.0  0.32936  0.41993  0.35313  1.0000
  C   C68       1.0  0.29581  0.40476  0.38313  1.0000
  C   C69       1.0  0.29580  0.37672  0.44699  1.0000
  C   C70       1.0  0.29579  0.32934  0.62800  1.0000
  C   C71       1.0  0.02914  0.66259  0.62791  1.0000
  C   C72       1.0  0.04088  0.36278  0.66660  1.0000
  C   C73       1.0  0.04092  0.62904  0.66626  1.0000
  C   C74       1.0  0.28404  0.36292  0.66630  1.0000
  H   H33       1.0  0.03163  0.38768  0.64405  1.0000
  H   H34       1.0  0.03168  0.60416  0.64339  1.0000
  H   H35       1.0  0.29315  0.60426  0.64389  1.0000
  H   H36       1.0  0.29326  0.38778  0.64329  1.0000
  H   H37       1.0  0.27090  0.36730  0.46921  1.0000
  H   H38       1.0  0.27123  0.41670  0.36650  1.0000
  H   H39       1.0  0.05409  0.41688  0.36713  1.0000
  H   H40       1.0  0.05423  0.36744  0.46990  1.0000
  H   H41       1.0  0.05400  0.62454  0.46925  1.0000
  H   H42       1.0  0.27069  0.62438  0.47001  1.0000
  H   H43       1.0  0.27083  0.57487  0.36759  1.0000
  H   H44       1.0  0.05366  0.57506  0.36680  1.0000
  N   N7        1.0  0.32914  0.47808  0.41031  1.0000
  N   N8        1.0  0.99570  0.51357  0.41038  1.0000
  C   C75       1.0  0.14302  0.32916  0.66103  1.0000
  C   C76       1.0  0.18203  0.32922  0.66104  1.0000
  C   C77       1.0  0.20051  0.32929  0.57803  1.0000
  C   C78       1.0  0.18171  0.32931  0.49722  1.0000
  C   C79       1.0  0.14334  0.32927  0.49721  1.0000
  C   C80       1.0  0.12454  0.32919  0.57801  1.0000
  H   H45       1.0  0.22816  0.32932  0.57383  1.0000
  H   H46       1.0  0.19588  0.32936  0.43876  1.0000
  H   H47       1.0  0.12918  0.32929  0.43875  1.0000
  H   H48       1.0  0.09688  0.32916  0.57381  1.0000
  C   C81       1.0  0.06952  0.69611  0.06191  1.0000
  C   C82       1.0  0.08651  0.99587  0.08478  1.0000
  C   C83       1.0  0.06938  0.96227  0.06209  1.0000
  C   C84       1.0  0.28402  0.96250  0.00007  1.0000
  C   C85       1.0  0.25547  0.96246  0.06232  1.0000
  C   C86       1.0  0.23855  0.66279  0.08495  1.0000
  C   C87       1.0  0.25559  0.69639  0.06212  1.0000
  H   H49       1.0  0.08232  0.72064  0.07536  1.0000
  H   H50       1.0  0.08226  0.93773  0.07443  1.0000
  H   H51       1.0  0.24249  0.93797  0.07512  1.0000
  H   H52       1.0  0.24261  0.72086  0.07460  1.0000
  C   C88       1.0  0.99569  0.86723  0.33549  1.0000
  C   C89       1.0  0.99578  0.84891  0.25267  1.0000
  C   C90       1.0  0.32922  0.80952  0.25260  1.0000
  C   C91       1.0  0.32924  0.79113  0.33534  1.0000
  C   C92       1.0  0.32930  0.79043  0.17107  1.0000
  C   C93       1.0  0.32927  0.80992  0.09073  1.0000
  C   C94       1.0  0.99583  0.84861  0.09080  1.0000
  C   C95       1.0  0.99575  0.86805  0.17123  1.0000
  H   H53       1.0  0.32938  0.76228  0.16934  1.0000
  H   H54       1.0  0.32933  0.79592  0.03206  1.0000
  H   H55       1.0  0.99581  0.86265  0.03219  1.0000
  H   H56       1.0  0.99567  0.89620  0.16961  1.0000
  C   C96       1.0  0.12482  0.66243  0.07794  1.0000
  C   C97       1.0  0.20022  0.66255  0.07795  1.0000
  N   N9        1.0  0.18042  0.66252  0.15376  1.0000
  N   N10       1.0  0.14461  0.66247  0.15376  1.0000
  C   C98       1.0  0.32887  0.90506  0.35349  1.0000
  C   C99       1.0  0.29543  0.92024  0.38382  1.0000
  C   C100      1.0  0.29553  0.94829  0.44763  1.0000
  C   C101      1.0  0.32902  0.96102  0.48442  1.0000
  C   C102      1.0  0.02910  0.94843  0.44716  1.0000
  C   C103      1.0  0.02906  0.92023  0.38372  1.0000
  Si  Si3       1.0  0.32912  0.66260  0.55452  1.0000
  C   C104      1.0  0.32922  0.69748  0.48431  1.0000
  C   C105      1.0  0.02939  0.71017  0.44749  1.0000
  C   C106      1.0  0.02948  0.73827  0.38383  1.0000
  C   C107      1.0  0.32936  0.75326  0.35313  1.0000
  C   C108      1.0  0.29581  0.73809  0.38313  1.0000
  C   C109      1.0  0.29580  0.71005  0.44699  1.0000
  C   C110      1.0  0.29579  0.66268  0.62800  1.0000
  C   C111      1.0  0.02913  0.99592  0.62792  1.0000
  C   C112      1.0  0.04088  0.69611  0.66660  1.0000
  C   C113      1.0  0.04091  0.96237  0.66627  1.0000
  C   C114      1.0  0.28404  0.69625  0.66630  1.0000
  H   H57       1.0  0.03163  0.72101  0.64405  1.0000
  H   H58       1.0  0.03167  0.93749  0.64339  1.0000
  H   H59       1.0  0.29314  0.93759  0.64389  1.0000
  H   H60       1.0  0.29326  0.72112  0.64329  1.0000
  H   H61       1.0  0.27090  0.70064  0.46921  1.0000
  H   H62       1.0  0.27123  0.75003  0.36650  1.0000
  H   H63       1.0  0.05409  0.75021  0.36713  1.0000
  H   H64       1.0  0.05423  0.70077  0.46990  1.0000
  H   H65       1.0  0.05400  0.95788  0.46926  1.0000
  H   H66       1.0  0.27068  0.95771  0.47001  1.0000
  H   H67       1.0  0.27082  0.90821  0.36758  1.0000
  H   H68       1.0  0.05366  0.90839  0.36681  1.0000
  N   N11       1.0  0.32914  0.81141  0.41031  1.0000
  N   N12       1.0  0.99570  0.84690  0.41038  1.0000
  C   C115      1.0  0.14302  0.66250  0.66103  1.0000
  C   C116      1.0  0.18203  0.66256  0.66104  1.0000
  C   C117      1.0  0.20051  0.66262  0.57803  1.0000
  C   C118      1.0  0.18171  0.66265  0.49722  1.0000
  C   C119      1.0  0.14334  0.66260  0.49721  1.0000
  C   C120      1.0  0.12454  0.66253  0.57801  1.0000
  H   H69       1.0  0.22816  0.66265  0.57383  1.0000
  H   H70       1.0  0.19588  0.66269  0.43876  1.0000
  H   H71       1.0  0.12918  0.66262  0.43875  1.0000
  H   H72       1.0  0.09688  0.66249  0.57381  1.0000
  C   C121      1.0  0.40284  0.02945  0.06192  1.0000
  C   C122      1.0  0.41985  0.32921  0.08477  1.0000
  C   C123      1.0  0.40272  0.29561  0.06209  1.0000
  C   C124      1.0  0.61737  0.29583  0.00007  1.0000
  C   C125      1.0  0.58881  0.29579  0.06232  1.0000
  C   C126      1.0  0.57187  0.99613  0.08494  1.0000
  C   C127      1.0  0.58891  0.02972  0.06212  1.0000
  H   H73       1.0  0.41565  0.05397  0.07536  1.0000
  H   H74       1.0  0.41561  0.27106  0.07442  1.0000
  H   H75       1.0  0.57583  0.27130  0.07512  1.0000
  H   H76       1.0  0.57593  0.05420  0.07460  1.0000
  C   C128      1.0  0.32903  0.20057  0.33549  1.0000
  C   C129      1.0  0.32911  0.18224  0.25268  1.0000
  C   C130      1.0  0.66255  0.14285  0.25260  1.0000
  C   C131      1.0  0.66257  0.12446  0.33534  1.0000
  C   C132      1.0  0.66263  0.12376  0.17107  1.0000
  C   C133      1.0  0.66260  0.14326  0.09073  1.0000
  C   C134      1.0  0.32917  0.18194  0.09080  1.0000
  C   C135      1.0  0.32909  0.20138  0.17123  1.0000
  H   H77       1.0  0.66271  0.09561  0.16934  1.0000
  H   H78       1.0  0.66266  0.12926  0.03206  1.0000
  H   H79       1.0  0.32915  0.19599  0.03219  1.0000
  H   H80       1.0  0.32901  0.22953  0.16961  1.0000
  C   C136      1.0  0.45814  0.99576  0.07794  1.0000
  C   C137      1.0  0.53355  0.99589  0.07795  1.0000
  N   N13       1.0  0.51375  0.99586  0.15376  1.0000
  N   N14       1.0  0.47793  0.99580  0.15376  1.0000
  C   C138      1.0  0.66220  0.23839  0.35349  1.0000
  C   C139      1.0  0.62876  0.25357  0.38382  1.0000
  C   C140      1.0  0.62887  0.28163  0.44764  1.0000
  C   C141      1.0  0.66236  0.29435  0.48443  1.0000
  C   C142      1.0  0.36244  0.28176  0.44716  1.0000
  C   C143      1.0  0.36239  0.25356  0.38371  1.0000
  Si  Si4       1.0  0.66244  0.99593  0.55452  1.0000
  C   C144      1.0  0.66255  0.03081  0.48430  1.0000
  C   C145      1.0  0.36272  0.04350  0.44749  1.0000
  C   C146      1.0  0.36281  0.07161  0.38383  1.0000
  C   C147      1.0  0.66269  0.08660  0.35313  1.0000
  C   C148      1.0  0.62914  0.07143  0.38313  1.0000
  C   C149      1.0  0.62912  0.04338  0.44698  1.0000
  C   C150      1.0  0.62911  0.99601  0.62800  1.0000
  C   C151      1.0  0.36247  0.32926  0.62791  1.0000
  C   C152      1.0  0.37421  0.02944  0.66660  1.0000
  C   C153      1.0  0.37425  0.29570  0.66626  1.0000
  C   C154      1.0  0.61737  0.02958  0.66630  1.0000
  H   H81       1.0  0.36495  0.05434  0.64405  1.0000
  H   H82       1.0  0.36501  0.27082  0.64339  1.0000
  H   H83       1.0  0.62648  0.27093  0.64389  1.0000
  H   H84       1.0  0.62659  0.05445  0.64329  1.0000
  H   H85       1.0  0.60423  0.03397  0.46921  1.0000
  H   H86       1.0  0.60456  0.08336  0.36650  1.0000
  H   H87       1.0  0.38742  0.08354  0.36713  1.0000
  H   H88       1.0  0.38756  0.03410  0.46990  1.0000
  H   H89       1.0  0.38734  0.29121  0.46925  1.0000
  H   H90       1.0  0.60402  0.29104  0.47001  1.0000
  H   H91       1.0  0.60416  0.24154  0.36759  1.0000
  H   H92       1.0  0.38699  0.24173  0.36681  1.0000
  N   N15       1.0  0.66248  0.14474  0.41031  1.0000
  N   N16       1.0  0.32903  0.18024  0.41038  1.0000
  C   C155      1.0  0.47634  0.99583  0.66103  1.0000
  C   C156      1.0  0.51535  0.99589  0.66104  1.0000
  C   C157      1.0  0.53383  0.99596  0.57803  1.0000
  C   C158      1.0  0.51503  0.99598  0.49722  1.0000
  C   C159      1.0  0.47667  0.99594  0.49721  1.0000
  C   C160      1.0  0.45786  0.99586  0.57801  1.0000
  H   H93       1.0  0.56148  0.99598  0.57383  1.0000
  H   H94       1.0  0.52920  0.99603  0.43876  1.0000
  H   H95       1.0  0.46250  0.99595  0.43875  1.0000
  H   H96       1.0  0.43020  0.99583  0.57381  1.0000
  C   C161      1.0  0.40285  0.36278  0.06191  1.0000
  C   C162      1.0  0.41985  0.66254  0.08477  1.0000
  C   C163      1.0  0.40272  0.62894  0.06209  1.0000
  C   C164      1.0  0.61736  0.62916  0.00007  1.0000
  C   C165      1.0  0.58881  0.62912  0.06232  1.0000
  C   C166      1.0  0.57188  0.32946  0.08495  1.0000
  C   C167      1.0  0.58892  0.36305  0.06212  1.0000
  H   H97       1.0  0.41565  0.38731  0.07536  1.0000
  H   H98       1.0  0.41561  0.60439  0.07442  1.0000
  H   H99       1.0  0.57584  0.60463  0.07512  1.0000
  H   H100      1.0  0.57594  0.38753  0.07460  1.0000
  C   C168      1.0  0.32903  0.53390  0.33549  1.0000
  C   C169      1.0  0.32911  0.51557  0.25268  1.0000
  C   C170      1.0  0.66255  0.47618  0.25260  1.0000
  C   C171      1.0  0.66258  0.45779  0.33534  1.0000
  C   C172      1.0  0.66263  0.45710  0.17107  1.0000
  C   C173      1.0  0.66261  0.47659  0.09073  1.0000
  C   C174      1.0  0.32917  0.51528  0.09081  1.0000
  C   C175      1.0  0.32909  0.53472  0.17123  1.0000
  H   H101      1.0  0.66271  0.42895  0.16934  1.0000
  H   H102      1.0  0.66266  0.46259  0.03206  1.0000
  H   H103      1.0  0.32915  0.52932  0.03220  1.0000
  H   H104      1.0  0.32901  0.56287  0.16961  1.0000
  C   C176      1.0  0.45815  0.32910  0.07794  1.0000
  C   C177      1.0  0.53356  0.32922  0.07795  1.0000
  N   N17       1.0  0.51375  0.32919  0.15376  1.0000
  N   N18       1.0  0.47794  0.32913  0.15376  1.0000
  C   C178      1.0  0.66220  0.57173  0.35349  1.0000
  C   C179      1.0  0.62877  0.58691  0.38382  1.0000
  C   C180      1.0  0.62887  0.61496  0.44764  1.0000
  C   C181      1.0  0.66236  0.62768  0.48443  1.0000
  C   C182      1.0  0.36244  0.61509  0.44716  1.0000
  C   C183      1.0  0.36240  0.58690  0.38371  1.0000
  Si  Si5       1.0  0.66245  0.32927  0.55452  1.0000
  C   C184      1.0  0.66255  0.36414  0.48431  1.0000
  C   C185      1.0  0.36272  0.37683  0.44749  1.0000
  C   C186      1.0  0.36282  0.40494  0.38383  1.0000
  C   C187      1.0  0.66269  0.41993  0.35313  1.0000
  C   C188      1.0  0.62914  0.40476  0.38313  1.0000
  C   C189      1.0  0.62913  0.37672  0.44699  1.0000
  C   C190      1.0  0.62912  0.32934  0.62800  1.0000
  C   C191      1.0  0.36247  0.66259  0.62791  1.0000
  C   C192      1.0  0.37422  0.36278  0.66660  1.0000
  C   C193      1.0  0.37425  0.62904  0.66626  1.0000
  C   C194      1.0  0.61738  0.36292  0.66630  1.0000
  H   H105      1.0  0.36496  0.38768  0.64405  1.0000
  H   H106      1.0  0.36501  0.60416  0.64339  1.0000
  H   H107      1.0  0.62648  0.60426  0.64389  1.0000
  H   H108      1.0  0.62660  0.38778  0.64329  1.0000
  H   H109      1.0  0.60424  0.36730  0.46921  1.0000
  H   H110      1.0  0.60456  0.41670  0.36650  1.0000
  H   H111      1.0  0.38742  0.41688  0.36713  1.0000
  H   H112      1.0  0.38757  0.36744  0.46990  1.0000
  H   H113      1.0  0.38734  0.62454  0.46925  1.0000
  H   H114      1.0  0.60402  0.62438  0.47001  1.0000
  H   H115      1.0  0.60416  0.57487  0.36759  1.0000
  H   H116      1.0  0.38699  0.57506  0.36680  1.0000
  N   N19       1.0  0.66248  0.47808  0.41031  1.0000
  N   N20       1.0  0.32903  0.51357  0.41038  1.0000
  C   C195      1.0  0.47635  0.32916  0.66103  1.0000
  C   C196      1.0  0.51536  0.32922  0.66104  1.0000
  C   C197      1.0  0.53384  0.32929  0.57803  1.0000
  C   C198      1.0  0.51504  0.32931  0.49722  1.0000
  C   C199      1.0  0.47668  0.32927  0.49721  1.0000
  C   C200      1.0  0.45787  0.32919  0.57801  1.0000
  H   H117      1.0  0.56149  0.32932  0.57383  1.0000
  H   H118      1.0  0.52921  0.32936  0.43876  1.0000
  H   H119      1.0  0.46251  0.32929  0.43875  1.0000
  H   H120      1.0  0.43021  0.32916  0.57381  1.0000
  C   C201      1.0  0.40285  0.69611  0.06191  1.0000
  C   C202      1.0  0.41985  0.99587  0.08478  1.0000
  C   C203      1.0  0.40271  0.96227  0.06209  1.0000
  C   C204      1.0  0.61735  0.96250  0.00007  1.0000
  C   C205      1.0  0.58880  0.96246  0.06232  1.0000
  C   C206      1.0  0.57188  0.66279  0.08495  1.0000
  C   C207      1.0  0.58892  0.69639  0.06212  1.0000
  H   H121      1.0  0.41565  0.72064  0.07536  1.0000
  H   H122      1.0  0.41560  0.93773  0.07443  1.0000
  H   H123      1.0  0.57583  0.93797  0.07512  1.0000
  H   H124      1.0  0.57594  0.72086  0.07460  1.0000
  C   C208      1.0  0.32903  0.86723  0.33549  1.0000
  C   C209      1.0  0.32911  0.84891  0.25267  1.0000
  C   C210      1.0  0.66255  0.80952  0.25260  1.0000
  C   C211      1.0  0.66258  0.79113  0.33534  1.0000
  C   C212      1.0  0.66263  0.79043  0.17107  1.0000
  C   C213      1.0  0.66261  0.80992  0.09073  1.0000
  C   C214      1.0  0.32917  0.84861  0.09080  1.0000
  C   C215      1.0  0.32909  0.86805  0.17123  1.0000
  H   H125      1.0  0.66271  0.76228  0.16934  1.0000
  H   H126      1.0  0.66266  0.79592  0.03206  1.0000
  H   H127      1.0  0.32915  0.86265  0.03219  1.0000
  H   H128      1.0  0.32901  0.89620  0.16961  1.0000
  C   C216      1.0  0.45815  0.66243  0.07794  1.0000
  C   C217      1.0  0.53356  0.66255  0.07795  1.0000
  N   N21       1.0  0.51376  0.66252  0.15376  1.0000
  N   N22       1.0  0.47794  0.66247  0.15376  1.0000
  C   C218      1.0  0.66220  0.90506  0.35349  1.0000
  C   C219      1.0  0.62876  0.92024  0.38382  1.0000
  C   C220      1.0  0.62886  0.94829  0.44763  1.0000
  C   C221      1.0  0.66235  0.96102  0.48442  1.0000
  C   C222      1.0  0.36244  0.94843  0.44716  1.0000
  C   C223      1.0  0.36239  0.92023  0.38372  1.0000
  Si  Si6       1.0  0.66245  0.66260  0.55452  1.0000
  C   C224      1.0  0.66255  0.69748  0.48431  1.0000
  C   C225      1.0  0.36272  0.71017  0.44749  1.0000
  C   C226      1.0  0.36282  0.73827  0.38383  1.0000
  C   C227      1.0  0.66269  0.75326  0.35313  1.0000
  C   C228      1.0  0.62914  0.73809  0.38313  1.0000
  C   C229      1.0  0.62913  0.71005  0.44699  1.0000
  C   C230      1.0  0.62913  0.66268  0.62800  1.0000
  C   C231      1.0  0.36246  0.99592  0.62792  1.0000
  C   C232      1.0  0.37422  0.69611  0.66660  1.0000
  C   C233      1.0  0.37424  0.96237  0.66627  1.0000
  C   C234      1.0  0.61738  0.69625  0.66630  1.0000
  H   H129      1.0  0.36496  0.72101  0.64405  1.0000
  H   H130      1.0  0.36500  0.93749  0.64339  1.0000
  H   H131      1.0  0.62648  0.93759  0.64389  1.0000
  H   H132      1.0  0.62660  0.72112  0.64329  1.0000
  H   H133      1.0  0.60424  0.70064  0.46921  1.0000
  H   H134      1.0  0.60456  0.75003  0.36650  1.0000
  H   H135      1.0  0.38742  0.75021  0.36713  1.0000
  H   H136      1.0  0.38757  0.70077  0.46990  1.0000
  H   H137      1.0  0.38733  0.95788  0.46926  1.0000
  H   H138      1.0  0.60402  0.95771  0.47001  1.0000
  H   H139      1.0  0.60416  0.90821  0.36758  1.0000
  H   H140      1.0  0.38699  0.90839  0.36681  1.0000
  N   N23       1.0  0.66248  0.81141  0.41031  1.0000
  N   N24       1.0  0.32903  0.84690  0.41038  1.0000
  C   C235      1.0  0.47635  0.66250  0.66103  1.0000
  C   C236      1.0  0.51536  0.66256  0.66104  1.0000
  C   C237      1.0  0.53384  0.66262  0.57803  1.0000
  C   C238      1.0  0.51504  0.66265  0.49722  1.0000
  C   C239      1.0  0.47668  0.66260  0.49721  1.0000
  C   C240      1.0  0.45787  0.66253  0.57801  1.0000
  H   H141      1.0  0.56149  0.66265  0.57383  1.0000
  H   H142      1.0  0.52921  0.66269  0.43876  1.0000
  H   H143      1.0  0.46251  0.66262  0.43875  1.0000
  H   H144      1.0  0.43021  0.66249  0.57381  1.0000
  C   C241      1.0  0.73617  0.02945  0.06192  1.0000
  C   C242      1.0  0.75319  0.32921  0.08477  1.0000
  C   C243      1.0  0.73606  0.29561  0.06209  1.0000
  C   C244      1.0  0.95070  0.29583  0.00007  1.0000
  C   C245      1.0  0.92214  0.29579  0.06232  1.0000
  C   C246      1.0  0.90521  0.99613  0.08494  1.0000
  C   C247      1.0  0.92224  0.02972  0.06212  1.0000
  H   H145      1.0  0.74898  0.05397  0.07536  1.0000
  H   H146      1.0  0.74894  0.27106  0.07442  1.0000
  H   H147      1.0  0.90917  0.27130  0.07512  1.0000
  H   H148      1.0  0.90926  0.05420  0.07460  1.0000
  C   C248      1.0  0.66236  0.20057  0.33549  1.0000
  C   C249      1.0  0.66244  0.18224  0.25268  1.0000
  C   C250      1.0  0.99589  0.14285  0.25260  1.0000
  C   C251      1.0  0.99591  0.12446  0.33534  1.0000
  C   C252      1.0  0.99597  0.12376  0.17107  1.0000
  C   C253      1.0  0.99594  0.14326  0.09073  1.0000
  C   C254      1.0  0.66250  0.18194  0.09080  1.0000
  C   C255      1.0  0.66242  0.20138  0.17123  1.0000
  H   H149      1.0  0.99604  0.09561  0.16934  1.0000
  H   H150      1.0  0.99599  0.12926  0.03206  1.0000
  H   H151      1.0  0.66248  0.19599  0.03219  1.0000
  H   H152      1.0  0.66234  0.22953  0.16961  1.0000
  C   C256      1.0  0.79148  0.99576  0.07794  1.0000
  C   C257      1.0  0.86688  0.99589  0.07795  1.0000
  N   N25       1.0  0.84708  0.99586  0.15376  1.0000
  N   N26       1.0  0.81127  0.99580  0.15376  1.0000
  C   C258      1.0  0.99554  0.23839  0.35349  1.0000
  C   C259      1.0  0.96210  0.25357  0.38382  1.0000
  C   C260      1.0  0.96220  0.28163  0.44764  1.0000
  C   C261      1.0  0.99569  0.29435  0.48443  1.0000
  C   C262      1.0  0.69577  0.28176  0.44716  1.0000
  C   C263      1.0  0.69573  0.25356  0.38371  1.0000
  Si  Si7       1.0  0.99578  0.99593  0.55452  1.0000
  C   C264      1.0  0.99588  0.03081  0.48430  1.0000
  C   C265      1.0  0.69605  0.04350  0.44749  1.0000
  C   C266      1.0  0.69615  0.07161  0.38383  1.0000
  C   C267      1.0  0.99602  0.08660  0.35313  1.0000
  C   C268      1.0  0.96247  0.07143  0.38313  1.0000
  C   C269      1.0  0.96246  0.04338  0.44698  1.0000
  C   C270      1.0  0.96245  0.99601  0.62800  1.0000
  C   C271      1.0  0.69581  0.32926  0.62791  1.0000
  C   C272      1.0  0.70754  0.02944  0.66660  1.0000
  C   C273      1.0  0.70758  0.29570  0.66626  1.0000
  C   C274      1.0  0.95070  0.02958  0.66630  1.0000
  H   H153      1.0  0.69829  0.05434  0.64405  1.0000
  H   H154      1.0  0.69834  0.27082  0.64339  1.0000
  H   H155      1.0  0.95982  0.27093  0.64389  1.0000
  H   H156      1.0  0.95992  0.05445  0.64329  1.0000
  H   H157      1.0  0.93756  0.03397  0.46921  1.0000
  H   H158      1.0  0.93789  0.08336  0.36650  1.0000
  H   H159      1.0  0.72075  0.08354  0.36713  1.0000
  H   H160      1.0  0.72089  0.03410  0.46990  1.0000
  H   H161      1.0  0.72067  0.29121  0.46925  1.0000
  H   H162      1.0  0.93735  0.29104  0.47001  1.0000
  H   H163      1.0  0.93749  0.24154  0.36759  1.0000
  H   H164      1.0  0.72033  0.24173  0.36681  1.0000
  N   N27       1.0  0.99581  0.14474  0.41031  1.0000
  N   N28       1.0  0.66237  0.18024  0.41038  1.0000
  C   C275      1.0  0.80968  0.99583  0.66103  1.0000
  C   C276      1.0  0.84869  0.99589  0.66104  1.0000
  C   C277      1.0  0.86716  0.99596  0.57803  1.0000
  C   C278      1.0  0.84836  0.99598  0.49722  1.0000
  C   C279      1.0  0.81000  0.99594  0.49721  1.0000
  C   C280      1.0  0.79119  0.99586  0.57801  1.0000
  H   H165      1.0  0.89482  0.99598  0.57383  1.0000
  H   H166      1.0  0.86253  0.99603  0.43876  1.0000
  H   H167      1.0  0.79583  0.99595  0.43875  1.0000
  H   H168      1.0  0.76354  0.99583  0.57381  1.0000
  C   C281      1.0  0.73618  0.36278  0.06191  1.0000
  C   C282      1.0  0.75319  0.66254  0.08477  1.0000
  C   C283      1.0  0.73606  0.62894  0.06209  1.0000
  C   C284      1.0  0.95070  0.62916  0.00007  1.0000
  C   C285      1.0  0.92215  0.62912  0.06232  1.0000
  C   C286      1.0  0.90522  0.32946  0.08495  1.0000
  C   C287      1.0  0.92225  0.36305  0.06212  1.0000
  H   H169      1.0  0.74899  0.38731  0.07536  1.0000
  H   H170      1.0  0.74894  0.60439  0.07442  1.0000
  H   H171      1.0  0.90917  0.60463  0.07512  1.0000
  H   H172      1.0  0.90927  0.38753  0.07460  1.0000
  C   C288      1.0  0.66236  0.53390  0.33549  1.0000
  C   C289      1.0  0.66244  0.51557  0.25268  1.0000
  C   C290      1.0  0.99589  0.47618  0.25260  1.0000
  C   C291      1.0  0.99591  0.45779  0.33534  1.0000
  C   C292      1.0  0.99597  0.45710  0.17107  1.0000
  C   C293      1.0  0.99594  0.47659  0.09073  1.0000
  C   C294      1.0  0.66250  0.51528  0.09081  1.0000
  C   C295      1.0  0.66242  0.53472  0.17123  1.0000
  H   H173      1.0  0.99604  0.42895  0.16934  1.0000
  H   H174      1.0  0.99599  0.46259  0.03206  1.0000
  H   H175      1.0  0.66248  0.52932  0.03220  1.0000
  H   H176      1.0  0.66234  0.56287  0.16961  1.0000
  C   C296      1.0  0.79148  0.32910  0.07794  1.0000
  C   C297      1.0  0.86689  0.32922  0.07795  1.0000
  N   N29       1.0  0.84709  0.32919  0.15376  1.0000
  N   N30       1.0  0.81127  0.32913  0.15376  1.0000
  C   C298      1.0  0.99554  0.57173  0.35349  1.0000
  C   C299      1.0  0.96210  0.58691  0.38382  1.0000
  C   C300      1.0  0.96220  0.61496  0.44764  1.0000
  C   C301      1.0  0.99569  0.62768  0.48443  1.0000
  C   C302      1.0  0.69577  0.61509  0.44716  1.0000
  C   C303      1.0  0.69573  0.58690  0.38371  1.0000
  Si  Si8       1.0  0.99578  0.32927  0.55452  1.0000
  C   C304      1.0  0.99589  0.36414  0.48431  1.0000
  C   C305      1.0  0.69605  0.37683  0.44749  1.0000
  C   C306      1.0  0.69615  0.40494  0.38383  1.0000
  C   C307      1.0  0.99602  0.41993  0.35313  1.0000
  C   C308      1.0  0.96248  0.40476  0.38313  1.0000
  C   C309      1.0  0.96246  0.37672  0.44699  1.0000
  C   C310      1.0  0.96246  0.32934  0.62800  1.0000
  C   C311      1.0  0.69581  0.66259  0.62791  1.0000
  C   C312      1.0  0.70755  0.36278  0.66660  1.0000
  C   C313      1.0  0.70758  0.62904  0.66626  1.0000
  C   C314      1.0  0.95071  0.36292  0.66630  1.0000
  H   H177      1.0  0.69830  0.38768  0.64405  1.0000
  H   H178      1.0  0.69834  0.60416  0.64339  1.0000
  H   H179      1.0  0.95982  0.60426  0.64389  1.0000
  H   H180      1.0  0.95993  0.38778  0.64329  1.0000
  H   H181      1.0  0.93757  0.36730  0.46921  1.0000
  H   H182      1.0  0.93790  0.41670  0.36650  1.0000
  H   H183      1.0  0.72075  0.41688  0.36713  1.0000
  H   H184      1.0  0.72090  0.36744  0.46990  1.0000
  H   H185      1.0  0.72067  0.62454  0.46925  1.0000
  H   H186      1.0  0.93736  0.62438  0.47001  1.0000
  H   H187      1.0  0.93749  0.57487  0.36759  1.0000
  H   H188      1.0  0.72033  0.57506  0.36680  1.0000
  N   N31       1.0  0.99581  0.47808  0.41031  1.0000
  N   N32       1.0  0.66236  0.51357  0.41038  1.0000
  C   C315      1.0  0.80968  0.32916  0.66103  1.0000
  C   C316      1.0  0.84869  0.32922  0.66104  1.0000
  C   C317      1.0  0.86717  0.32929  0.57803  1.0000
  C   C318      1.0  0.84837  0.32931  0.49722  1.0000
  C   C319      1.0  0.81001  0.32927  0.49721  1.0000
  C   C320      1.0  0.79121  0.32919  0.57801  1.0000
  H   H189      1.0  0.89483  0.32932  0.57383  1.0000
  H   H190      1.0  0.86255  0.32936  0.43876  1.0000
  H   H191      1.0  0.79584  0.32929  0.43875  1.0000
  H   H192      1.0  0.76355  0.32916  0.57381  1.0000
  C   C321      1.0  0.73618  0.69611  0.06191  1.0000
  C   C322      1.0  0.75318  0.99587  0.08478  1.0000
  C   C323      1.0  0.73605  0.96227  0.06209  1.0000
  C   C324      1.0  0.95069  0.96250  0.00007  1.0000
  C   C325      1.0  0.92213  0.96246  0.06232  1.0000
  C   C326      1.0  0.90522  0.66279  0.08495  1.0000
  C   C327      1.0  0.92225  0.69639  0.06212  1.0000
  H   H193      1.0  0.74899  0.72064  0.07536  1.0000
  H   H194      1.0  0.74893  0.93773  0.07443  1.0000
  H   H195      1.0  0.90916  0.93797  0.07512  1.0000
  H   H196      1.0  0.90927  0.72086  0.07460  1.0000
  C   C328      1.0  0.66236  0.86723  0.33549  1.0000
  C   C329      1.0  0.66244  0.84891  0.25267  1.0000
  C   C330      1.0  0.99589  0.80952  0.25260  1.0000
  C   C331      1.0  0.99591  0.79113  0.33534  1.0000
  C   C332      1.0  0.99597  0.79043  0.17107  1.0000
  C   C333      1.0  0.99594  0.80992  0.09073  1.0000
  C   C334      1.0  0.66250  0.84861  0.09080  1.0000
  C   C335      1.0  0.66242  0.86805  0.17123  1.0000
  H   H197      1.0  0.99605  0.76228  0.16934  1.0000
  H   H198      1.0  0.99599  0.79592  0.03206  1.0000
  H   H199      1.0  0.66248  0.86265  0.03219  1.0000
  H   H200      1.0  0.66234  0.89620  0.16961  1.0000
  C   C336      1.0  0.79149  0.66243  0.07794  1.0000
  C   C337      1.0  0.86689  0.66255  0.07795  1.0000
  N   N33       1.0  0.84709  0.66252  0.15376  1.0000
  N   N34       1.0  0.81127  0.66247  0.15376  1.0000
  C   C338      1.0  0.99553  0.90506  0.35349  1.0000
  C   C339      1.0  0.96209  0.92024  0.38382  1.0000
  C   C340      1.0  0.96219  0.94829  0.44763  1.0000
  C   C341      1.0  0.99568  0.96102  0.48442  1.0000
  C   C342      1.0  0.69577  0.94843  0.44716  1.0000
  C   C343      1.0  0.69572  0.92023  0.38372  1.0000
  Si  Si9       1.0  0.99579  0.66260  0.55452  1.0000
  C   C344      1.0  0.99589  0.69748  0.48431  1.0000
  C   C345      1.0  0.69605  0.71017  0.44749  1.0000
  C   C346      1.0  0.69615  0.73827  0.38383  1.0000
  C   C347      1.0  0.99602  0.75326  0.35313  1.0000
  C   C348      1.0  0.96248  0.73809  0.38313  1.0000
  C   C349      1.0  0.96246  0.71005  0.44699  1.0000
  C   C350      1.0  0.96246  0.66268  0.62800  1.0000
  C   C351      1.0  0.69580  0.99592  0.62792  1.0000
  C   C352      1.0  0.70755  0.69611  0.66660  1.0000
  C   C353      1.0  0.70758  0.96237  0.66627  1.0000
  C   C354      1.0  0.95071  0.69625  0.66630  1.0000
  H   H201      1.0  0.69830  0.72101  0.64405  1.0000
  H   H202      1.0  0.69834  0.93749  0.64339  1.0000
  H   H203      1.0  0.95981  0.93759  0.64389  1.0000
  H   H204      1.0  0.95993  0.72112  0.64329  1.0000
  H   H205      1.0  0.93757  0.70064  0.46921  1.0000
  H   H206      1.0  0.93790  0.75003  0.36650  1.0000
  H   H207      1.0  0.72075  0.75021  0.36713  1.0000
  H   H208      1.0  0.72090  0.70077  0.46990  1.0000
  H   H209      1.0  0.72067  0.95788  0.46926  1.0000
  H   H210      1.0  0.93735  0.95771  0.47001  1.0000
  H   H211      1.0  0.93749  0.90821  0.36758  1.0000
  H   H212      1.0  0.72033  0.90839  0.36681  1.0000
  N   N35       1.0  0.99581  0.81141  0.41031  1.0000
  N   N36       1.0  0.66236  0.84690  0.41038  1.0000
  C   C355      1.0  0.80968  0.66250  0.66103  1.0000
  C   C356      1.0  0.84869  0.66256  0.66104  1.0000
  C   C357      1.0  0.86717  0.66262  0.57803  1.0000
  C   C358      1.0  0.84837  0.66265  0.49722  1.0000
  C   C359      1.0  0.81001  0.66260  0.49721  1.0000
  C   C360      1.0  0.79121  0.66253  0.57801  1.0000
  H   H213      1.0  0.89483  0.66265  0.57383  1.0000
  H   H214      1.0  0.86255  0.66269  0.43876  1.0000
  H   H215      1.0  0.79584  0.66262  0.43875  1.0000
  H   H216      1.0  0.76355  0.66249  0.57381  1.0000
