data_image0
_chemical_formula_structural       CNC2NC4NC18H14C2NC16H12C3NC2NC5NC4NC18H14CNC16H12C11H11CNCNC4NC16H13C5H2CH3CH3C4H2CH3CH3C4H2CH3CH3C4H2CH3CH3C4H2CH3CH3C4H2CH3CH3C4H2CH3CH3C4H2CH3CH3C6H2CH3CH3C7H2CH3CH3C5H2CH3CH3C4H2CH3CH3C7NC12H12C2NC3NC3NC18H14C12H12C3NC3NC3NC18H14C3NC3NC2NC5NC20H15C8NC14H13C3HC4HCH3CH3C4HC4HCH3CH3C4HC4HCH3CH3C4HC4HCH3CH3C4HC4HCH3CH3C4HC4HCH3CH3C4HC4HCH3CH3C4HC4HCH3CH3C2HC4HCH3CH3C2HC3HCH3CH3C3HC4HCH3CH3C4HC4HCH3CH3
_chemical_formula_sum              "C456 N24 H348"
_cell_length_a       68.7616
_cell_length_b       68.7616
_cell_length_c       14.9683
_cell_angle_alpha    90.0014
_cell_angle_beta     89.9714
_cell_angle_gamma    120

_space_group_name_H-M_alt    "P 1"
_space_group_IT_number       1

loop_
  _space_group_symop_operation_xyz
  'x, y, z'

loop_
  _atom_site_type_symbol
  _atom_site_label
  _atom_site_symmetry_multiplicity
  _atom_site_fract_x
  _atom_site_fract_y
  _atom_site_fract_z
  _atom_site_occupancy
  C   C1        1.0  0.27550  0.51296  0.32725  1.0000
  N   N1        1.0  0.26801  0.47808  0.33578  1.0000
  C   C2        1.0  0.29072  0.49066  0.33275  1.0000
  C   C3        1.0  0.30713  0.48382  0.33406  1.0000
  N   N2        1.0  0.28181  0.44240  0.33353  1.0000
  C   C4        1.0  0.28337  0.42358  0.33367  1.0000
  C   C5        1.0  0.30633  0.43082  0.33381  1.0000
  C   C6        1.0  0.31794  0.45399  0.33459  1.0000
  C   C7        1.0  0.26559  0.40091  0.33442  1.0000
  N   N3        1.0  0.23222  0.40669  0.33206  1.0000
  C   C8        1.0  0.20949  0.39411  0.33516  1.0000
  C   C9        1.0  0.22482  0.37183  0.33945  1.0000
  C   C10       1.0  0.21696  0.46135  0.33484  1.0000
  C   C11       1.0  0.23473  0.48399  0.33445  1.0000
  C   C12       1.0  0.22894  0.50123  0.33497  1.0000
  C   C13       1.0  0.22229  0.50736  0.25556  1.0000
  C   C14       1.0  0.21836  0.52557  0.25489  1.0000
  C   C15       1.0  0.22113  0.53831  0.33312  1.0000
  C   C16       1.0  0.15899  0.37285  0.25716  1.0000
  C   C17       1.0  0.13570  0.35772  0.25662  1.0000
  C   C18       1.0  0.27176  0.38396  0.33713  1.0000
  C   C19       1.0  0.28906  0.35391  0.34043  1.0000
  C   C20       1.0  0.28212  0.35913  0.25924  1.0000
  C   C21       1.0  0.27371  0.37407  0.25745  1.0000
  C   C22       1.0  0.33015  0.50100  0.33613  1.0000
  C   C23       1.0  0.34268  0.50889  0.25637  1.0000
  C   C24       1.0  0.36474  0.52727  0.25805  1.0000
  C   C25       1.0  0.37471  0.53838  0.33916  1.0000
  H   H1        1.0  0.37306  0.53314  0.19873  1.0000
  H   H2        1.0  0.33559  0.50176  0.19632  1.0000
  H   H3        1.0  0.27428  0.52714  0.32282  1.0000
  H   H4        1.0  0.25996  0.46203  0.34179  1.0000
  H   H5        1.0  0.24028  0.42277  0.32725  1.0000
  H   H6        1.0  0.33504  0.46375  0.33496  1.0000
  H   H7        1.0  0.31370  0.42109  0.33386  1.0000
  H   H8        1.0  0.26972  0.37824  0.19728  1.0000
  H   H9        1.0  0.28412  0.35293  0.19994  1.0000
  H   H10       1.0  0.22614  0.35770  0.34324  1.0000
  H   H11       1.0  0.16781  0.37605  0.19870  1.0000
  H   H12       1.0  0.12834  0.35004  0.19769  1.0000
  H   H13       1.0  0.21365  0.52958  0.19604  1.0000
  H   H14       1.0  0.22071  0.49889  0.19732  1.0000
  C   C26       1.0  0.54536  0.76309  0.32723  1.0000
  C   C27       1.0  0.56766  0.80062  0.33310  1.0000
  N   N4        1.0  0.61591  0.83996  0.33399  1.0000
  C   C28       1.0  0.63473  0.86034  0.33420  1.0000
  C   C29       1.0  0.62749  0.87606  0.33450  1.0000
  C   C30       1.0  0.60432  0.86450  0.33529  1.0000
  C   C31       1.0  0.65740  0.86523  0.33488  1.0000
  C   C32       1.0  0.66420  0.81593  0.33542  1.0000
  C   C33       1.0  0.68648  0.85354  0.33950  1.0000
  C   C34       1.0  0.59696  0.75616  0.33528  1.0000
  C   C35       1.0  0.55099  0.71547  0.25602  1.0000
  C   C36       1.0  0.53277  0.69333  0.25533  1.0000
  C   C37       1.0  0.68547  0.78668  0.25752  1.0000
  C   C38       1.0  0.70060  0.77852  0.25700  1.0000
  C   C39       1.0  0.67435  0.88835  0.33755  1.0000
  C   C40       1.0  0.69921  0.92352  0.25960  1.0000
  C   C41       1.0  0.68426  0.90018  0.25785  1.0000
  C   C42       1.0  0.54946  0.83436  0.25685  1.0000
  C   C43       1.0  0.53107  0.83803  0.25849  1.0000
  H   H15       1.0  0.52525  0.84053  0.19918  1.0000
  H   H16       1.0  0.55664  0.83445  0.19683  1.0000
  H   H17       1.0  0.53119  0.74769  0.32238  1.0000
  H   H18       1.0  0.59456  0.87184  0.33578  1.0000
  H   H19       1.0  0.63722  0.89316  0.33464  1.0000
  H   H20       1.0  0.68007  0.89201  0.19769  1.0000
  H   H21       1.0  0.70537  0.93172  0.20026  1.0000
  H   H22       1.0  0.70061  0.86899  0.34350  1.0000
  H   H23       1.0  0.68228  0.79229  0.19906  1.0000
  H   H24       1.0  0.70829  0.77883  0.19806  1.0000
  H   H25       1.0  0.52879  0.68459  0.19652  1.0000
  H   H26       1.0  0.55948  0.72235  0.19779  1.0000
  C   C44       1.0  0.27516  0.76279  0.32687  1.0000
  C   C45       1.0  0.29523  0.78282  0.32689  1.0000
  C   C46       1.0  0.29054  0.80035  0.33270  1.0000
  N   N5        1.0  0.26783  0.79030  0.33549  1.0000
  C   C47       1.0  0.25770  0.76759  0.33239  1.0000
  C   C48       1.0  0.23446  0.75118  0.33372  1.0000
  N   N6        1.0  0.21835  0.77651  0.33311  1.0000
  C   C49       1.0  0.19797  0.77494  0.33327  1.0000
  C   C50       1.0  0.18226  0.75199  0.33354  1.0000
  C   C51       1.0  0.19381  0.74037  0.33433  1.0000
  C   C52       1.0  0.19308  0.79273  0.33397  1.0000
  C   C53       1.0  0.20950  0.81598  0.33426  1.0000
  N   N7        1.0  0.23223  0.82609  0.33154  1.0000
  C   C54       1.0  0.24238  0.84882  0.33467  1.0000
  C   C55       1.0  0.22488  0.85357  0.33906  1.0000
  C   C56       1.0  0.20477  0.83350  0.33872  1.0000
  C   C57       1.0  0.26565  0.86520  0.33484  1.0000
  N   N8        1.0  0.28176  0.83981  0.33428  1.0000
  C   C58       1.0  0.30215  0.84135  0.33463  1.0000
  C   C59       1.0  0.30702  0.82358  0.33428  1.0000
  C   C60       1.0  0.33005  0.82937  0.33492  1.0000
  C   C61       1.0  0.34287  0.83606  0.25557  1.0000
  C   C62       1.0  0.36502  0.83999  0.25501  1.0000
  C   C63       1.0  0.37495  0.83719  0.33328  1.0000
  C   C64       1.0  0.27187  0.88837  0.33623  1.0000
  C   C65       1.0  0.27165  0.89935  0.25685  1.0000
  C   C66       1.0  0.27980  0.92264  0.25636  1.0000
  C   C67       1.0  0.28859  0.93573  0.33476  1.0000
  C   C68       1.0  0.16996  0.78655  0.33670  1.0000
  C   C69       1.0  0.12262  0.76925  0.33999  1.0000
  C   C70       1.0  0.13480  0.77622  0.25881  1.0000
  C   C71       1.0  0.15813  0.78461  0.25702  1.0000
  C   C72       1.0  0.22862  0.72817  0.33579  1.0000
  C   C73       1.0  0.22398  0.71565  0.25604  1.0000
  C   C74       1.0  0.22034  0.69360  0.25771  1.0000
  C   C75       1.0  0.22145  0.68361  0.33883  1.0000
  H   H27       1.0  0.21784  0.68527  0.19841  1.0000
  H   H28       1.0  0.22394  0.72275  0.19600  1.0000
  H   H29       1.0  0.31063  0.78405  0.32225  1.0000
  H   H30       1.0  0.25983  0.79835  0.34184  1.0000
  H   H31       1.0  0.24026  0.81804  0.32703  1.0000
  H   H32       1.0  0.18647  0.72327  0.33481  1.0000
  H   H33       1.0  0.16515  0.74461  0.33364  1.0000
  H   H34       1.0  0.16631  0.78860  0.19684  1.0000
  H   H35       1.0  0.12660  0.77418  0.19949  1.0000
  H   H36       1.0  0.18932  0.83218  0.34257  1.0000
  H   H37       1.0  0.26607  0.89055  0.19836  1.0000
  H   H38       1.0  0.27952  0.93002  0.19741  1.0000
  H   H39       1.0  0.37378  0.84474  0.19622  1.0000
  H   H40       1.0  0.33602  0.83767  0.19731  1.0000
  C   C76       1.0  0.78665  0.54859  0.33341  1.0000
  N   N9        1.0  0.79557  0.59685  0.33413  1.0000
  C   C77       1.0  0.79401  0.61567  0.33431  1.0000
  C   C78       1.0  0.77106  0.60843  0.33456  1.0000
  C   C79       1.0  0.75944  0.58526  0.33533  1.0000
  C   C80       1.0  0.81180  0.63834  0.33503  1.0000
  C   C81       1.0  0.86789  0.64513  0.33544  1.0000
  C   C82       1.0  0.85257  0.66742  0.33963  1.0000
  C   C83       1.0  0.86041  0.57789  0.33528  1.0000
  C   C84       1.0  0.85512  0.53190  0.25610  1.0000
  C   C85       1.0  0.85904  0.51368  0.25543  1.0000
  C   C86       1.0  0.91839  0.66639  0.25737  1.0000
  C   C87       1.0  0.94169  0.68151  0.25672  1.0000
  C   C88       1.0  0.80563  0.65529  0.33770  1.0000
  C   C89       1.0  0.79530  0.68013  0.25976  1.0000
  C   C90       1.0  0.80372  0.66520  0.25801  1.0000
  C   C91       1.0  0.73472  0.53038  0.25704  1.0000
  C   C92       1.0  0.71266  0.51199  0.25871  1.0000
  H   H41       1.0  0.70436  0.50614  0.19940  1.0000
  H   H42       1.0  0.74183  0.53752  0.19699  1.0000
  H   H43       1.0  0.80310  0.51210  0.32326  1.0000
  H   H44       1.0  0.74234  0.57550  0.33585  1.0000
  H   H45       1.0  0.76369  0.61817  0.33474  1.0000
  H   H46       1.0  0.80769  0.66100  0.19784  1.0000
  H   H47       1.0  0.79329  0.68631  0.20044  1.0000
  H   H48       1.0  0.85126  0.68155  0.34353  1.0000
  H   H49       1.0  0.90958  0.66316  0.19891  1.0000
  H   H50       1.0  0.94905  0.68917  0.19773  1.0000
  H   H51       1.0  0.86379  0.50969  0.19660  1.0000
  H   H52       1.0  0.85671  0.54037  0.19787  1.0000
  C   C93       1.0  0.44265  0.17890  0.33445  1.0000
  C   C94       1.0  0.44989  0.16318  0.33459  1.0000
  C   C95       1.0  0.47306  0.17473  0.33546  1.0000
  C   C96       1.0  0.52644  0.32377  0.25655  1.0000
  C   C97       1.0  0.54466  0.34591  0.25588  1.0000
  C   C98       1.0  0.39194  0.25255  0.25771  1.0000
  C   C99       1.0  0.37681  0.26072  0.25706  1.0000
  C   C100      1.0  0.37822  0.11574  0.25963  1.0000
  C   C101      1.0  0.39316  0.13908  0.25796  1.0000
  C   C102      1.0  0.52796  0.20491  0.25734  1.0000
  C   C103      1.0  0.54634  0.20123  0.25900  1.0000
  H   H53       1.0  0.55221  0.19878  0.19968  1.0000
  H   H54       1.0  0.52083  0.20487  0.19729  1.0000
  H   H55       1.0  0.54622  0.29156  0.32388  1.0000
  H   H56       1.0  0.48282  0.16740  0.33584  1.0000
  H   H57       1.0  0.39734  0.14728  0.19784  1.0000
  H   H58       1.0  0.37204  0.10757  0.20028  1.0000
  H   H59       1.0  0.37676  0.17025  0.34379  1.0000
  H   H60       1.0  0.39516  0.24695  0.19928  1.0000
  H   H61       1.0  0.36915  0.26040  0.19809  1.0000
  H   H62       1.0  0.54867  0.35464  0.19703  1.0000
  H   H63       1.0  0.51798  0.31689  0.19830  1.0000
  C   C104      1.0  0.78216  0.25642  0.32729  1.0000
  N   N10       1.0  0.80956  0.24894  0.33615  1.0000
  C   C105      1.0  0.81969  0.27165  0.33304  1.0000
  N   N11       1.0  0.85903  0.26274  0.33381  1.0000
  C   C106      1.0  0.87941  0.26430  0.33399  1.0000
  C   C107      1.0  0.89513  0.28726  0.33427  1.0000
  C   C108      1.0  0.88358  0.29887  0.33508  1.0000
  C   C109      1.0  0.88430  0.24652  0.33464  1.0000
  N   N12       1.0  0.84516  0.21315  0.33215  1.0000
  C   C110      1.0  0.83500  0.19042  0.33526  1.0000
  C   C111      1.0  0.87261  0.20574  0.33929  1.0000
  C   C112      1.0  0.77524  0.19789  0.33530  1.0000
  C   C113      1.0  0.77037  0.21566  0.33493  1.0000
  C   C114      1.0  0.73453  0.20318  0.25624  1.0000
  C   C115      1.0  0.71239  0.19926  0.25567  1.0000
  C   C116      1.0  0.70244  0.20206  0.33393  1.0000
  C   C117      1.0  0.80576  0.13991  0.25736  1.0000
  C   C118      1.0  0.79759  0.11662  0.25682  1.0000
  C   C119      1.0  0.90742  0.25269  0.33733  1.0000
  C   C120      1.0  0.95476  0.26998  0.34055  1.0000
  C   C121      1.0  0.94260  0.26301  0.25939  1.0000
  C   C122      1.0  0.91926  0.25462  0.25763  1.0000
  C   C123      1.0  0.84877  0.31107  0.33650  1.0000
  C   C124      1.0  0.85343  0.32360  0.25674  1.0000
  C   C125      1.0  0.85710  0.34566  0.25841  1.0000
  H   H64       1.0  0.85960  0.35399  0.19910  1.0000
  H   H65       1.0  0.85351  0.31652  0.19672  1.0000
  H   H66       1.0  0.76676  0.25519  0.32250  1.0000
  H   H67       1.0  0.81755  0.24090  0.34292  1.0000
  H   H68       1.0  0.89091  0.31597  0.33556  1.0000
  H   H69       1.0  0.91223  0.29463  0.33437  1.0000
  H   H70       1.0  0.91110  0.25065  0.19747  1.0000
  H   H71       1.0  0.95080  0.26505  0.20006  1.0000
  H   H72       1.0  0.88806  0.20706  0.34327  1.0000
  H   H73       1.0  0.81137  0.14872  0.19889  1.0000
  H   H74       1.0  0.79791  0.10925  0.19787  1.0000
  H   H75       1.0  0.70364  0.19451  0.19689  1.0000
  H   H76       1.0  0.74140  0.20157  0.19798  1.0000
  C   C126      1.0  0.21961  0.66199  0.33949  1.0000
  C   C127      1.0  0.20196  0.64354  0.29487  1.0000
  C   C128      1.0  0.20028  0.62219  0.29309  1.0000
  C   C129      1.0  0.22727  0.59376  0.26026  1.0000
  C   C130      1.0  0.22813  0.57365  0.26123  1.0000
  H   H77       1.0  0.23660  0.57088  0.21103  1.0000
  H   H78       1.0  0.18987  0.64565  0.26373  1.0000
  C   C131      1.0  0.23829  0.60913  0.18301  1.0000
  H   H79       1.0  0.23717  0.62437  0.18499  1.0000
  H   H80       1.0  0.23046  0.60040  0.12089  1.0000
  H   H81       1.0  0.25608  0.61418  0.18114  1.0000
  C   C132      1.0  0.18071  0.60404  0.24429  1.0000
  H   H82       1.0  0.16513  0.60163  0.27383  1.0000
  H   H83       1.0  0.18006  0.58789  0.24579  1.0000
  H   H84       1.0  0.18131  0.60883  0.17436  1.0000
  C   C133      1.0  0.41478  0.55896  0.29521  1.0000
  C   C134      1.0  0.43614  0.57865  0.29343  1.0000
  C   C135      1.0  0.46457  0.63406  0.26062  1.0000
  C   C136      1.0  0.48468  0.65504  0.26159  1.0000
  H   H85       1.0  0.48747  0.66626  0.21138  1.0000
  H   H86       1.0  0.41268  0.54477  0.26407  1.0000
  C   C137      1.0  0.44922  0.62971  0.18333  1.0000
  H   H87       1.0  0.43398  0.61335  0.18531  1.0000
  H   H88       1.0  0.45797  0.63060  0.12124  1.0000
  H   H89       1.0  0.44418  0.64244  0.18142  1.0000
  C   C138      1.0  0.45430  0.57723  0.24465  1.0000
  H   H90       1.0  0.45671  0.56406  0.27420  1.0000
  H   H91       1.0  0.47044  0.59273  0.24617  1.0000
  H   H92       1.0  0.44953  0.57304  0.17473  1.0000
  C   C139      1.0  0.49937  0.85637  0.29558  1.0000
  C   C140      1.0  0.47969  0.85805  0.29372  1.0000
  C   C141      1.0  0.42429  0.83106  0.26067  1.0000
  C   C142      1.0  0.40332  0.83021  0.26153  1.0000
  H   H93       1.0  0.39211  0.82176  0.21128  1.0000
  H   H94       1.0  0.51358  0.86847  0.26448  1.0000
  C   C143      1.0  0.42868  0.82007  0.18345  1.0000
  H   H95       1.0  0.44503  0.82119  0.18552  1.0000
  H   H96       1.0  0.42782  0.82792  0.12132  1.0000
  H   H97       1.0  0.41594  0.80229  0.18153  1.0000
  C   C144      1.0  0.48114  0.87764  0.24493  1.0000
  H   H98       1.0  0.49429  0.89321  0.27450  1.0000
  H   H99       1.0  0.46563  0.87829  0.24638  1.0000
  H   H100      1.0  0.48534  0.87705  0.17502  1.0000
  C   C145      1.0  0.87544  0.39570  0.29553  1.0000
  C   C146      1.0  0.87712  0.41706  0.29372  1.0000
  C   C147      1.0  0.85013  0.44549  0.26083  1.0000
  C   C148      1.0  0.84927  0.46560  0.26178  1.0000
  H   H101      1.0  0.84083  0.46837  0.21157  1.0000
  H   H102      1.0  0.88754  0.39360  0.26441  1.0000
  C   C149      1.0  0.83914  0.43013  0.18358  1.0000
  H   H103      1.0  0.84026  0.41489  0.18557  1.0000
  H   H104      1.0  0.84700  0.43887  0.12146  1.0000
  H   H105      1.0  0.82136  0.42507  0.18169  1.0000
  C   C150      1.0  0.89671  0.43521  0.24492  1.0000
  H   H106      1.0  0.91227  0.43762  0.27447  1.0000
  H   H107      1.0  0.89735  0.45136  0.24641  1.0000
  H   H108      1.0  0.89612  0.43043  0.17500  1.0000
  C   C151      1.0  0.66261  0.48029  0.29586  1.0000
  C   C152      1.0  0.64125  0.46060  0.29408  1.0000
  C   C153      1.0  0.61285  0.40519  0.26127  1.0000
  C   C154      1.0  0.59273  0.38422  0.26224  1.0000
  H   H109      1.0  0.58997  0.37299  0.21204  1.0000
  H   H110      1.0  0.66472  0.49449  0.26472  1.0000
  C   C155      1.0  0.62822  0.40955  0.18401  1.0000
  H   H111      1.0  0.64346  0.42591  0.18600  1.0000
  H   H112      1.0  0.61949  0.40866  0.12190  1.0000
  H   H113      1.0  0.63327  0.39682  0.18215  1.0000
  C   C156      1.0  0.62311  0.46203  0.24528  1.0000
  H   H114      1.0  0.62069  0.47519  0.27482  1.0000
  H   H115      1.0  0.60696  0.44653  0.24678  1.0000
  H   H116      1.0  0.62790  0.46622  0.17535  1.0000
  C   C157      1.0  0.57803  0.18287  0.29610  1.0000
  C   C158      1.0  0.59771  0.18120  0.29428  1.0000
  C   C159      1.0  0.65312  0.20820  0.26129  1.0000
  C   C160      1.0  0.67410  0.20906  0.26216  1.0000
  H   H117      1.0  0.68531  0.21751  0.21190  1.0000
  H   H118      1.0  0.56383  0.17078  0.26499  1.0000
  C   C161      1.0  0.64876  0.21920  0.18404  1.0000
  H   H119      1.0  0.63240  0.21808  0.18611  1.0000
  H   H120      1.0  0.64963  0.21134  0.12193  1.0000
  H   H121      1.0  0.66149  0.23698  0.18210  1.0000
  C   C162      1.0  0.59629  0.16162  0.24548  1.0000
  H   H122      1.0  0.58313  0.14605  0.27504  1.0000
  H   H123      1.0  0.61180  0.16098  0.24696  1.0000
  H   H124      1.0  0.59211  0.16222  0.17557  1.0000
  C   C163      1.0  0.98983  0.27068  0.29620  1.0000
  C   C164      1.0  0.01353  0.28108  0.29440  1.0000
  C   C165      1.0  0.06207  0.32862  0.26207  1.0000
  C   C166      1.0  0.08580  0.34117  0.26310  1.0000
  H   H125      1.0  0.09390  0.35253  0.21289  1.0000
  H   H126      1.0  0.98042  0.25554  0.26481  1.0000
  C   C167      1.0  0.05074  0.33250  0.18473  1.0000
  H   H127      1.0  0.03249  0.32247  0.18670  1.0000
  H   H128      1.0  0.05628  0.32844  0.12267  1.0000
  H   H129      1.0  0.05524  0.35014  0.18277  1.0000
  C   C168      1.0  0.02319  0.26900  0.24527  1.0000
  H   H130      1.0  0.01697  0.25237  0.27453  1.0000
  H   H131      1.0  0.04146  0.27756  0.24678  1.0000
  H   H132      1.0  0.01802  0.26700  0.17535  1.0000
  C   C169      1.0  0.78764  0.71970  0.29660  1.0000
  C   C170      1.0  0.77724  0.73300  0.29480  1.0000
  C   C171      1.0  0.72970  0.73399  0.26248  1.0000
  C   C172      1.0  0.71715  0.74517  0.26351  1.0000
  H   H133      1.0  0.70580  0.74192  0.21331  1.0000
  H   H134      1.0  0.80279  0.72544  0.26521  1.0000
  C   C173      1.0  0.72583  0.71878  0.18515  1.0000
  H   H135      1.0  0.73587  0.71057  0.18712  1.0000
  H   H136      1.0  0.72990  0.72838  0.12309  1.0000
  H   H137      1.0  0.70820  0.70564  0.18320  1.0000
  C   C174      1.0  0.78933  0.75474  0.24569  1.0000
  H   H138      1.0  0.80595  0.76515  0.27495  1.0000
  H   H139      1.0  0.78076  0.76444  0.24720  1.0000
  H   H140      1.0  0.79134  0.75158  0.17577  1.0000
  C   C175      1.0  0.35942  0.07962  0.34134  1.0000
  C   C176      1.0  0.33863  0.06850  0.29627  1.0000
  C   C177      1.0  0.32533  0.04480  0.29438  1.0000
  C   C178      1.0  0.33332  0.03170  0.33806  1.0000
  C   C179      1.0  0.32433  0.99627  0.26193  1.0000
  C   C180      1.0  0.31315  0.97253  0.26292  1.0000
  H   H141      1.0  0.31641  0.96444  0.21271  1.0000
  H   H142      1.0  0.33291  0.07792  0.26492  1.0000
  C   C181      1.0  0.33956  0.00762  0.18462  1.0000
  H   H143      1.0  0.34777  0.02586  0.18662  1.0000
  H   H144      1.0  0.32998  0.00209  0.12255  1.0000
  H   H145      1.0  0.35270  0.00312  0.18267  1.0000
  C   C182      1.0  0.30361  0.03517  0.24521  1.0000
  H   H146      1.0  0.29319  0.04137  0.27449  1.0000
  H   H147      1.0  0.29390  0.01689  0.24665  1.0000
  H   H148      1.0  0.30680  0.04036  0.17532  1.0000
  C   C183      1.0  0.09870  0.75889  0.34071  1.0000
  C   C184      1.0  0.08756  0.76855  0.29572  1.0000
  C   C185      1.0  0.06385  0.75815  0.29398  1.0000
  C   C186      1.0  0.05077  0.73706  0.33775  1.0000
  C   C187      1.0  0.02680  0.72563  0.33382  1.0000
  C   C188      1.0  0.01532  0.71061  0.26185  1.0000
  C   C189      1.0  0.99158  0.69806  0.26299  1.0000
  H   H149      1.0  0.98348  0.68670  0.21283  1.0000
  H   H150      1.0  0.09697  0.78369  0.26430  1.0000
  C   C190      1.0  0.02664  0.70672  0.18448  1.0000
  H   H151      1.0  0.04489  0.71676  0.18637  1.0000
  H   H152      1.0  0.02110  0.71078  0.12244  1.0000
  H   H153      1.0  0.02215  0.68909  0.18257  1.0000
  C   C191      1.0  0.05421  0.77024  0.24487  1.0000
  H   H154      1.0  0.06042  0.78686  0.27411  1.0000
  H   H155      1.0  0.03593  0.76167  0.24644  1.0000
  H   H156      1.0  0.05938  0.77224  0.17494  1.0000
  C   C192      1.0  0.29942  0.34035  0.34114  1.0000
  C   C193      1.0  0.28977  0.31955  0.29615  1.0000
  C   C194      1.0  0.30016  0.30625  0.29440  1.0000
  C   C195      1.0  0.34770  0.30524  0.26222  1.0000
  C   C196      1.0  0.36026  0.29406  0.26334  1.0000
  H   H157      1.0  0.37162  0.29732  0.21317  1.0000
  H   H158      1.0  0.27463  0.31382  0.26474  1.0000
  C   C197      1.0  0.35160  0.32045  0.18485  1.0000
  H   H159      1.0  0.34157  0.32866  0.18674  1.0000
  H   H160      1.0  0.34756  0.31085  0.12280  1.0000
  H   H161      1.0  0.36924  0.33359  0.18291  1.0000
  C   C198      1.0  0.28808  0.28451  0.24528  1.0000
  H   H162      1.0  0.27146  0.27411  0.27453  1.0000
  H   H163      1.0  0.29665  0.27481  0.24683  1.0000
  H   H164      1.0  0.28609  0.28768  0.17536  1.0000
  C   C199      1.0  0.73877  0.97075  0.29639  1.0000
  C   C200      1.0  0.75207  0.99446  0.29458  1.0000
  C   C201      1.0  0.75307  0.04299  0.26228  1.0000
  C   C202      1.0  0.76425  0.06672  0.26332  1.0000
  H   H165      1.0  0.76100  0.07483  0.21312  1.0000
  H   H166      1.0  0.74451  0.96135  0.26500  1.0000
  C   C203      1.0  0.73786  0.03166  0.18496  1.0000
  H   H167      1.0  0.72965  0.01341  0.18692  1.0000
  H   H168      1.0  0.74747  0.03720  0.12289  1.0000
  H   H169      1.0  0.72473  0.03616  0.18302  1.0000
  C   C204      1.0  0.77381  0.00410  0.24544  1.0000
  H   H170      1.0  0.78421  0.99789  0.27470  1.0000
  H   H171      1.0  0.78352  0.02238  0.24695  1.0000
  H   H172      1.0  0.77065  0.99894  0.17553  1.0000
  C   C205      1.0  0.29553  0.51292  0.32737  1.0000
  C   C206      1.0  0.25796  0.49074  0.33296  1.0000
  C   C207      1.0  0.30223  0.46118  0.33415  1.0000
  C   C208      1.0  0.24233  0.39407  0.33484  1.0000
  C   C209      1.0  0.20474  0.37185  0.33965  1.0000
  C   C210      1.0  0.19311  0.40100  0.33520  1.0000
  C   C211      1.0  0.19809  0.42371  0.33457  1.0000
  N   N13       1.0  0.21851  0.44251  0.33461  1.0000
  C   C212      1.0  0.19406  0.45420  0.33517  1.0000
  C   C213      1.0  0.18244  0.43104  0.33416  1.0000
  C   C214      1.0  0.22746  0.53177  0.41271  1.0000
  C   C215      1.0  0.23129  0.51350  0.41377  1.0000
  C   C216      1.0  0.16995  0.38405  0.33654  1.0000
  C   C217      1.0  0.12258  0.35343  0.33499  1.0000
  C   C218      1.0  0.13385  0.36443  0.41465  1.0000
  C   C219      1.0  0.15716  0.37945  0.41561  1.0000
  C   C220      1.0  0.27804  0.37834  0.41871  1.0000
  C   C221      1.0  0.28664  0.36359  0.42017  1.0000
  C   C222      1.0  0.34017  0.51161  0.41760  1.0000
  C   C223      1.0  0.36215  0.53009  0.41896  1.0000
  H   H173      1.0  0.36880  0.53764  0.47892  1.0000
  H   H174      1.0  0.33131  0.50639  0.47611  1.0000
  H   H175      1.0  0.31097  0.52705  0.32308  1.0000
  H   H176      1.0  0.27715  0.38558  0.47718  1.0000
  H   H177      1.0  0.29144  0.36021  0.48020  1.0000
  H   H178      1.0  0.18929  0.35774  0.34395  1.0000
  H   H179      1.0  0.18674  0.46398  0.33524  1.0000
  H   H180      1.0  0.16534  0.42138  0.33364  1.0000
  H   H181      1.0  0.16460  0.38766  0.47368  1.0000
  H   H182      1.0  0.12504  0.36236  0.47235  1.0000
  H   H183      1.0  0.23649  0.50966  0.47183  1.0000
  H   H184      1.0  0.23030  0.54085  0.47020  1.0000
  C   C224      1.0  0.54540  0.78316  0.32739  1.0000
  C   C225      1.0  0.56758  0.76778  0.33327  1.0000
  N   N14       1.0  0.58024  0.79048  0.33620  1.0000
  C   C226      1.0  0.57449  0.82386  0.33455  1.0000
  C   C227      1.0  0.59713  0.84159  0.33473  1.0000
  C   C228      1.0  0.66424  0.84881  0.33511  1.0000
  N   N15       1.0  0.65162  0.82609  0.33232  1.0000
  C   C229      1.0  0.68646  0.83344  0.33984  1.0000
  C   C230      1.0  0.65731  0.79266  0.33554  1.0000
  C   C231      1.0  0.63460  0.77493  0.33499  1.0000
  N   N16       1.0  0.61580  0.77655  0.33496  1.0000
  C   C232      1.0  0.60411  0.74041  0.33570  1.0000
  C   C233      1.0  0.62727  0.75196  0.33473  1.0000
  C   C234      1.0  0.57432  0.75129  0.33486  1.0000
  C   C235      1.0  0.55708  0.72827  0.33540  1.0000
  C   C236      1.0  0.52000  0.68336  0.33353  1.0000
  C   C237      1.0  0.52649  0.69626  0.41307  1.0000
  C   C238      1.0  0.54478  0.71835  0.41418  1.0000
  C   C239      1.0  0.67426  0.78645  0.33690  1.0000
  C   C240      1.0  0.70489  0.76971  0.33538  1.0000
  C   C241      1.0  0.69390  0.77001  0.41507  1.0000
  C   C242      1.0  0.67885  0.77827  0.41598  1.0000
  C   C243      1.0  0.67996  0.90026  0.41911  1.0000
  C   C244      1.0  0.69473  0.92362  0.42053  1.0000
  C   C245      1.0  0.70441  0.93570  0.34075  1.0000
  C   C246      1.0  0.55731  0.82970  0.33661  1.0000
  C   C247      1.0  0.54664  0.82906  0.41804  1.0000
  C   C248      1.0  0.51992  0.83687  0.33958  1.0000
  C   C249      1.0  0.52817  0.83256  0.41937  1.0000
  H   H185      1.0  0.52059  0.83165  0.47931  1.0000
  H   H186      1.0  0.55184  0.82541  0.47656  1.0000
  H   H187      1.0  0.53128  0.78448  0.32268  1.0000
  H   H188      1.0  0.59627  0.79848  0.34300  1.0000
  H   H189      1.0  0.63554  0.81806  0.32775  1.0000
  H   H190      1.0  0.67273  0.89213  0.47760  1.0000
  H   H191      1.0  0.69811  0.93180  0.48054  1.0000
  H   H192      1.0  0.70057  0.83210  0.34410  1.0000
  H   H193      1.0  0.59433  0.72331  0.33594  1.0000
  H   H194      1.0  0.63693  0.74451  0.33427  1.0000
  H   H195      1.0  0.67063  0.77751  0.47406  1.0000
  H   H196      1.0  0.69592  0.76324  0.47274  1.0000
  H   H197      1.0  0.54858  0.72741  0.47219  1.0000
  H   H198      1.0  0.51739  0.69002  0.47056  1.0000
  C   C250      1.0  0.21672  0.75609  0.33383  1.0000
  C   C251      1.0  0.28338  0.86022  0.33431  1.0000
  C   C252      1.0  0.31791  0.86425  0.33505  1.0000
  C   C253      1.0  0.30636  0.87587  0.33407  1.0000
  C   C254      1.0  0.36202  0.83079  0.41277  1.0000
  C   C255      1.0  0.33993  0.82699  0.41376  1.0000
  C   C256      1.0  0.28829  0.92443  0.41441  1.0000
  C   C257      1.0  0.28000  0.90112  0.41534  1.0000
  C   C258      1.0  0.15804  0.78025  0.41827  1.0000
  C   C259      1.0  0.13469  0.77166  0.41975  1.0000
  C   C260      1.0  0.22921  0.71813  0.41726  1.0000
  C   C261      1.0  0.22571  0.69616  0.41862  1.0000
  H   H199      1.0  0.22658  0.68949  0.47858  1.0000
  H   H200      1.0  0.23283  0.72698  0.47577  1.0000
  H   H201      1.0  0.27385  0.74735  0.32242  1.0000
  H   H202      1.0  0.16617  0.78116  0.47676  1.0000
  H   H203      1.0  0.12650  0.76686  0.47978  1.0000
  H   H204      1.0  0.22621  0.86902  0.34329  1.0000
  H   H205      1.0  0.33500  0.87157  0.33537  1.0000
  H   H206      1.0  0.31380  0.89298  0.33365  1.0000
  H   H207      1.0  0.28077  0.89367  0.47338  1.0000
  H   H208      1.0  0.29503  0.93323  0.47210  1.0000
  H   H209      1.0  0.33085  0.82175  0.47176  1.0000
  H   H210      1.0  0.36824  0.82796  0.47033  1.0000
  C   C262      1.0  0.78185  0.52633  0.32801  1.0000
  C   C263      1.0  0.80188  0.52628  0.32786  1.0000
  C   C264      1.0  0.81941  0.54850  0.33354  1.0000
  N   N17       1.0  0.80936  0.56116  0.33643  1.0000
  C   C265      1.0  0.77025  0.55542  0.33472  1.0000
  C   C266      1.0  0.77515  0.57806  0.33482  1.0000
  C   C267      1.0  0.83506  0.64518  0.33522  1.0000
  N   N18       1.0  0.84516  0.63256  0.33244  1.0000
  C   C268      1.0  0.87264  0.66739  0.33987  1.0000
  C   C269      1.0  0.88427  0.63824  0.33553  1.0000
  C   C270      1.0  0.87929  0.61553  0.33496  1.0000
  N   N19       1.0  0.85887  0.59673  0.33501  1.0000
  C   C271      1.0  0.88332  0.58503  0.33561  1.0000
  C   C272      1.0  0.89493  0.60820  0.33462  1.0000
  C   C273      1.0  0.84264  0.55525  0.33498  1.0000
  C   C274      1.0  0.84843  0.53801  0.33550  1.0000
  C   C275      1.0  0.85625  0.50092  0.33366  1.0000
  C   C276      1.0  0.84986  0.50744  0.41323  1.0000
  C   C277      1.0  0.84606  0.52573  0.41431  1.0000
  C   C278      1.0  0.90744  0.65519  0.33680  1.0000
  C   C279      1.0  0.95480  0.68581  0.33504  1.0000
  C   C280      1.0  0.94353  0.67482  0.41476  1.0000
  C   C281      1.0  0.92022  0.65980  0.41581  1.0000
  C   C282      1.0  0.79933  0.66091  0.41927  1.0000
  C   C283      1.0  0.79073  0.67567  0.42070  1.0000
  C   C284      1.0  0.78834  0.68535  0.34094  1.0000
  C   C285      1.0  0.74723  0.53825  0.33680  1.0000
  C   C286      1.0  0.73718  0.52763  0.41827  1.0000
  C   C287      1.0  0.70267  0.50086  0.33983  1.0000
  C   C288      1.0  0.71521  0.50914  0.41961  1.0000
  H   H211      1.0  0.70854  0.50158  0.47957  1.0000
  H   H212      1.0  0.74603  0.53283  0.47678  1.0000
  H   H213      1.0  0.76641  0.51220  0.32360  1.0000
  H   H214      1.0  0.81741  0.57721  0.34245  1.0000
  H   H215      1.0  0.83710  0.61647  0.32795  1.0000
  H   H216      1.0  0.80019  0.65366  0.47774  1.0000
  H   H217      1.0  0.78591  0.67904  0.48071  1.0000
  H   H218      1.0  0.88810  0.68151  0.34405  1.0000
  H   H219      1.0  0.89063  0.57525  0.33588  1.0000
  H   H220      1.0  0.91204  0.61786  0.33417  1.0000
  H   H221      1.0  0.91277  0.65159  0.47392  1.0000
  H   H222      1.0  0.95234  0.67689  0.47241  1.0000
  H   H223      1.0  0.84083  0.52956  0.47236  1.0000
  H   H224      1.0  0.84704  0.49837  0.47076  1.0000
  C   C289      1.0  0.53199  0.25608  0.32842  1.0000
  C   C290      1.0  0.53204  0.27616  0.32829  1.0000
  C   C291      1.0  0.50981  0.27147  0.33397  1.0000
  N   N20       1.0  0.49715  0.24876  0.33678  1.0000
  C   C292      1.0  0.50973  0.23862  0.33376  1.0000
  C   C293      1.0  0.50290  0.21538  0.33505  1.0000
  C   C294      1.0  0.48026  0.19765  0.33507  1.0000
  N   N21       1.0  0.46147  0.19928  0.33439  1.0000
  C   C295      1.0  0.41998  0.17401  0.33512  1.0000
  C   C296      1.0  0.41314  0.19043  0.33552  1.0000
  N   N22       1.0  0.42576  0.21315  0.33279  1.0000
  C   C297      1.0  0.41318  0.22331  0.33584  1.0000
  C   C298      1.0  0.39093  0.20580  0.34025  1.0000
  C   C299      1.0  0.39090  0.18570  0.34005  1.0000
  C   C300      1.0  0.42007  0.24658  0.33589  1.0000
  C   C301      1.0  0.44279  0.26431  0.33534  1.0000
  N   N23       1.0  0.46158  0.26269  0.33546  1.0000
  C   C302      1.0  0.48042  0.28308  0.33574  1.0000
  C   C303      1.0  0.47327  0.29883  0.33603  1.0000
  C   C304      1.0  0.45011  0.28728  0.33494  1.0000
  C   C305      1.0  0.50306  0.28795  0.33542  1.0000
  C   C306      1.0  0.52030  0.31098  0.33595  1.0000
  C   C307      1.0  0.55739  0.35588  0.33411  1.0000
  C   C308      1.0  0.55084  0.34299  0.41371  1.0000
  C   C309      1.0  0.53256  0.32089  0.41476  1.0000
  C   C310      1.0  0.40312  0.25279  0.33713  1.0000
  C   C311      1.0  0.37250  0.26954  0.33538  1.0000
  C   C312      1.0  0.38347  0.26926  0.41510  1.0000
  C   C313      1.0  0.39850  0.26097  0.41615  1.0000
  C   C314      1.0  0.40303  0.15089  0.33771  1.0000
  C   C315      1.0  0.39739  0.13895  0.41922  1.0000
  C   C316      1.0  0.38263  0.11559  0.42056  1.0000
  C   C317      1.0  0.37298  0.10354  0.34075  1.0000
  C   C318      1.0  0.52007  0.20954  0.33710  1.0000
  C   C319      1.0  0.53069  0.21012  0.41857  1.0000
  C   C320      1.0  0.55745  0.20236  0.34011  1.0000
  C   C321      1.0  0.54916  0.20662  0.41991  1.0000
  H   H225      1.0  0.55671  0.20751  0.47986  1.0000
  H   H226      1.0  0.52546  0.21375  0.47708  1.0000
  H   H227      1.0  0.54613  0.25477  0.32414  1.0000
  H   H228      1.0  0.48110  0.24075  0.34276  1.0000
  H   H229      1.0  0.44184  0.22118  0.32802  1.0000
  H   H230      1.0  0.44016  0.14608  0.33459  1.0000
  H   H231      1.0  0.40462  0.14705  0.47773  1.0000
  H   H232      1.0  0.37924  0.10738  0.48054  1.0000
  H   H233      1.0  0.37681  0.20714  0.34450  1.0000
  H   H234      1.0  0.48306  0.31593  0.33612  1.0000
  H   H235      1.0  0.44045  0.29473  0.33437  1.0000
  H   H236      1.0  0.40669  0.26173  0.47426  1.0000
  H   H237      1.0  0.38139  0.27600  0.47276  1.0000
  H   H238      1.0  0.52871  0.31183  0.47282  1.0000
  H   H239      1.0  0.55991  0.34922  0.47120  1.0000
  C   C322      1.0  0.80223  0.27645  0.32739  1.0000
  C   C323      1.0  0.78685  0.23889  0.33329  1.0000
  C   C324      1.0  0.84293  0.28806  0.33443  1.0000
  C   C325      1.0  0.86066  0.28315  0.33456  1.0000
  C   C326      1.0  0.86789  0.22326  0.33491  1.0000
  C   C327      1.0  0.85251  0.18567  0.33966  1.0000
  C   C328      1.0  0.81173  0.17404  0.33541  1.0000
  C   C329      1.0  0.79400  0.17902  0.33492  1.0000
  N   N24       1.0  0.79562  0.19944  0.33491  1.0000
  C   C330      1.0  0.75948  0.17499  0.33574  1.0000
  C   C331      1.0  0.77103  0.16337  0.33470  1.0000
  C   C332      1.0  0.74734  0.20987  0.33557  1.0000
  C   C333      1.0  0.71535  0.20846  0.41341  1.0000
  C   C334      1.0  0.73744  0.21226  0.41441  1.0000
  C   C335      1.0  0.80552  0.15087  0.33675  1.0000
  C   C336      1.0  0.78878  0.10351  0.33520  1.0000
  C   C337      1.0  0.78908  0.11479  0.41490  1.0000
  C   C338      1.0  0.79734  0.13810  0.41583  1.0000
  C   C339      1.0  0.91932  0.25898  0.41889  1.0000
  C   C340      1.0  0.94268  0.26757  0.42032  1.0000
  C   C341      1.0  0.84814  0.32110  0.41794  1.0000
  C   C342      1.0  0.85593  0.35563  0.33950  1.0000
  C   C343      1.0  0.85163  0.34307  0.41929  1.0000
  H   H240      1.0  0.85072  0.34973  0.47924  1.0000
  H   H241      1.0  0.84449  0.31224  0.47645  1.0000
  H   H242      1.0  0.80355  0.29189  0.32269  1.0000
  H   H243      1.0  0.83713  0.22121  0.32757  1.0000
  H   H244      1.0  0.91119  0.25807  0.47738  1.0000
  H   H245      1.0  0.95086  0.27237  0.48034  1.0000
  H   H246      1.0  0.85117  0.17022  0.34392  1.0000
  H   H247      1.0  0.74238  0.16767  0.33602  1.0000
  H   H248      1.0  0.76358  0.14627  0.33423  1.0000
  H   H249      1.0  0.79658  0.14555  0.47392  1.0000
  H   H250      1.0  0.78231  0.10598  0.47257  1.0000
  H   H251      1.0  0.74651  0.21751  0.47238  1.0000
  H   H252      1.0  0.70912  0.21131  0.47094  1.0000
  C   C344      1.0  0.21714  0.61931  0.33652  1.0000
  C   C345      1.0  0.23514  0.63775  0.38205  1.0000
  C   C346      1.0  0.23593  0.65868  0.38297  1.0000
  H   H253      1.0  0.24912  0.67204  0.41406  1.0000
  C   C347      1.0  0.21653  0.59827  0.33236  1.0000
  C   C348      1.0  0.21873  0.55784  0.33121  1.0000
  C   C349      1.0  0.20779  0.56248  0.40084  1.0000
  C   C350      1.0  0.20647  0.58235  0.40293  1.0000
  H   H254      1.0  0.20057  0.55107  0.45163  1.0000
  C   C351      1.0  0.19477  0.58531  0.48122  1.0000
  H   H255      1.0  0.19388  0.60068  0.47889  1.0000
  H   H256      1.0  0.20351  0.58565  0.54258  1.0000
  H   H257      1.0  0.17758  0.57126  0.48469  1.0000
  C   C352      1.0  0.25377  0.63678  0.42907  1.0000
  H   H258      1.0  0.26982  0.64890  0.39921  1.0000
  H   H259      1.0  0.25256  0.62039  0.42640  1.0000
  H   H260      1.0  0.25390  0.64106  0.49940  1.0000
  C   C353      1.0  0.39632  0.55816  0.33981  1.0000
  C   C354      1.0  0.43900  0.59839  0.33687  1.0000
  C   C355      1.0  0.42054  0.59794  0.38238  1.0000
  C   C356      1.0  0.39962  0.57779  0.38330  1.0000
  H   H261      1.0  0.38625  0.57762  0.41438  1.0000
  C   C357      1.0  0.46004  0.61881  0.33272  1.0000
  C   C358      1.0  0.50047  0.66145  0.33162  1.0000
  C   C359      1.0  0.49581  0.64587  0.40126  1.0000
  C   C360      1.0  0.47593  0.62468  0.40333  1.0000
  H   H262      1.0  0.50719  0.65005  0.45208  1.0000
  C   C361      1.0  0.47295  0.61002  0.48163  1.0000
  H   H263      1.0  0.45759  0.59377  0.47929  1.0000
  H   H264      1.0  0.47260  0.61843  0.54298  1.0000
  H   H265      1.0  0.48700  0.60688  0.48514  1.0000
  C   C362      1.0  0.42149  0.61754  0.42940  1.0000
  H   H266      1.0  0.40938  0.62146  0.39954  1.0000
  H   H267      1.0  0.43788  0.63272  0.42672  1.0000
  H   H268      1.0  0.41721  0.61339  0.49973  1.0000
  C   C363      1.0  0.50015  0.83871  0.34021  1.0000
  C   C364      1.0  0.45993  0.84118  0.33709  1.0000
  C   C365      1.0  0.46035  0.82316  0.38262  1.0000
  C   C366      1.0  0.48050  0.82238  0.38361  1.0000
  H   H269      1.0  0.48066  0.80918  0.41470  1.0000
  C   C367      1.0  0.43951  0.84179  0.33283  1.0000
  C   C368      1.0  0.39687  0.83959  0.33147  1.0000
  C   C369      1.0  0.41242  0.85051  0.40118  1.0000
  C   C370      1.0  0.43360  0.85182  0.40337  1.0000
  H   H270      1.0  0.40821  0.85771  0.45194  1.0000
  C   C371      1.0  0.44822  0.86349  0.48173  1.0000
  H   H271      1.0  0.46448  0.86438  0.47949  1.0000
  H   H272      1.0  0.43979  0.85474  0.54306  1.0000
  H   H273      1.0  0.45137  0.88069  0.48521  1.0000
  C   C372      1.0  0.44073  0.80452  0.42958  1.0000
  H   H274      1.0  0.43682  0.78848  0.39971  1.0000
  H   H275      1.0  0.42555  0.80573  0.42686  1.0000
  H   H276      1.0  0.44485  0.80437  0.49992  1.0000
  C   C373      1.0  0.85777  0.37725  0.34015  1.0000
  C   C374      1.0  0.86024  0.41994  0.33713  1.0000
  C   C375      1.0  0.84222  0.40149  0.38264  1.0000
  C   C376      1.0  0.84144  0.38056  0.38359  1.0000
  H   H277      1.0  0.82824  0.36719  0.41467  1.0000
  C   C377      1.0  0.86086  0.44097  0.33294  1.0000
  C   C378      1.0  0.85865  0.48141  0.33177  1.0000
  C   C379      1.0  0.86957  0.47676  0.40140  1.0000
  C   C380      1.0  0.87089  0.45688  0.40351  1.0000
  H   H278      1.0  0.87678  0.48815  0.45220  1.0000
  C   C381      1.0  0.88256  0.45392  0.48181  1.0000
  H   H279      1.0  0.88345  0.43855  0.47951  1.0000
  H   H280      1.0  0.87380  0.45357  0.54317  1.0000
  H   H281      1.0  0.89976  0.46797  0.48529  1.0000
  C   C382      1.0  0.82358  0.40245  0.42964  1.0000
  H   H282      1.0  0.80754  0.39033  0.39977  1.0000
  H   H283      1.0  0.82479  0.41884  0.42695  1.0000
  H   H284      1.0  0.82343  0.39817  0.49997  1.0000
  C   C383      1.0  0.68106  0.48108  0.34048  1.0000
  C   C384      1.0  0.63838  0.44086  0.33751  1.0000
  C   C385      1.0  0.65682  0.44130  0.38304  1.0000
  C   C386      1.0  0.67775  0.46145  0.38396  1.0000
  H   H285      1.0  0.69111  0.46162  0.41505  1.0000
  C   C387      1.0  0.61735  0.42044  0.33336  1.0000
  C   C388      1.0  0.57691  0.37779  0.33222  1.0000
  C   C389      1.0  0.58155  0.39337  0.40184  1.0000
  C   C390      1.0  0.60142  0.41456  0.40393  1.0000
  H   H286      1.0  0.57014  0.38918  0.45262  1.0000
  C   C391      1.0  0.60437  0.42921  0.48221  1.0000
  H   H287      1.0  0.61974  0.44546  0.47989  1.0000
  H   H288      1.0  0.60470  0.42080  0.54358  1.0000
  H   H289      1.0  0.59032  0.43235  0.48567  1.0000
  C   C392      1.0  0.65586  0.42170  0.43006  1.0000
  H   H290      1.0  0.66798  0.41778  0.40020  1.0000
  H   H291      1.0  0.63947  0.40651  0.42738  1.0000
  H   H292      1.0  0.66012  0.42584  0.50039  1.0000
  C   C393      1.0  0.57723  0.20053  0.34073  1.0000
  C   C394      1.0  0.61746  0.19807  0.33767  1.0000
  C   C395      1.0  0.61701  0.21607  0.38321  1.0000
  C   C396      1.0  0.59686  0.21685  0.38419  1.0000
  H   H293      1.0  0.59669  0.23004  0.41528  1.0000
  C   C397      1.0  0.63788  0.19747  0.33345  1.0000
  C   C398      1.0  0.68053  0.19968  0.33213  1.0000
  C   C399      1.0  0.66495  0.18875  0.40182  1.0000
  C   C400      1.0  0.64377  0.18743  0.40400  1.0000
  H   H294      1.0  0.66915  0.18154  0.45260  1.0000
  C   C401      1.0  0.62912  0.17575  0.48235  1.0000
  H   H295      1.0  0.61287  0.17486  0.48009  1.0000
  H   H296      1.0  0.63754  0.18450  0.54368  1.0000
  H   H297      1.0  0.62598  0.15855  0.48583  1.0000
  C   C402      1.0  0.63661  0.23472  0.43020  1.0000
  H   H298      1.0  0.64053  0.25076  0.40034  1.0000
  H   H299      1.0  0.65179  0.23351  0.42748  1.0000
  H   H300      1.0  0.63246  0.23484  0.50054  1.0000
  C   C403      1.0  0.97869  0.28034  0.34122  1.0000
  C   C404      1.0  0.02661  0.30217  0.33812  1.0000
  C   C405      1.0  0.01567  0.31225  0.38391  1.0000
  C   C406      1.0  0.99195  0.30106  0.38495  1.0000
  H   H301      1.0  0.98413  0.30854  0.41629  1.0000
  C   C407      1.0  0.05058  0.31361  0.33409  1.0000
  C   C408      1.0  0.09862  0.33943  0.33309  1.0000
  C   C409      1.0  0.08686  0.32413  0.40268  1.0000
  C   C410      1.0  0.06314  0.31118  0.40468  1.0000
  H   H302      1.0  0.09582  0.32234  0.45350  1.0000
  C   C411      1.0  0.05292  0.29596  0.48292  1.0000
  H   H303      1.0  0.03466  0.28609  0.48054  1.0000
  H   H304      1.0  0.05757  0.30585  0.54431  1.0000
  H   H305      1.0  0.05918  0.28419  0.48640  1.0000
  C   C412      1.0  0.02753  0.33430  0.43114  1.0000
  H   H306      1.0  0.02277  0.34583  0.40156  1.0000
  H   H307      1.0  0.04577  0.34239  0.42831  1.0000
  H   H308      1.0  0.02269  0.33193  0.50150  1.0000
  C   C413      1.0  0.77797  0.69890  0.34160  1.0000
  C   C414      1.0  0.75613  0.72499  0.33852  1.0000
  C   C415      1.0  0.74604  0.70396  0.38431  1.0000
  C   C416      1.0  0.75725  0.69144  0.38534  1.0000
  H   H309      1.0  0.74975  0.67614  0.41668  1.0000
  C   C417      1.0  0.74470  0.73752  0.33451  1.0000
  C   C418      1.0  0.71888  0.75974  0.33349  1.0000
  C   C419      1.0  0.73417  0.76328  0.40307  1.0000
  C   C420      1.0  0.74712  0.75251  0.40508  1.0000
  H   H310      1.0  0.73595  0.77404  0.45389  1.0000
  C   C421      1.0  0.76233  0.75752  0.48332  1.0000
  H   H311      1.0  0.77219  0.74912  0.48094  1.0000
  H   H312      1.0  0.75242  0.75228  0.54471  1.0000
  H   H313      1.0  0.77410  0.77555  0.48678  1.0000
  C   C422      1.0  0.72399  0.69378  0.43155  1.0000
  H   H314      1.0  0.71246  0.67749  0.40196  1.0000
  H   H315      1.0  0.71590  0.70392  0.42872  1.0000
  H   H316      1.0  0.72635  0.69131  0.50190  1.0000
  C   C423      1.0  0.35433  0.04261  0.38389  1.0000
  C   C424      1.0  0.36686  0.06634  0.38501  1.0000
  H   H317      1.0  0.38215  0.07414  0.41637  1.0000
  C   C425      1.0  0.32079  0.00773  0.33397  1.0000
  C   C426      1.0  0.29857  0.95969  0.33288  1.0000
  C   C427      1.0  0.29500  0.97143  0.40248  1.0000
  C   C428      1.0  0.30577  0.99515  0.40453  1.0000
  H   H318      1.0  0.28423  0.96246  0.45328  1.0000
  C   C429      1.0  0.30075  0.00535  0.48277  1.0000
  H   H319      1.0  0.30914  0.02361  0.48042  1.0000
  H   H320      1.0  0.30596  0.00067  0.54416  1.0000
  H   H321      1.0  0.28271  0.99908  0.48622  1.0000
  C   C430      1.0  0.36449  0.03073  0.43107  1.0000
  H   H322      1.0  0.38080  0.03550  0.40150  1.0000
  H   H323      1.0  0.35436  0.01250  0.42817  1.0000
  H   H324      1.0  0.36694  0.03554  0.50145  1.0000
  C   C431      1.0  0.06171  0.72697  0.38352  1.0000
  C   C432      1.0  0.08543  0.73817  0.38449  1.0000
  H   H325      1.0  0.09324  0.73068  0.41581  1.0000
  C   C433      1.0  0.97876  0.69981  0.33301  1.0000
  C   C434      1.0  0.99052  0.71511  0.40255  1.0000
  C   C435      1.0  0.01424  0.72806  0.40445  1.0000
  H   H326      1.0  0.98157  0.71691  0.45340  1.0000
  C   C436      1.0  0.02446  0.74329  0.48263  1.0000
  H   H327      1.0  0.04272  0.75316  0.48017  1.0000
  H   H328      1.0  0.01981  0.73340  0.54405  1.0000
  H   H329      1.0  0.01820  0.75506  0.48612  1.0000
  C   C437      1.0  0.04983  0.70493  0.43079  1.0000
  H   H330      1.0  0.05460  0.69339  0.40120  1.0000
  H   H331      1.0  0.03161  0.69684  0.42801  1.0000
  H   H332      1.0  0.05467  0.70730  0.50114  1.0000
  C   C438      1.0  0.32125  0.31426  0.33814  1.0000
  C   C439      1.0  0.33133  0.33527  0.38391  1.0000
  C   C440      1.0  0.32013  0.34780  0.38489  1.0000
  H   H333      1.0  0.32761  0.36310  0.41621  1.0000
  C   C441      1.0  0.33268  0.30172  0.33420  1.0000
  C   C442      1.0  0.35850  0.27950  0.33337  1.0000
  C   C443      1.0  0.34318  0.27595  0.40291  1.0000
  C   C444      1.0  0.33023  0.28672  0.40483  1.0000
  H   H334      1.0  0.34138  0.26520  0.45377  1.0000
  C   C445      1.0  0.31499  0.28172  0.48302  1.0000
  H   H335      1.0  0.30512  0.29011  0.48056  1.0000
  H   H336      1.0  0.32487  0.28696  0.54443  1.0000
  H   H337      1.0  0.30322  0.26368  0.48652  1.0000
  C   C446      1.0  0.35336  0.34545  0.43116  1.0000
  H   H338      1.0  0.36490  0.36175  0.40156  1.0000
  H   H339      1.0  0.36146  0.33531  0.42837  1.0000
  H   H340      1.0  0.35099  0.34792  0.50151  1.0000
  C   C447      1.0  0.71797  0.95962  0.34142  1.0000
  C   C448      1.0  0.74406  0.00754  0.33831  1.0000
  C   C449      1.0  0.72303  0.99660  0.38411  1.0000
  C   C450      1.0  0.71051  0.97288  0.38516  1.0000
  H   H341      1.0  0.69520  0.96507  0.41650  1.0000
  C   C451      1.0  0.75659  0.03151  0.33429  1.0000
  C   C452      1.0  0.77881  0.07955  0.33329  1.0000
  C   C453      1.0  0.78236  0.06779  0.40287  1.0000
  C   C454      1.0  0.77158  0.04407  0.40487  1.0000
  H   H342      1.0  0.79311  0.07675  0.45368  1.0000
  C   C455      1.0  0.77658  0.03385  0.48309  1.0000
  H   H343      1.0  0.76819  0.01560  0.48070  1.0000
  H   H344      1.0  0.77134  0.03851  0.54449  1.0000
  H   H345      1.0  0.79462  0.04012  0.48654  1.0000
  C   C456      1.0  0.71285  0.00847  0.43135  1.0000
  H   H346      1.0  0.69656  0.00371  0.40177  1.0000
  H   H347      1.0  0.72299  0.02670  0.42851  1.0000
  H   H348      1.0  0.71038  0.00364  0.50171  1.0000
