data_image0
_chemical_formula_structural       C6H4C3HNO2C6HNOC19H12C3HNO2HNO3C6H4C3HNO2C6HNOC19H12C3HNO2HNO3C6H4C3HNO2C6HNOC19H12C3HNO2HNO3C6H4C3HNO2C6HNOC19H12C3HNO2HNO3C6H4C3HNO2C6HNOC19H12C3HNO2HNO3C6H4C3HNO2C6HNOC19H12C3HNO2HNO3C6H4C3HNO2C6HNOC19H12C3HNO2HNO3C6H4C3HNO2C6HNOC19H12C3HNO2HNO3C6H4C3HNO2C6HNOC19H12C3HNO2HNO3
_chemical_formula_sum              "C333 H180 N36 O72"
_cell_length_a       36.4439
_cell_length_b       36.4445
_cell_length_c       15.079
_cell_angle_alpha    90
_cell_angle_beta     90
_cell_angle_gamma    90.0697

_space_group_name_H-M_alt    "P 1"
_space_group_IT_number       1

loop_
  _space_group_symop_operation_xyz
  'x, y, z'

loop_
  _atom_site_type_symbol
  _atom_site_label
  _atom_site_symmetry_multiplicity
  _atom_site_fract_x
  _atom_site_fract_y
  _atom_site_fract_z
  _atom_site_occupancy
  C   C1        1.0  0.07189  0.02798  0.05485  1.0000
  C   C2        1.0  0.08852  0.32764  0.07740  1.0000
  C   C3        1.0  0.07224  0.29469  0.04771  1.0000
  C   C4        1.0  0.25927  0.29773  0.06002  1.0000
  C   C5        1.0  0.24277  0.99775  0.08604  1.0000
  C   C6        1.0  0.25864  0.03112  0.05789  1.0000
  H   H1        1.0  0.08412  0.05231  0.07190  1.0000
  H   H2        1.0  0.08487  0.27001  0.05879  1.0000
  H   H3        1.0  0.24717  0.27316  0.07548  1.0000
  H   H4        1.0  0.24599  0.05555  0.07172  1.0000
  C   C7        1.0  0.99388  0.20383  0.35406  1.0000
  C   C8        1.0  0.99583  0.18389  0.27366  1.0000
  C   C9        1.0  0.33030  0.14502  0.27772  1.0000
  H   H5        1.0  0.33152  0.13018  0.22018  1.0000
  N   N1        1.0  0.99661  0.20327  0.19236  1.0000
  O   O1        1.0  0.02565  0.19689  0.15019  1.0000
  O   O2        1.0  0.96979  0.19482  0.14411  1.0000
  C   C10       1.0  0.12702  0.99449  0.08420  1.0000
  C   C11       1.0  0.14741  0.99599  0.00415  1.0000
  C   C12       1.0  0.18576  0.99727  0.00919  1.0000
  C   C13       1.0  0.20419  0.99701  0.09158  1.0000
  C   C14       1.0  0.18402  0.99521  0.17168  1.0000
  C   C15       1.0  0.14516  0.99415  0.16701  1.0000
  H   H6        1.0  0.13015  0.99311  0.22432  1.0000
  N   N2        1.0  0.20316  0.99460  0.25332  1.0000
  O   O3        1.0  0.19655  0.96566  0.29574  1.0000
  C   C16       1.0  0.32695  0.24240  0.36020  1.0000
  C   C17       1.0  0.29412  0.25856  0.39075  1.0000
  C   C18       1.0  0.29545  0.28677  0.45400  1.0000
  C   C19       1.0  0.32932  0.29972  0.48858  1.0000
  C   C20       1.0  0.02843  0.28712  0.44624  1.0000
  C   C21       1.0  0.02744  0.25860  0.38382  1.0000
  C   C22       1.0  0.33072  0.99743  0.55582  1.0000
  C   C23       1.0  0.33090  0.02939  0.49103  1.0000
  C   C24       1.0  0.03079  0.04314  0.45458  1.0000
  C   C25       1.0  0.03088  0.07242  0.39414  1.0000
  C   C26       1.0  0.33076  0.08808  0.36635  1.0000
  C   C27       1.0  0.29745  0.07117  0.39121  1.0000
  C   C28       1.0  0.29772  0.04223  0.45254  1.0000
  C   C29       1.0  0.29983  0.99767  0.62354  1.0000
  C   C30       1.0  0.02948  0.32957  0.62016  1.0000
  C   C31       1.0  0.04260  0.02878  0.66123  1.0000
  C   C32       1.0  0.04304  0.29579  0.65378  1.0000
  C   C33       1.0  0.28746  0.29789  0.66334  1.0000
  C   C34       1.0  0.28682  0.03093  0.66116  1.0000
  H   H7        1.0  0.03263  0.05384  0.64285  1.0000
  H   H8        1.0  0.03330  0.27137  0.63016  1.0000
  H   H9        1.0  0.29707  0.27311  0.64177  1.0000
  H   H10       1.0  0.29609  0.05567  0.63846  1.0000
  H   H11       1.0  0.27298  0.03221  0.47335  1.0000
  H   H12       1.0  0.27282  0.08326  0.37654  1.0000
  H   H13       1.0  0.05528  0.08522  0.38052  1.0000
  H   H14       1.0  0.05558  0.03361  0.47619  1.0000
  H   H15       1.0  0.05357  0.29673  0.46535  1.0000
  H   H16       1.0  0.27110  0.29622  0.47860  1.0000
  H   H17       1.0  0.26938  0.24610  0.37902  1.0000
  H   H18       1.0  0.05172  0.24647  0.36610  1.0000
  C   C35       1.0  0.32993  0.12664  0.36023  1.0000
  C   C36       1.0  0.32847  0.14682  0.44059  1.0000
  C   C37       1.0  0.99368  0.18518  0.43616  1.0000
  H   H19       1.0  0.99281  0.19958  0.49460  1.0000
  N   N3        1.0  0.32859  0.12884  0.52422  1.0000
  O   O4        1.0  0.29998  0.13543  0.56789  1.0000
  O   O5        1.0  0.35609  0.13757  0.56991  1.0000
  H   H20       1.0  0.20031  0.99829  0.61765  1.0000
  N   N4        1.0  0.12963  0.99628  0.58692  1.0000
  O   O6        1.0  0.13651  0.02504  0.54405  1.0000
  O   O7        1.0  0.13832  0.96894  0.54070  1.0000
  O   O8        1.0  0.19465  0.02152  0.30111  1.0000
  C   C38       1.0  0.07189  0.36132  0.05485  1.0000
  C   C39       1.0  0.08852  0.66097  0.07740  1.0000
  C   C40       1.0  0.07224  0.62802  0.04771  1.0000
  C   C41       1.0  0.25927  0.63107  0.06002  1.0000
  C   C42       1.0  0.24277  0.33108  0.08604  1.0000
  C   C43       1.0  0.25864  0.36446  0.05789  1.0000
  H   H21       1.0  0.08412  0.38564  0.07190  1.0000
  H   H22       1.0  0.08487  0.60335  0.05879  1.0000
  H   H23       1.0  0.24717  0.60649  0.07548  1.0000
  H   H24       1.0  0.24599  0.38888  0.07172  1.0000
  C   C44       1.0  0.99388  0.53717  0.35406  1.0000
  C   C45       1.0  0.99583  0.51722  0.27366  1.0000
  C   C46       1.0  0.33029  0.47835  0.27772  1.0000
  H   H25       1.0  0.33152  0.46351  0.22018  1.0000
  N   N5        1.0  0.99661  0.53660  0.19236  1.0000
  O   O9        1.0  0.02565  0.53022  0.15019  1.0000
  O   O10       1.0  0.96979  0.52816  0.14411  1.0000
  C   C47       1.0  0.12702  0.32782  0.08420  1.0000
  C   C48       1.0  0.14741  0.32932  0.00415  1.0000
  C   C49       1.0  0.18576  0.33060  0.00919  1.0000
  C   C50       1.0  0.20419  0.33035  0.09158  1.0000
  C   C51       1.0  0.18402  0.32855  0.17168  1.0000
  C   C52       1.0  0.14516  0.32748  0.16701  1.0000
  H   H26       1.0  0.13015  0.32644  0.22432  1.0000
  N   N6        1.0  0.20316  0.32793  0.25332  1.0000
  O   O11       1.0  0.19655  0.29899  0.29574  1.0000
  C   C53       1.0  0.32695  0.57574  0.36020  1.0000
  C   C54       1.0  0.29412  0.59189  0.39075  1.0000
  C   C55       1.0  0.29545  0.62010  0.45400  1.0000
  C   C56       1.0  0.32932  0.63306  0.48858  1.0000
  C   C57       1.0  0.02843  0.62045  0.44624  1.0000
  C   C58       1.0  0.02744  0.59193  0.38382  1.0000
  C   C59       1.0  0.33073  0.33076  0.55582  1.0000
  C   C60       1.0  0.33090  0.36272  0.49103  1.0000
  C   C61       1.0  0.03079  0.37648  0.45458  1.0000
  C   C62       1.0  0.03088  0.40575  0.39414  1.0000
  C   C63       1.0  0.33076  0.42141  0.36635  1.0000
  C   C64       1.0  0.29745  0.40451  0.39121  1.0000
  C   C65       1.0  0.29772  0.37556  0.45254  1.0000
  C   C66       1.0  0.29983  0.33100  0.62354  1.0000
  C   C67       1.0  0.02948  0.66290  0.62016  1.0000
  C   C68       1.0  0.04260  0.36211  0.66123  1.0000
  C   C69       1.0  0.04304  0.62912  0.65378  1.0000
  C   C70       1.0  0.28746  0.63122  0.66334  1.0000
  C   C71       1.0  0.28682  0.36426  0.66116  1.0000
  H   H27       1.0  0.03263  0.38717  0.64285  1.0000
  H   H28       1.0  0.03330  0.60470  0.63016  1.0000
  H   H29       1.0  0.29707  0.60644  0.64177  1.0000
  H   H30       1.0  0.29609  0.38900  0.63846  1.0000
  H   H31       1.0  0.27298  0.36554  0.47335  1.0000
  H   H32       1.0  0.27282  0.41659  0.37654  1.0000
  H   H33       1.0  0.05528  0.41855  0.38052  1.0000
  H   H34       1.0  0.05558  0.36694  0.47619  1.0000
  H   H35       1.0  0.05357  0.63007  0.46535  1.0000
  H   H36       1.0  0.27110  0.62955  0.47860  1.0000
  H   H37       1.0  0.26938  0.57944  0.37902  1.0000
  H   H38       1.0  0.05172  0.57980  0.36610  1.0000
  C   C72       1.0  0.32993  0.45997  0.36023  1.0000
  C   C73       1.0  0.32847  0.48016  0.44059  1.0000
  C   C74       1.0  0.99367  0.51851  0.43616  1.0000
  H   H39       1.0  0.99281  0.53291  0.49460  1.0000
  N   N7        1.0  0.32859  0.46218  0.52422  1.0000
  O   O12       1.0  0.29998  0.46877  0.56789  1.0000
  O   O13       1.0  0.35609  0.47090  0.56991  1.0000
  H   H40       1.0  0.20031  0.33163  0.61765  1.0000
  N   N8        1.0  0.12963  0.32961  0.58692  1.0000
  O   O14       1.0  0.13651  0.35837  0.54405  1.0000
  O   O15       1.0  0.13832  0.30227  0.54070  1.0000
  O   O16       1.0  0.19465  0.35486  0.30111  1.0000
  C   C75       1.0  0.07189  0.69465  0.05485  1.0000
  C   C76       1.0  0.08852  0.99431  0.07740  1.0000
  C   C77       1.0  0.07224  0.96135  0.04771  1.0000
  C   C78       1.0  0.25927  0.96440  0.06002  1.0000
  C   C79       1.0  0.24277  0.66441  0.08604  1.0000
  C   C80       1.0  0.25864  0.69779  0.05789  1.0000
  H   H41       1.0  0.08412  0.71898  0.07190  1.0000
  H   H42       1.0  0.08487  0.93668  0.05879  1.0000
  H   H43       1.0  0.24717  0.93982  0.07548  1.0000
  H   H44       1.0  0.24599  0.72221  0.07172  1.0000
  C   C81       1.0  0.99388  0.87050  0.35406  1.0000
  C   C82       1.0  0.99583  0.85055  0.27366  1.0000
  C   C83       1.0  0.33030  0.81168  0.27772  1.0000
  H   H45       1.0  0.33152  0.79684  0.22018  1.0000
  N   N9        1.0  0.99661  0.86993  0.19236  1.0000
  O   O17       1.0  0.02565  0.86356  0.15019  1.0000
  O   O18       1.0  0.96979  0.86149  0.14411  1.0000
  C   C84       1.0  0.12702  0.66116  0.08420  1.0000
  C   C85       1.0  0.14741  0.66265  0.00415  1.0000
  C   C86       1.0  0.18576  0.66394  0.00919  1.0000
  C   C87       1.0  0.20419  0.66368  0.09158  1.0000
  C   C88       1.0  0.18402  0.66188  0.17168  1.0000
  C   C89       1.0  0.14516  0.66081  0.16701  1.0000
  H   H46       1.0  0.13015  0.65978  0.22432  1.0000
  N   N10       1.0  0.20316  0.66126  0.25332  1.0000
  O   O19       1.0  0.19655  0.63232  0.29574  1.0000
  C   C90       1.0  0.32695  0.90907  0.36020  1.0000
  C   C91       1.0  0.29412  0.92522  0.39075  1.0000
  C   C92       1.0  0.29545  0.95343  0.45400  1.0000
  C   C93       1.0  0.32932  0.96639  0.48858  1.0000
  C   C94       1.0  0.02843  0.95379  0.44624  1.0000
  C   C95       1.0  0.02744  0.92526  0.38382  1.0000
  C   C96       1.0  0.33073  0.66410  0.55582  1.0000
  C   C97       1.0  0.33090  0.69606  0.49103  1.0000
  C   C98       1.0  0.03079  0.70981  0.45458  1.0000
  C   C99       1.0  0.03088  0.73908  0.39414  1.0000
  C   C100      1.0  0.33076  0.75474  0.36635  1.0000
  C   C101      1.0  0.29745  0.73784  0.39121  1.0000
  C   C102      1.0  0.29772  0.70890  0.45254  1.0000
  C   C103      1.0  0.29983  0.66434  0.62354  1.0000
  C   C104      1.0  0.02948  0.99623  0.62016  1.0000
  C   C105      1.0  0.04260  0.69544  0.66123  1.0000
  C   C106      1.0  0.04304  0.96245  0.65378  1.0000
  C   C107      1.0  0.28746  0.96455  0.66334  1.0000
  C   C108      1.0  0.28682  0.69759  0.66116  1.0000
  H   H47       1.0  0.03263  0.72051  0.64285  1.0000
  H   H48       1.0  0.03330  0.93803  0.63016  1.0000
  H   H49       1.0  0.29707  0.93978  0.64177  1.0000
  H   H50       1.0  0.29609  0.72233  0.63846  1.0000
  H   H51       1.0  0.27298  0.69888  0.47335  1.0000
  H   H52       1.0  0.27282  0.74993  0.37654  1.0000
  H   H53       1.0  0.05528  0.75189  0.38052  1.0000
  H   H54       1.0  0.05558  0.70027  0.47619  1.0000
  H   H55       1.0  0.05357  0.96340  0.46535  1.0000
  H   H56       1.0  0.27110  0.96288  0.47860  1.0000
  H   H57       1.0  0.26938  0.91277  0.37902  1.0000
  H   H58       1.0  0.05172  0.91313  0.36610  1.0000
  C   C109      1.0  0.32993  0.79331  0.36023  1.0000
  C   C110      1.0  0.32847  0.81349  0.44059  1.0000
  C   C111      1.0  0.99367  0.85185  0.43616  1.0000
  H   H59       1.0  0.99281  0.86624  0.49460  1.0000
  N   N11       1.0  0.32859  0.79551  0.52422  1.0000
  O   O20       1.0  0.29997  0.80210  0.56789  1.0000
  O   O21       1.0  0.35609  0.80424  0.56991  1.0000
  H   H60       1.0  0.20031  0.66496  0.61765  1.0000
  N   N12       1.0  0.12963  0.66294  0.58692  1.0000
  O   O22       1.0  0.13651  0.69171  0.54405  1.0000
  O   O23       1.0  0.13832  0.63560  0.54070  1.0000
  O   O24       1.0  0.19465  0.68819  0.30111  1.0000
  C   C112      1.0  0.40522  0.02798  0.05485  1.0000
  C   C113      1.0  0.42186  0.32764  0.07740  1.0000
  C   C114      1.0  0.40558  0.29469  0.04771  1.0000
  C   C115      1.0  0.59261  0.29773  0.06002  1.0000
  C   C116      1.0  0.57611  0.99775  0.08604  1.0000
  C   C117      1.0  0.59197  0.03112  0.05789  1.0000
  H   H61       1.0  0.41746  0.05231  0.07190  1.0000
  H   H62       1.0  0.41820  0.27001  0.05879  1.0000
  H   H63       1.0  0.58050  0.27316  0.07548  1.0000
  H   H64       1.0  0.57932  0.05555  0.07172  1.0000
  C   C118      1.0  0.32721  0.20383  0.35406  1.0000
  C   C119      1.0  0.32917  0.18389  0.27366  1.0000
  C   C120      1.0  0.66363  0.14502  0.27772  1.0000
  H   H65       1.0  0.66485  0.13018  0.22018  1.0000
  N   N13       1.0  0.32994  0.20327  0.19236  1.0000
  O   O25       1.0  0.35898  0.19689  0.15019  1.0000
  O   O26       1.0  0.30312  0.19482  0.14411  1.0000
  C   C121      1.0  0.46035  0.99449  0.08420  1.0000
  C   C122      1.0  0.48074  0.99599  0.00415  1.0000
  C   C123      1.0  0.51909  0.99727  0.00919  1.0000
  C   C124      1.0  0.53753  0.99701  0.09158  1.0000
  C   C125      1.0  0.51735  0.99521  0.17168  1.0000
  C   C126      1.0  0.47849  0.99415  0.16701  1.0000
  H   H66       1.0  0.46348  0.99311  0.22432  1.0000
  N   N14       1.0  0.53649  0.99460  0.25332  1.0000
  O   O27       1.0  0.52988  0.96566  0.29574  1.0000
  C   C127      1.0  0.66028  0.24240  0.36020  1.0000
  C   C128      1.0  0.62745  0.25856  0.39075  1.0000
  C   C129      1.0  0.62878  0.28677  0.45400  1.0000
  C   C130      1.0  0.66266  0.29972  0.48858  1.0000
  C   C131      1.0  0.36177  0.28712  0.44624  1.0000
  C   C132      1.0  0.36078  0.25860  0.38382  1.0000
  C   C133      1.0  0.66406  0.99743  0.55582  1.0000
  C   C134      1.0  0.66423  0.02939  0.49103  1.0000
  C   C135      1.0  0.36413  0.04314  0.45458  1.0000
  C   C136      1.0  0.36421  0.07242  0.39414  1.0000
  C   C137      1.0  0.66409  0.08808  0.36635  1.0000
  C   C138      1.0  0.63078  0.07117  0.39121  1.0000
  C   C139      1.0  0.63105  0.04223  0.45254  1.0000
  C   C140      1.0  0.63316  0.99767  0.62354  1.0000
  C   C141      1.0  0.36281  0.32957  0.62016  1.0000
  C   C142      1.0  0.37594  0.02878  0.66123  1.0000
  C   C143      1.0  0.37637  0.29579  0.65378  1.0000
  C   C144      1.0  0.62080  0.29789  0.66334  1.0000
  C   C145      1.0  0.62016  0.03093  0.66116  1.0000
  H   H67       1.0  0.36596  0.05384  0.64285  1.0000
  H   H68       1.0  0.36664  0.27137  0.63016  1.0000
  H   H69       1.0  0.63040  0.27311  0.64177  1.0000
  H   H70       1.0  0.62942  0.05567  0.63846  1.0000
  H   H71       1.0  0.60631  0.03221  0.47335  1.0000
  H   H72       1.0  0.60615  0.08326  0.37654  1.0000
  H   H73       1.0  0.38862  0.08522  0.38052  1.0000
  H   H74       1.0  0.38891  0.03361  0.47619  1.0000
  H   H75       1.0  0.38691  0.29673  0.46535  1.0000
  H   H76       1.0  0.60443  0.29622  0.47860  1.0000
  H   H77       1.0  0.60271  0.24610  0.37902  1.0000
  H   H78       1.0  0.38505  0.24647  0.36610  1.0000
  C   C146      1.0  0.66326  0.12664  0.36023  1.0000
  C   C147      1.0  0.66180  0.14682  0.44059  1.0000
  C   C148      1.0  0.32701  0.18518  0.43616  1.0000
  H   H79       1.0  0.32615  0.19958  0.49460  1.0000
  N   N15       1.0  0.66192  0.12884  0.52422  1.0000
  O   O28       1.0  0.63331  0.13543  0.56789  1.0000
  O   O29       1.0  0.68942  0.13757  0.56991  1.0000
  H   H80       1.0  0.53364  0.99829  0.61765  1.0000
  N   N16       1.0  0.46297  0.99628  0.58692  1.0000
  O   O30       1.0  0.46984  0.02504  0.54405  1.0000
  O   O31       1.0  0.47165  0.96894  0.54070  1.0000
  O   O32       1.0  0.52798  0.02152  0.30111  1.0000
  C   C149      1.0  0.40522  0.36132  0.05485  1.0000
  C   C150      1.0  0.42186  0.66097  0.07740  1.0000
  C   C151      1.0  0.40558  0.62802  0.04771  1.0000
  C   C152      1.0  0.59261  0.63107  0.06002  1.0000
  C   C153      1.0  0.57611  0.33108  0.08604  1.0000
  C   C154      1.0  0.59197  0.36446  0.05789  1.0000
  H   H81       1.0  0.41746  0.38564  0.07190  1.0000
  H   H82       1.0  0.41820  0.60335  0.05879  1.0000
  H   H83       1.0  0.58050  0.60649  0.07548  1.0000
  H   H84       1.0  0.57932  0.38888  0.07172  1.0000
  C   C155      1.0  0.32721  0.53717  0.35406  1.0000
  C   C156      1.0  0.32917  0.51722  0.27366  1.0000
  C   C157      1.0  0.66363  0.47835  0.27772  1.0000
  H   H85       1.0  0.66485  0.46351  0.22018  1.0000
  N   N17       1.0  0.32994  0.53660  0.19236  1.0000
  O   O33       1.0  0.35898  0.53022  0.15019  1.0000
  O   O34       1.0  0.30312  0.52816  0.14411  1.0000
  C   C158      1.0  0.46035  0.32782  0.08420  1.0000
  C   C159      1.0  0.48074  0.32932  0.00415  1.0000
  C   C160      1.0  0.51909  0.33060  0.00919  1.0000
  C   C161      1.0  0.53752  0.33035  0.09158  1.0000
  C   C162      1.0  0.51735  0.32855  0.17168  1.0000
  C   C163      1.0  0.47849  0.32748  0.16701  1.0000
  H   H86       1.0  0.46348  0.32644  0.22432  1.0000
  N   N18       1.0  0.53649  0.32793  0.25332  1.0000
  O   O35       1.0  0.52988  0.29899  0.29574  1.0000
  C   C164      1.0  0.66028  0.57574  0.36020  1.0000
  C   C165      1.0  0.62745  0.59189  0.39075  1.0000
  C   C166      1.0  0.62878  0.62010  0.45400  1.0000
  C   C167      1.0  0.66266  0.63306  0.48858  1.0000
  C   C168      1.0  0.36177  0.62045  0.44624  1.0000
  C   C169      1.0  0.36077  0.59193  0.38382  1.0000
  C   C170      1.0  0.66406  0.33076  0.55582  1.0000
  C   C171      1.0  0.66424  0.36272  0.49103  1.0000
  C   C172      1.0  0.36413  0.37648  0.45458  1.0000
  C   C173      1.0  0.36421  0.40575  0.39414  1.0000
  C   C174      1.0  0.66409  0.42141  0.36635  1.0000
  C   C175      1.0  0.63078  0.40451  0.39121  1.0000
  C   C176      1.0  0.63105  0.37556  0.45254  1.0000
  C   C177      1.0  0.63316  0.33100  0.62354  1.0000
  C   C178      1.0  0.36281  0.66290  0.62016  1.0000
  C   C179      1.0  0.37594  0.36211  0.66123  1.0000
  C   C180      1.0  0.37637  0.62912  0.65378  1.0000
  C   C181      1.0  0.62079  0.63122  0.66334  1.0000
  C   C182      1.0  0.62016  0.36426  0.66116  1.0000
  H   H87       1.0  0.36596  0.38717  0.64285  1.0000
  H   H88       1.0  0.36664  0.60470  0.63016  1.0000
  H   H89       1.0  0.63040  0.60644  0.64177  1.0000
  H   H90       1.0  0.62942  0.38900  0.63846  1.0000
  H   H91       1.0  0.60631  0.36554  0.47335  1.0000
  H   H92       1.0  0.60615  0.41659  0.37654  1.0000
  H   H93       1.0  0.38861  0.41855  0.38052  1.0000
  H   H94       1.0  0.38891  0.36694  0.47619  1.0000
  H   H95       1.0  0.38690  0.63007  0.46535  1.0000
  H   H96       1.0  0.60444  0.62955  0.47860  1.0000
  H   H97       1.0  0.60271  0.57944  0.37902  1.0000
  H   H98       1.0  0.38505  0.57980  0.36610  1.0000
  C   C183      1.0  0.66327  0.45997  0.36023  1.0000
  C   C184      1.0  0.66180  0.48016  0.44059  1.0000
  C   C185      1.0  0.32701  0.51851  0.43616  1.0000
  H   H99       1.0  0.32615  0.53291  0.49460  1.0000
  N   N19       1.0  0.66192  0.46218  0.52422  1.0000
  O   O36       1.0  0.63331  0.46877  0.56789  1.0000
  O   O37       1.0  0.68942  0.47090  0.56991  1.0000
  H   H100      1.0  0.53364  0.33163  0.61765  1.0000
  N   N20       1.0  0.46297  0.32961  0.58692  1.0000
  O   O38       1.0  0.46984  0.35837  0.54405  1.0000
  O   O39       1.0  0.47165  0.30227  0.54070  1.0000
  O   O40       1.0  0.52798  0.35486  0.30111  1.0000
  C   C186      1.0  0.40522  0.69465  0.05485  1.0000
  C   C187      1.0  0.42186  0.99431  0.07740  1.0000
  C   C188      1.0  0.40558  0.96135  0.04771  1.0000
  C   C189      1.0  0.59261  0.96440  0.06002  1.0000
  C   C190      1.0  0.57611  0.66441  0.08604  1.0000
  C   C191      1.0  0.59197  0.69779  0.05789  1.0000
  H   H101      1.0  0.41746  0.71898  0.07190  1.0000
  H   H102      1.0  0.41820  0.93668  0.05879  1.0000
  H   H103      1.0  0.58050  0.93982  0.07548  1.0000
  H   H104      1.0  0.57932  0.72221  0.07172  1.0000
  C   C192      1.0  0.32721  0.87050  0.35406  1.0000
  C   C193      1.0  0.32917  0.85055  0.27366  1.0000
  C   C194      1.0  0.66363  0.81168  0.27772  1.0000
  H   H105      1.0  0.66486  0.79684  0.22018  1.0000
  N   N21       1.0  0.32994  0.86993  0.19236  1.0000
  O   O41       1.0  0.35898  0.86356  0.15019  1.0000
  O   O42       1.0  0.30312  0.86149  0.14411  1.0000
  C   C195      1.0  0.46035  0.66116  0.08420  1.0000
  C   C196      1.0  0.48074  0.66265  0.00415  1.0000
  C   C197      1.0  0.51909  0.66394  0.00919  1.0000
  C   C198      1.0  0.53752  0.66368  0.09158  1.0000
  C   C199      1.0  0.51735  0.66188  0.17168  1.0000
  C   C200      1.0  0.47849  0.66081  0.16701  1.0000
  H   H106      1.0  0.46348  0.65978  0.22432  1.0000
  N   N22       1.0  0.53649  0.66126  0.25332  1.0000
  O   O43       1.0  0.52988  0.63232  0.29574  1.0000
  C   C201      1.0  0.66028  0.90907  0.36020  1.0000
  C   C202      1.0  0.62745  0.92522  0.39075  1.0000
  C   C203      1.0  0.62878  0.95343  0.45400  1.0000
  C   C204      1.0  0.66266  0.96639  0.48858  1.0000
  C   C205      1.0  0.36177  0.95379  0.44624  1.0000
  C   C206      1.0  0.36077  0.92526  0.38382  1.0000
  C   C207      1.0  0.66406  0.66410  0.55582  1.0000
  C   C208      1.0  0.66424  0.69606  0.49103  1.0000
  C   C209      1.0  0.36413  0.70981  0.45458  1.0000
  C   C210      1.0  0.36421  0.73908  0.39414  1.0000
  C   C211      1.0  0.66409  0.75474  0.36635  1.0000
  C   C212      1.0  0.63078  0.73784  0.39121  1.0000
  C   C213      1.0  0.63106  0.70890  0.45254  1.0000
  C   C214      1.0  0.63316  0.66434  0.62354  1.0000
  C   C215      1.0  0.36281  0.99623  0.62016  1.0000
  C   C216      1.0  0.37594  0.69544  0.66123  1.0000
  C   C217      1.0  0.37637  0.96245  0.65378  1.0000
  C   C218      1.0  0.62079  0.96455  0.66334  1.0000
  C   C219      1.0  0.62015  0.69759  0.66116  1.0000
  H   H107      1.0  0.36596  0.72051  0.64285  1.0000
  H   H108      1.0  0.36664  0.93803  0.63016  1.0000
  H   H109      1.0  0.63040  0.93978  0.64177  1.0000
  H   H110      1.0  0.62942  0.72233  0.63846  1.0000
  H   H111      1.0  0.60631  0.69888  0.47335  1.0000
  H   H112      1.0  0.60615  0.74993  0.37654  1.0000
  H   H113      1.0  0.38861  0.75189  0.38052  1.0000
  H   H114      1.0  0.38891  0.70027  0.47619  1.0000
  H   H115      1.0  0.38690  0.96340  0.46535  1.0000
  H   H116      1.0  0.60444  0.96288  0.47860  1.0000
  H   H117      1.0  0.60271  0.91277  0.37902  1.0000
  H   H118      1.0  0.38505  0.91313  0.36610  1.0000
  C   C220      1.0  0.66326  0.79331  0.36023  1.0000
  C   C221      1.0  0.66180  0.81349  0.44059  1.0000
  C   C222      1.0  0.32701  0.85185  0.43616  1.0000
  H   H119      1.0  0.32615  0.86624  0.49460  1.0000
  N   N23       1.0  0.66192  0.79551  0.52422  1.0000
  O   O44       1.0  0.63331  0.80210  0.56789  1.0000
  O   O45       1.0  0.68942  0.80424  0.56991  1.0000
  H   H120      1.0  0.53364  0.66496  0.61765  1.0000
  N   N24       1.0  0.46297  0.66294  0.58692  1.0000
  O   O46       1.0  0.46984  0.69171  0.54405  1.0000
  O   O47       1.0  0.47165  0.63560  0.54070  1.0000
  O   O48       1.0  0.52798  0.68819  0.30111  1.0000
  C   C223      1.0  0.73856  0.02798  0.05485  1.0000
  C   C224      1.0  0.75519  0.32764  0.07740  1.0000
  C   C225      1.0  0.73891  0.29469  0.04771  1.0000
  C   C226      1.0  0.92594  0.29773  0.06002  1.0000
  C   C227      1.0  0.90944  0.99775  0.08604  1.0000
  C   C228      1.0  0.92530  0.03112  0.05789  1.0000
  H   H121      1.0  0.75079  0.05231  0.07190  1.0000
  H   H122      1.0  0.75153  0.27001  0.05879  1.0000
  H   H123      1.0  0.91384  0.27316  0.07548  1.0000
  H   H124      1.0  0.91266  0.05555  0.07172  1.0000
  C   C229      1.0  0.66055  0.20383  0.35406  1.0000
  C   C230      1.0  0.66250  0.18389  0.27366  1.0000
  C   C231      1.0  0.99696  0.14502  0.27772  1.0000
  H   H125      1.0  0.99819  0.13018  0.22018  1.0000
  N   N25       1.0  0.66328  0.20327  0.19236  1.0000
  O   O49       1.0  0.69231  0.19689  0.15019  1.0000
  O   O50       1.0  0.63646  0.19482  0.14411  1.0000
  C   C232      1.0  0.79369  0.99449  0.08420  1.0000
  C   C233      1.0  0.81407  0.99599  0.00415  1.0000
  C   C234      1.0  0.85242  0.99727  0.00919  1.0000
  C   C235      1.0  0.87086  0.99701  0.09158  1.0000
  C   C236      1.0  0.85068  0.99521  0.17168  1.0000
  C   C237      1.0  0.81183  0.99415  0.16701  1.0000
  H   H126      1.0  0.79681  0.99311  0.22432  1.0000
  N   N26       1.0  0.86982  0.99460  0.25332  1.0000
  O   O51       1.0  0.86321  0.96566  0.29574  1.0000
  C   C238      1.0  0.99361  0.24240  0.36020  1.0000
  C   C239      1.0  0.96079  0.25856  0.39075  1.0000
  C   C240      1.0  0.96212  0.28677  0.45400  1.0000
  C   C241      1.0  0.99599  0.29972  0.48858  1.0000
  C   C242      1.0  0.69510  0.28712  0.44624  1.0000
  C   C243      1.0  0.69411  0.25860  0.38382  1.0000
  C   C244      1.0  0.99739  0.99743  0.55582  1.0000
  C   C245      1.0  0.99757  0.02939  0.49103  1.0000
  C   C246      1.0  0.69746  0.04314  0.45458  1.0000
  C   C247      1.0  0.69755  0.07242  0.39414  1.0000
  C   C248      1.0  0.99742  0.08808  0.36635  1.0000
  C   C249      1.0  0.96412  0.07117  0.39121  1.0000
  C   C250      1.0  0.96439  0.04223  0.45254  1.0000
  C   C251      1.0  0.96649  0.99767  0.62354  1.0000
  C   C252      1.0  0.69614  0.32957  0.62016  1.0000
  C   C253      1.0  0.70927  0.02878  0.66123  1.0000
  C   C254      1.0  0.70971  0.29579  0.65378  1.0000
  C   C255      1.0  0.95413  0.29789  0.66334  1.0000
  C   C256      1.0  0.95349  0.03093  0.66116  1.0000
  H   H127      1.0  0.69929  0.05384  0.64285  1.0000
  H   H128      1.0  0.69997  0.27137  0.63016  1.0000
  H   H129      1.0  0.96374  0.27311  0.64177  1.0000
  H   H130      1.0  0.96276  0.05567  0.63846  1.0000
  H   H131      1.0  0.93964  0.03221  0.47335  1.0000
  H   H132      1.0  0.93948  0.08326  0.37654  1.0000
  H   H133      1.0  0.72195  0.08522  0.38052  1.0000
  H   H134      1.0  0.72225  0.03361  0.47619  1.0000
  H   H135      1.0  0.72024  0.29673  0.46535  1.0000
  H   H136      1.0  0.93777  0.29622  0.47860  1.0000
  H   H137      1.0  0.93604  0.24610  0.37902  1.0000
  H   H138      1.0  0.71838  0.24647  0.36610  1.0000
  C   C257      1.0  0.99660  0.12664  0.36023  1.0000
  C   C258      1.0  0.99513  0.14682  0.44059  1.0000
  C   C259      1.0  0.66034  0.18518  0.43616  1.0000
  H   H139      1.0  0.65948  0.19958  0.49460  1.0000
  N   N27       1.0  0.99525  0.12884  0.52422  1.0000
  O   O52       1.0  0.96664  0.13543  0.56789  1.0000
  O   O53       1.0  0.02275  0.13757  0.56991  1.0000
  H   H140      1.0  0.86698  0.99829  0.61765  1.0000
  N   N28       1.0  0.79630  0.99628  0.58692  1.0000
  O   O54       1.0  0.80318  0.02504  0.54405  1.0000
  O   O55       1.0  0.80499  0.96894  0.54070  1.0000
  O   O56       1.0  0.86131  0.02152  0.30111  1.0000
  C   C260      1.0  0.73855  0.36132  0.05485  1.0000
  C   C261      1.0  0.75519  0.66097  0.07740  1.0000
  C   C262      1.0  0.73891  0.62802  0.04771  1.0000
  C   C263      1.0  0.92594  0.63107  0.06002  1.0000
  C   C264      1.0  0.90944  0.33108  0.08604  1.0000
  C   C265      1.0  0.92531  0.36446  0.05789  1.0000
  H   H141      1.0  0.75079  0.38564  0.07190  1.0000
  H   H142      1.0  0.75154  0.60335  0.05879  1.0000
  H   H143      1.0  0.91384  0.60649  0.07548  1.0000
  H   H144      1.0  0.91266  0.38888  0.07172  1.0000
  C   C266      1.0  0.66055  0.53717  0.35406  1.0000
  C   C267      1.0  0.66250  0.51722  0.27366  1.0000
  C   C268      1.0  0.99696  0.47835  0.27772  1.0000
  H   H145      1.0  0.99819  0.46351  0.22018  1.0000
  N   N29       1.0  0.66328  0.53660  0.19236  1.0000
  O   O57       1.0  0.69231  0.53022  0.15019  1.0000
  O   O58       1.0  0.63646  0.52816  0.14411  1.0000
  C   C269      1.0  0.79369  0.32782  0.08420  1.0000
  C   C270      1.0  0.81407  0.32932  0.00415  1.0000
  C   C271      1.0  0.85242  0.33060  0.00919  1.0000
  C   C272      1.0  0.87086  0.33035  0.09158  1.0000
  C   C273      1.0  0.85069  0.32855  0.17168  1.0000
  C   C274      1.0  0.81182  0.32748  0.16701  1.0000
  H   H146      1.0  0.79681  0.32644  0.22432  1.0000
  N   N30       1.0  0.86983  0.32793  0.25332  1.0000
  O   O59       1.0  0.86321  0.29899  0.29574  1.0000
  C   C275      1.0  0.99361  0.57574  0.36020  1.0000
  C   C276      1.0  0.96079  0.59189  0.39075  1.0000
  C   C277      1.0  0.96211  0.62010  0.45400  1.0000
  C   C278      1.0  0.99599  0.63306  0.48858  1.0000
  C   C279      1.0  0.69510  0.62045  0.44624  1.0000
  C   C280      1.0  0.69411  0.59193  0.38382  1.0000
  C   C281      1.0  0.99739  0.33076  0.55582  1.0000
  C   C282      1.0  0.99757  0.36272  0.49103  1.0000
  C   C283      1.0  0.69746  0.37648  0.45458  1.0000
  C   C284      1.0  0.69755  0.40575  0.39414  1.0000
  C   C285      1.0  0.99742  0.42141  0.36635  1.0000
  C   C286      1.0  0.96412  0.40451  0.39121  1.0000
  C   C287      1.0  0.96439  0.37556  0.45254  1.0000
  C   C288      1.0  0.96649  0.33100  0.62354  1.0000
  C   C289      1.0  0.69614  0.66290  0.62016  1.0000
  C   C290      1.0  0.70927  0.36211  0.66123  1.0000
  C   C291      1.0  0.70971  0.62912  0.65378  1.0000
  C   C292      1.0  0.95413  0.63122  0.66334  1.0000
  C   C293      1.0  0.95349  0.36426  0.66116  1.0000
  H   H147      1.0  0.69929  0.38717  0.64285  1.0000
  H   H148      1.0  0.69997  0.60470  0.63016  1.0000
  H   H149      1.0  0.96374  0.60644  0.64177  1.0000
  H   H150      1.0  0.96276  0.38900  0.63846  1.0000
  H   H151      1.0  0.93964  0.36554  0.47335  1.0000
  H   H152      1.0  0.93948  0.41659  0.37654  1.0000
  H   H153      1.0  0.72195  0.41855  0.38052  1.0000
  H   H154      1.0  0.72225  0.36694  0.47619  1.0000
  H   H155      1.0  0.72024  0.63007  0.46535  1.0000
  H   H156      1.0  0.93777  0.62955  0.47860  1.0000
  H   H157      1.0  0.93604  0.57944  0.37902  1.0000
  H   H158      1.0  0.71838  0.57980  0.36610  1.0000
  C   C294      1.0  0.99660  0.45997  0.36023  1.0000
  C   C295      1.0  0.99513  0.48016  0.44059  1.0000
  C   C296      1.0  0.66034  0.51851  0.43616  1.0000
  H   H159      1.0  0.65948  0.53291  0.49460  1.0000
  N   N31       1.0  0.99525  0.46218  0.52422  1.0000
  O   O60       1.0  0.96664  0.46877  0.56789  1.0000
  O   O61       1.0  0.02275  0.47090  0.56991  1.0000
  H   H160      1.0  0.86697  0.33163  0.61765  1.0000
  N   N32       1.0  0.79630  0.32961  0.58692  1.0000
  O   O62       1.0  0.80318  0.35837  0.54405  1.0000
  O   O63       1.0  0.80499  0.30227  0.54070  1.0000
  O   O64       1.0  0.86131  0.35486  0.30111  1.0000
  C   C297      1.0  0.73855  0.69465  0.05485  1.0000
  C   C298      1.0  0.75519  0.99431  0.07740  1.0000
  C   C299      1.0  0.73891  0.96135  0.04771  1.0000
  C   C300      1.0  0.92594  0.96440  0.06002  1.0000
  C   C301      1.0  0.90944  0.66441  0.08604  1.0000
  C   C302      1.0  0.92531  0.69779  0.05789  1.0000
  H   H161      1.0  0.75079  0.71898  0.07190  1.0000
  H   H162      1.0  0.75154  0.93668  0.05879  1.0000
  H   H163      1.0  0.91384  0.93982  0.07548  1.0000
  H   H164      1.0  0.91266  0.72221  0.07172  1.0000
  C   C303      1.0  0.66055  0.87050  0.35406  1.0000
  C   C304      1.0  0.66250  0.85055  0.27366  1.0000
  C   C305      1.0  0.99696  0.81168  0.27772  1.0000
  H   H165      1.0  0.99819  0.79684  0.22018  1.0000
  N   N33       1.0  0.66328  0.86993  0.19236  1.0000
  O   O65       1.0  0.69231  0.86356  0.15019  1.0000
  O   O66       1.0  0.63645  0.86149  0.14411  1.0000
  C   C306      1.0  0.79369  0.66116  0.08420  1.0000
  C   C307      1.0  0.81407  0.66265  0.00415  1.0000
  C   C308      1.0  0.85242  0.66394  0.00919  1.0000
  C   C309      1.0  0.87086  0.66368  0.09158  1.0000
  C   C310      1.0  0.85068  0.66188  0.17168  1.0000
  C   C311      1.0  0.81182  0.66081  0.16701  1.0000
  H   H166      1.0  0.79681  0.65978  0.22432  1.0000
  N   N34       1.0  0.86982  0.66126  0.25332  1.0000
  O   O67       1.0  0.86321  0.63232  0.29574  1.0000
  C   C312      1.0  0.99362  0.90907  0.36020  1.0000
  C   C313      1.0  0.96079  0.92522  0.39075  1.0000
  C   C314      1.0  0.96212  0.95343  0.45400  1.0000
  C   C315      1.0  0.99599  0.96639  0.48858  1.0000
  C   C316      1.0  0.69510  0.95379  0.44624  1.0000
  C   C317      1.0  0.69411  0.92526  0.38382  1.0000
  C   C318      1.0  0.99739  0.66410  0.55582  1.0000
  C   C319      1.0  0.99757  0.69606  0.49103  1.0000
  C   C320      1.0  0.69746  0.70981  0.45458  1.0000
  C   C321      1.0  0.69754  0.73908  0.39414  1.0000
  C   C322      1.0  0.99742  0.75474  0.36635  1.0000
  C   C323      1.0  0.96412  0.73784  0.39121  1.0000
  C   C324      1.0  0.96439  0.70890  0.45254  1.0000
  C   C325      1.0  0.96649  0.66434  0.62354  1.0000
  C   C326      1.0  0.69614  0.99623  0.62016  1.0000
  C   C327      1.0  0.70927  0.69544  0.66123  1.0000
  C   C328      1.0  0.70971  0.96245  0.65378  1.0000
  C   C329      1.0  0.95413  0.96455  0.66334  1.0000
  C   C330      1.0  0.95349  0.69759  0.66116  1.0000
  H   H167      1.0  0.69929  0.72051  0.64285  1.0000
  H   H168      1.0  0.69997  0.93803  0.63016  1.0000
  H   H169      1.0  0.96373  0.93978  0.64177  1.0000
  H   H170      1.0  0.96276  0.72233  0.63846  1.0000
  H   H171      1.0  0.93964  0.69888  0.47335  1.0000
  H   H172      1.0  0.93948  0.74993  0.37654  1.0000
  H   H173      1.0  0.72195  0.75189  0.38052  1.0000
  H   H174      1.0  0.72225  0.70027  0.47619  1.0000
  H   H175      1.0  0.72024  0.96340  0.46535  1.0000
  H   H176      1.0  0.93777  0.96288  0.47860  1.0000
  H   H177      1.0  0.93604  0.91277  0.37902  1.0000
  H   H178      1.0  0.71838  0.91313  0.36610  1.0000
  C   C331      1.0  0.99660  0.79331  0.36023  1.0000
  C   C332      1.0  0.99513  0.81349  0.44059  1.0000
  C   C333      1.0  0.66034  0.85185  0.43616  1.0000
  H   H179      1.0  0.65948  0.86624  0.49460  1.0000
  N   N35       1.0  0.99526  0.79551  0.52422  1.0000
  O   O68       1.0  0.96664  0.80210  0.56789  1.0000
  O   O69       1.0  0.02275  0.80424  0.56991  1.0000
  H   H180      1.0  0.86697  0.66496  0.61765  1.0000
  N   N36       1.0  0.79630  0.66294  0.58692  1.0000
  O   O70       1.0  0.80318  0.69171  0.54405  1.0000
  O   O71       1.0  0.80499  0.63560  0.54070  1.0000
  O   O72       1.0  0.86131  0.68819  0.30111  1.0000
