data_image0
_chemical_formula_structural       C5H3NO2C3H2C4HNO2C3H2C4HNO2C3H2C4HNO2C5H3NO2C5H3NO2C5H3NO2C5H3NO2C3H2C4HNO2C3H2C4HNO2C5H3NO2C3H2C4HNO2C3H2C4HNO2C3H2C4HNO2C5H3NO2C5H3NO2C5H3NO2C5H3NO2C3H2C4HNO2C3H2C4HNO2C5H3NO2C5H3NO2C3H2C4HNO2C3H2C4HNO2C5H3NO2C5H3NO2C3H2C4HNO2C3H2C4HNO2C5H3NO2C5H3NO2C3H2C4HNO2C3H2C4HNO2C5H3NO2C5H3NO2C3H2C4HNO2C3H2C4HNO2C6H3C6H3C6H3C6H3C6H3C6H3C6H3C6H3C6H3C6H3C6H3C6H3C6H3C6H3C6H3C6H3C6H3C6H3C6H3C6H3C6H3C6H3C6H3C6H3C3H2C4HNO2C5H3NO2C5H3NO2C5H3NO2C3H2C4HNO2C3H2C4HNO2C3H2C4HNO2C3H2C4HNO2C5H3NO2C5H3NO2C3H2C4HNO2C5H3NO2C5H3NO2C5H3NO2C3H2C4HNO2C3H2C4HNO2C3H2C4HNO2C3H2C4HNO2C5H3NO2C5H3NO2C3H2C4HNO2C3H2C4HNO2C5H3NO2C5H3NO2C3H2C4HNO2C3H2C4HNO2C5H3NO2C5H3NO2C3H2C4HNO2C3H2C4HNO2C5H3NO2C5H3NO2C3H2C4HNO2C3H2C4HNO2C5H3NO2C5H3NO2
_chemical_formula_sum              "C576 H288 N72 O144"
_cell_length_a       64.2415
_cell_length_b       81.6828
_cell_length_c       14.8723
_cell_angle_alpha    90
_cell_angle_beta     90
_cell_angle_gamma    90

_space_group_name_H-M_alt    "P 1"
_space_group_IT_number       1

loop_
  _space_group_symop_operation_xyz
  'x, y, z'

loop_
  _atom_site_type_symbol
  _atom_site_label
  _atom_site_symmetry_multiplicity
  _atom_site_fract_x
  _atom_site_fract_y
  _atom_site_fract_z
  _atom_site_occupancy
  C   C1        1.0  0.53578  0.96798  0.34135  1.0000
  C   C2        1.0  0.53984  0.98108  0.28134  1.0000
  C   C3        1.0  0.52741  0.99533  0.28083  1.0000
  C   C4        1.0  0.48363  0.01465  0.27022  1.0000
  C   C5        1.0  0.47108  0.02896  0.27185  1.0000
  H   H1        1.0  0.46094  0.03100  0.21997  1.0000
  H   H2        1.0  0.55170  0.98022  0.23567  1.0000
  H   H3        1.0  0.53080  0.00446  0.23605  1.0000
  N   N1        1.0  0.48190  0.00321  0.19902  1.0000
  O   O1        1.0  0.48639  0.00961  0.12466  1.0000
  O   O2        1.0  0.46387  0.99731  0.19429  1.0000
  C   C6        1.0  0.99803  0.49713  0.34266  1.0000
  C   C7        1.0  0.00207  0.48419  0.28200  1.0000
  C   C8        1.0  0.98977  0.46988  0.28233  1.0000
  H   H4        1.0  0.01414  0.48505  0.23736  1.0000
  H   H5        1.0  0.99317  0.46088  0.23680  1.0000
  C   C9        1.0  0.01064  0.51161  0.34266  1.0000
  C   C10       1.0  0.03593  0.54065  0.34233  1.0000
  C   C11       1.0  0.02149  0.53752  0.27276  1.0000
  C   C12       1.0  0.00907  0.52315  0.27140  1.0000
  H   H6        1.0  0.02011  0.54571  0.22101  1.0000
  N   N2        1.0  0.99483  0.52027  0.20039  1.0000
  O   O3        1.0  0.98131  0.53135  0.19573  1.0000
  O   O4        1.0  0.00400  0.51927  0.12593  1.0000
  C   C13       1.0  0.35901  0.06972  0.33312  1.0000
  C   C14       1.0  0.37057  0.07956  0.27303  1.0000
  C   C15       1.0  0.39249  0.07903  0.27222  1.0000
  H   H7        1.0  0.36311  0.08753  0.23084  1.0000
  H   H8        1.0  0.40024  0.08651  0.22833  1.0000
  C   C16       1.0  0.33683  0.07121  0.33780  1.0000
  C   C17       1.0  0.29267  0.07626  0.34273  1.0000
  C   C18       1.0  0.30218  0.06837  0.26900  1.0000
  C   C19       1.0  0.32405  0.06598  0.26512  1.0000
  H   H9        1.0  0.29324  0.06490  0.21532  1.0000
  N   N3        1.0  0.33339  0.05847  0.18935  1.0000
  O   O5        1.0  0.32674  0.04415  0.17803  1.0000
  O   O6        1.0  0.33018  0.06656  0.11881  1.0000
  C   C20       1.0  0.64961  0.93886  0.33495  1.0000
  C   C21       1.0  0.63809  0.92925  0.27358  1.0000
  C   C22       1.0  0.61616  0.92977  0.27264  1.0000
  H   H10       1.0  0.64558  0.92146  0.23050  1.0000
  H   H11       1.0  0.60845  0.92247  0.22777  1.0000
  C   C23       1.0  0.67179  0.93736  0.33958  1.0000
  C   C24       1.0  0.71595  0.93224  0.34394  1.0000
  C   C25       1.0  0.70646  0.94051  0.27140  1.0000
  C   C26       1.0  0.68459  0.94293  0.26777  1.0000
  H   H12       1.0  0.71541  0.94423  0.21826  1.0000
  N   N4        1.0  0.67528  0.95083  0.19309  1.0000
  O   O7        1.0  0.68195  0.96519  0.18394  1.0000
  O   O8        1.0  0.67850  0.94308  0.12139  1.0000
  C   C27       1.0  0.10487  0.56862  0.35275  1.0000
  C   C28       1.0  0.11656  0.55853  0.29398  1.0000
  C   C29       1.0  0.13851  0.55914  0.29253  1.0000
  C   C30       1.0  0.18122  0.57889  0.27060  1.0000
  C   C31       1.0  0.20305  0.58142  0.26956  1.0000
  H   H13       1.0  0.20958  0.58732  0.21578  1.0000
  H   H14       1.0  0.10914  0.55109  0.24887  1.0000
  H   H15       1.0  0.14639  0.55197  0.24754  1.0000
  N   N5        1.0  0.16865  0.58450  0.19859  1.0000
  O   O9        1.0  0.17358  0.57772  0.12579  1.0000
  O   O10       1.0  0.16994  0.59976  0.18891  1.0000
  C   C32       1.0  0.90369  0.43994  0.35118  1.0000
  C   C33       1.0  0.89204  0.44981  0.29111  1.0000
  C   C34       1.0  0.87008  0.44920  0.28951  1.0000
  C   C35       1.0  0.82736  0.42931  0.26994  1.0000
  C   C36       1.0  0.80554  0.42676  0.26917  1.0000
  H   H16       1.0  0.79903  0.42061  0.21619  1.0000
  H   H17       1.0  0.89950  0.45706  0.24524  1.0000
  H   H18       1.0  0.86223  0.45619  0.24361  1.0000
  N   N6        1.0  0.83996  0.42336  0.19883  1.0000
  O   O11       1.0  0.83505  0.42978  0.12503  1.0000
  O   O12       1.0  0.83869  0.40807  0.19139  1.0000
  C   C37       1.0  0.46833  0.10133  0.34795  1.0000
  C   C38       1.0  0.48502  0.10529  0.28959  1.0000
  C   C39       1.0  0.49380  0.12112  0.28869  1.0000
  C   C40       1.0  0.48959  0.16015  0.27047  1.0000
  C   C41       1.0  0.49684  0.17653  0.27040  1.0000
  H   H19       1.0  0.49296  0.18400  0.21773  1.0000
  H   H20       1.0  0.49048  0.09682  0.24476  1.0000
  H   H21       1.0  0.50556  0.12363  0.24437  1.0000
  N   N7        1.0  0.47702  0.15421  0.19924  1.0000
  O   O13       1.0  0.48650  0.15479  0.12538  1.0000
  O   O14       1.0  0.46037  0.16218  0.19237  1.0000
  C   C42       1.0  0.54035  0.90715  0.34489  1.0000
  C   C43       1.0  0.52387  0.90315  0.28555  1.0000
  C   C44       1.0  0.51509  0.88732  0.28444  1.0000
  C   C45       1.0  0.51934  0.84823  0.26792  1.0000
  C   C46       1.0  0.51207  0.83185  0.26805  1.0000
  H   H22       1.0  0.51615  0.82431  0.21597  1.0000
  H   H23       1.0  0.51855  0.91159  0.24023  1.0000
  H   H24       1.0  0.50348  0.88477  0.23947  1.0000
  N   N8        1.0  0.53219  0.85406  0.19738  1.0000
  O   O15       1.0  0.52301  0.85338  0.12285  1.0000
  O   O16       1.0  0.54886  0.84607  0.19208  1.0000
  C   C47       1.0  0.02225  0.63345  0.33680  1.0000
  C   C48       1.0  0.03865  0.62952  0.27735  1.0000
  C   C49       1.0  0.04753  0.61375  0.27718  1.0000
  H   H25       1.0  0.04455  0.63821  0.23487  1.0000
  H   H26       1.0  0.05946  0.61142  0.23348  1.0000
  C   C50       1.0  0.01408  0.64971  0.33995  1.0000
  C   C51       1.0  0.99935  0.68276  0.34293  1.0000
  C   C52       1.0  0.99429  0.67218  0.27119  1.0000
  C   C53       1.0  0.00171  0.65583  0.26819  1.0000
  H   H27       1.0  0.98565  0.67653  0.21851  1.0000
  N   N9        1.0  0.99692  0.64550  0.19452  1.0000
  O   O17       1.0  0.97763  0.64347  0.18652  1.0000
  O   O18       1.0  0.00395  0.65117  0.12205  1.0000
  C   C54       1.0  0.98626  0.37504  0.34023  1.0000
  C   C55       1.0  0.97006  0.37902  0.27983  1.0000
  C   C56       1.0  0.96118  0.39479  0.27948  1.0000
  H   H28       1.0  0.96433  0.37036  0.23670  1.0000
  H   H29       1.0  0.94941  0.39715  0.23499  1.0000
  C   C57       1.0  0.99445  0.35879  0.34332  1.0000
  C   C58       1.0  0.00917  0.32573  0.34589  1.0000
  C   C59       1.0  0.01452  0.33643  0.27504  1.0000
  C   C60       1.0  0.00711  0.35277  0.27224  1.0000
  H   H30       1.0  0.02336  0.33216  0.22278  1.0000
  N   N10       1.0  0.01219  0.36322  0.19942  1.0000
  O   O19       1.0  0.03151  0.36527  0.19296  1.0000
  O   O20       1.0  0.00546  0.35766  0.12617  1.0000
  C   C61       1.0  0.45111  0.49115  0.33429  1.0000
  C   C62       1.0  0.46601  0.48398  0.27600  1.0000
  C   C63       1.0  0.48692  0.48923  0.27537  1.0000
  C   C64       1.0  0.52318  0.51620  0.26111  1.0000
  C   C65       1.0  0.54423  0.52144  0.26284  1.0000
  H   H31       1.0  0.54982  0.52822  0.21023  1.0000
  H   H32       1.0  0.46170  0.47492  0.23234  1.0000
  H   H33       1.0  0.49718  0.48371  0.23236  1.0000
  N   N11       1.0  0.51000  0.52036  0.18819  1.0000
  O   O21       1.0  0.51669  0.51456  0.11542  1.0000
  O   O22       1.0  0.50816  0.53560  0.17999  1.0000
  C   C66       1.0  0.01482  0.00176  0.35001  1.0000
  C   C67       1.0  0.02956  0.00899  0.29168  1.0000
  C   C68       1.0  0.05052  0.00384  0.29187  1.0000
  H   H34       1.0  0.02511  0.01810  0.24849  1.0000
  H   H35       1.0  0.06059  0.00919  0.24745  1.0000
  C   C69       1.0  0.99352  0.00693  0.34985  1.0000
  C   C70       1.0  0.95090  0.01733  0.34947  1.0000
  C   C71       1.0  0.95907  0.00791  0.27817  1.0000
  C   C72       1.0  0.98019  0.00284  0.27688  1.0000
  H   H36       1.0  0.94970  0.00498  0.22491  1.0000
  N   N12       1.0  0.98816  0.99358  0.20401  1.0000
  O   O23       1.0  0.97871  0.98020  0.19543  1.0000
  O   O24       1.0  0.98692  0.00136  0.13129  1.0000
  C   C73       1.0  0.39278  0.41062  0.34346  1.0000
  C   C74       1.0  0.38166  0.42116  0.28542  1.0000
  C   C75       1.0  0.38536  0.43818  0.28589  1.0000
  H   H37       1.0  0.37075  0.41650  0.24228  1.0000
  H   H38       1.0  0.37722  0.44534  0.24180  1.0000
  C   C76       1.0  0.38919  0.39335  0.34266  1.0000
  C   C77       1.0  0.38245  0.35869  0.34199  1.0000
  C   C78       1.0  0.39335  0.36644  0.27140  1.0000
  C   C79       1.0  0.39660  0.38361  0.27027  1.0000
  H   H39       1.0  0.39882  0.35956  0.21895  1.0000
  N   N13       1.0  0.40749  0.39114  0.19844  1.0000
  O   O25       1.0  0.42574  0.38575  0.19184  1.0000
  O   O26       1.0  0.39829  0.38900  0.12478  1.0000
  C   C80       1.0  0.61568  0.59788  0.34012  1.0000
  C   C81       1.0  0.62699  0.58730  0.28302  1.0000
  C   C82       1.0  0.62326  0.57028  0.28360  1.0000
  H   H40       1.0  0.63807  0.59191  0.24061  1.0000
  H   H41       1.0  0.63158  0.56307  0.24033  1.0000
  C   C83       1.0  0.61934  0.61514  0.33944  1.0000
  C   C84       1.0  0.62614  0.64979  0.33919  1.0000
  C   C85       1.0  0.61550  0.64205  0.26785  1.0000
  C   C86       1.0  0.61222  0.62489  0.26650  1.0000
  H   H42       1.0  0.61023  0.64894  0.21503  1.0000
  N   N14       1.0  0.60160  0.61736  0.19393  1.0000
  O   O27       1.0  0.58338  0.62277  0.18599  1.0000
  O   O28       1.0  0.61109  0.61948  0.12094  1.0000
  C   C87       1.0  0.10811  0.94525  0.34033  1.0000
  C   C88       1.0  0.09701  0.93457  0.28248  1.0000
  C   C89       1.0  0.10085  0.91758  0.28210  1.0000
  C   C90       1.0  0.13022  0.88571  0.26916  1.0000
  C   C91       1.0  0.13364  0.86856  0.27097  1.0000
  H   H43       1.0  0.14136  0.86320  0.21844  1.0000
  H   H44       1.0  0.08613  0.93912  0.23894  1.0000
  H   H45       1.0  0.09248  0.91027  0.23945  1.0000
  N   N15       1.0  0.13762  0.89537  0.19675  1.0000
  O   O29       1.0  0.12959  0.89104  0.12343  1.0000
  O   O30       1.0  0.15709  0.89454  0.18978  1.0000
  C   C92       1.0  0.90065  0.06327  0.34353  1.0000
  C   C93       1.0  0.91195  0.07399  0.28668  1.0000
  C   C94       1.0  0.90809  0.09098  0.28639  1.0000
  C   C95       1.0  0.87869  0.12278  0.27165  1.0000
  C   C96       1.0  0.87522  0.13992  0.27326  1.0000
  H   H46       1.0  0.86770  0.14528  0.22020  1.0000
  H   H47       1.0  0.92297  0.06948  0.24368  1.0000
  H   H48       1.0  0.91659  0.09832  0.24440  1.0000
  N   N16       1.0  0.87160  0.11312  0.19866  1.0000
  O   O31       1.0  0.87990  0.11747  0.12596  1.0000
  O   O32       1.0  0.85216  0.11392  0.19025  1.0000
  C   C97       1.0  0.29092  0.56032  0.34609  1.0000
  C   C98       1.0  0.29046  0.54658  0.28790  1.0000
  C   C99       1.0  0.30684  0.53507  0.28661  1.0000
  C   C100      1.0  0.35525  0.52498  0.26974  1.0000
  C   C101      1.0  0.37218  0.51383  0.27047  1.0000
  H   H49       1.0  0.38231  0.51377  0.21732  1.0000
  H   H50       1.0  0.27840  0.54508  0.24374  1.0000
  H   H51       1.0  0.30605  0.52542  0.24286  1.0000
  N   N17       1.0  0.35253  0.53608  0.19746  1.0000
  O   O33       1.0  0.34980  0.52867  0.12436  1.0000
  O   O34       1.0  0.36789  0.54550  0.18935  1.0000
  C   C102      1.0  0.71764  0.44823  0.34654  1.0000
  C   C103      1.0  0.71809  0.46200  0.28857  1.0000
  C   C104      1.0  0.70171  0.47352  0.28761  1.0000
  C   C105      1.0  0.65345  0.48369  0.27033  1.0000
  C   C106      1.0  0.63650  0.49483  0.27105  1.0000
  H   H52       1.0  0.62648  0.49497  0.21753  1.0000
  H   H53       1.0  0.73013  0.46352  0.24433  1.0000
  H   H54       1.0  0.70250  0.48319  0.24398  1.0000
  N   N18       1.0  0.65633  0.47273  0.19751  1.0000
  O   O35       1.0  0.65921  0.48029  0.12495  1.0000
  O   O36       1.0  0.64101  0.46332  0.18826  1.0000
  C   C107      1.0  0.18440  0.03677  0.33942  1.0000
  C   C108      1.0  0.18397  0.05029  0.28024  1.0000
  C   C109      1.0  0.20025  0.06187  0.27978  1.0000
  H   H55       1.0  0.17163  0.05193  0.23767  1.0000
  H   H56       1.0  0.19929  0.07147  0.23578  1.0000
  C   C110      1.0  0.16760  0.02525  0.34098  1.0000
  C   C111      1.0  0.13347  0.00258  0.34242  1.0000
  C   C112      1.0  0.14790  0.00285  0.27081  1.0000
  C   C113      1.0  0.16468  0.01413  0.26853  1.0000
  H   H57       1.0  0.14601  0.99491  0.21816  1.0000
  N   N19       1.0  0.17878  0.01432  0.19526  1.0000
  O   O37       1.0  0.18805  0.00086  0.18709  1.0000
  O   O38       1.0  0.16966  0.01756  0.12264  1.0000
  C   C114      1.0  0.82420  0.97181  0.33837  1.0000
  C   C115      1.0  0.82462  0.95824  0.27943  1.0000
  C   C116      1.0  0.80835  0.94666  0.27927  1.0000
  H   H58       1.0  0.83695  0.95657  0.23686  1.0000
  H   H59       1.0  0.80930  0.93703  0.23545  1.0000
  C   C117      1.0  0.84103  0.98331  0.33985  1.0000
  C   C118      1.0  0.87518  0.00594  0.34132  1.0000
  C   C119      1.0  0.86091  0.00557  0.26917  1.0000
  C   C120      1.0  0.84412  0.99429  0.26687  1.0000
  H   H60       1.0  0.86292  0.01342  0.21624  1.0000
  N   N20       1.0  0.83018  0.99397  0.19306  1.0000
  O   O39       1.0  0.82096  0.00743  0.18376  1.0000
  O   O40       1.0  0.83946  0.99059  0.12100  1.0000
  C   C121      1.0  0.21625  0.20437  0.34878  1.0000
  C   C122      1.0  0.20570  0.19386  0.28822  1.0000
  C   C123      1.0  0.20966  0.17690  0.28706  1.0000
  C   C124      1.0  0.24048  0.14611  0.27313  1.0000
  C   C125      1.0  0.24541  0.12920  0.27324  1.0000
  H   H61       1.0  0.25409  0.12454  0.22150  1.0000
  H   H62       1.0  0.19540  0.19854  0.24252  1.0000
  H   H63       1.0  0.20195  0.16970  0.24165  1.0000
  N   N21       1.0  0.24762  0.15649  0.20324  1.0000
  O   O41       1.0  0.24057  0.15212  0.12815  1.0000
  O   O42       1.0  0.26716  0.15674  0.19918  1.0000
  C   C126      1.0  0.79234  0.80415  0.34850  1.0000
  C   C127      1.0  0.80291  0.81467  0.28809  1.0000
  C   C128      1.0  0.79897  0.83164  0.28704  1.0000
  C   C129      1.0  0.76824  0.86246  0.27300  1.0000
  C   C130      1.0  0.76332  0.87936  0.27318  1.0000
  H   H64       1.0  0.75469  0.88404  0.22135  1.0000
  H   H65       1.0  0.81323  0.80999  0.24239  1.0000
  H   H66       1.0  0.80671  0.83884  0.24173  1.0000
  N   N22       1.0  0.76116  0.85210  0.20288  1.0000
  O   O43       1.0  0.76829  0.85649  0.12796  1.0000
  O   O44       1.0  0.74163  0.85187  0.19844  1.0000
  C   C131      1.0  0.28443  0.66987  0.33662  1.0000
  C   C132      1.0  0.27401  0.68023  0.27535  1.0000
  C   C133      1.0  0.27786  0.69721  0.27487  1.0000
  H   H67       1.0  0.26333  0.67552  0.23132  1.0000
  H   H68       1.0  0.27004  0.70430  0.22935  1.0000
  C   C134      1.0  0.27999  0.65277  0.33894  1.0000
  C   C135      1.0  0.27012  0.61867  0.34157  1.0000
  C   C136      1.0  0.28216  0.62542  0.27143  1.0000
  C   C137      1.0  0.28696  0.64235  0.26861  1.0000
  H   H69       1.0  0.28710  0.61804  0.22005  1.0000
  N   N23       1.0  0.29874  0.64900  0.19682  1.0000
  O   O45       1.0  0.31651  0.64263  0.19230  1.0000
  O   O46       1.0  0.28968  0.64707  0.12267  1.0000
  C   C138      1.0  0.72411  0.33865  0.33666  1.0000
  C   C139      1.0  0.73456  0.32828  0.27553  1.0000
  C   C140      1.0  0.73074  0.31131  0.27516  1.0000
  H   H70       1.0  0.74525  0.33299  0.23153  1.0000
  H   H71       1.0  0.73857  0.30420  0.22973  1.0000
  C   C141      1.0  0.72854  0.35576  0.33890  1.0000
  C   C142      1.0  0.73838  0.38987  0.34140  1.0000
  C   C143      1.0  0.72642  0.38309  0.27109  1.0000
  C   C144      1.0  0.72164  0.36616  0.26833  1.0000
  H   H72       1.0  0.72153  0.39045  0.21954  1.0000
  N   N24       1.0  0.70994  0.35948  0.19636  1.0000
  O   O47       1.0  0.69217  0.36584  0.19142  1.0000
  O   O48       1.0  0.71908  0.36139  0.12238  1.0000
  C   C145      1.0  0.24450  0.26075  0.34548  1.0000
  C   C146      1.0  0.26161  0.25803  0.28730  1.0000
  C   C147      1.0  0.27908  0.26844  0.28819  1.0000
  C   C148      1.0  0.30353  0.30222  0.27760  1.0000
  C   C149      1.0  0.32228  0.31135  0.28027  1.0000
  H   H73       1.0  0.32633  0.31832  0.22580  1.0000
  H   H74       1.0  0.26149  0.24843  0.24308  1.0000
  H   H75       1.0  0.29126  0.26595  0.24601  1.0000
  N   N25       1.0  0.29012  0.30311  0.20209  1.0000
  O   O49       1.0  0.29905  0.29833  0.13162  1.0000
  O   O50       1.0  0.28357  0.31743  0.18988  1.0000
  C   C150      1.0  0.76406  0.74778  0.34482  1.0000
  C   C151      1.0  0.74695  0.75052  0.28662  1.0000
  C   C152      1.0  0.72950  0.74010  0.28735  1.0000
  C   C153      1.0  0.70509  0.70629  0.27626  1.0000
  C   C154      1.0  0.68635  0.69715  0.27872  1.0000
  H   H76       1.0  0.68233  0.69020  0.22414  1.0000
  H   H77       1.0  0.74708  0.76012  0.24249  1.0000
  H   H78       1.0  0.71732  0.74259  0.24513  1.0000
  N   N26       1.0  0.71852  0.70544  0.20081  1.0000
  O   O51       1.0  0.70961  0.71024  0.13034  1.0000
  O   O52       1.0  0.72510  0.69113  0.18850  1.0000
  C   C155      1.0  0.22858  0.78191  0.33628  1.0000
  C   C156      1.0  0.24560  0.78476  0.27822  1.0000
  C   C157      1.0  0.26311  0.77438  0.27964  1.0000
  H   H79       1.0  0.24529  0.79434  0.23397  1.0000
  H   H80       1.0  0.27494  0.77663  0.23527  1.0000
  C   C158      1.0  0.21041  0.79193  0.33265  1.0000
  C   C159      1.0  0.17258  0.81026  0.32983  1.0000
  C   C160      1.0  0.17811  0.80004  0.25714  1.0000
  C   C161      1.0  0.19689  0.79098  0.25718  1.0000
  H   H81       1.0  0.16813  0.79885  0.20386  1.0000
  N   N27       1.0  0.20187  0.78047  0.18443  1.0000
  O   O53       1.0  0.18843  0.76944  0.17440  1.0000
  O   O54       1.0  0.20354  0.78830  0.11205  1.0000
  C   C162      1.0  0.78003  0.22660  0.33728  1.0000
  C   C163      1.0  0.76302  0.22374  0.27916  1.0000
  C   C164      1.0  0.74551  0.23412  0.28042  1.0000
  H   H82       1.0  0.76333  0.21414  0.23502  1.0000
  H   H83       1.0  0.73369  0.23186  0.23604  1.0000
  C   C165      1.0  0.79819  0.21656  0.33386  1.0000
  C   C166      1.0  0.83600  0.19822  0.33151  1.0000
  C   C167      1.0  0.83051  0.20841  0.25870  1.0000
  C   C168      1.0  0.81174  0.21749  0.25850  1.0000
  H   H84       1.0  0.84052  0.20959  0.20549  1.0000
  N   N28       1.0  0.80680  0.22798  0.18563  1.0000
  O   O55       1.0  0.82026  0.23900  0.17562  1.0000
  O   O56       1.0  0.80515  0.22013  0.11330  1.0000
  C   C169      1.0  0.41144  0.30242  0.33463  1.0000
  C   C170      1.0  0.41132  0.28902  0.27416  1.0000
  C   C171      1.0  0.42745  0.27738  0.27436  1.0000
  C   C172      1.0  0.47471  0.26537  0.26758  1.0000
  C   C173      1.0  0.48998  0.25289  0.27011  1.0000
  H   H85       1.0  0.50062  0.25216  0.21903  1.0000
  H   H86       1.0  0.39932  0.28752  0.22966  1.0000
  H   H87       1.0  0.42668  0.26770  0.23080  1.0000
  N   N29       1.0  0.47417  0.27683  0.19607  1.0000
  O   O57       1.0  0.47122  0.26988  0.12175  1.0000
  O   O58       1.0  0.49074  0.28497  0.19176  1.0000
  C   C174      1.0  0.59717  0.70606  0.33238  1.0000
  C   C175      1.0  0.59734  0.71950  0.27218  1.0000
  C   C176      1.0  0.58120  0.73114  0.27241  1.0000
  C   C177      1.0  0.53396  0.74315  0.26512  1.0000
  C   C178      1.0  0.51869  0.75563  0.26765  1.0000
  H   H88       1.0  0.50810  0.75640  0.21640  1.0000
  H   H89       1.0  0.60936  0.72103  0.22787  1.0000
  H   H90       1.0  0.58201  0.74085  0.22904  1.0000
  N   N30       1.0  0.53457  0.73174  0.19336  1.0000
  O   O59       1.0  0.53760  0.73874  0.11926  1.0000
  O   O60       1.0  0.51801  0.72360  0.18856  1.0000
  C   C179      1.0  0.06444  0.77876  0.34825  1.0000
  C   C180      1.0  0.06403  0.79221  0.28851  1.0000
  C   C181      1.0  0.08011  0.80394  0.28941  1.0000
  H   H91       1.0  0.05216  0.79343  0.24314  1.0000
  H   H92       1.0  0.07970  0.81324  0.24334  1.0000
  C   C182      1.0  0.04871  0.76650  0.34568  1.0000
  C   C183      1.0  0.01810  0.74124  0.34370  1.0000
  C   C184      1.0  0.03307  0.74239  0.27461  1.0000
  C   C185      1.0  0.04826  0.75495  0.27424  1.0000
  H   H93       1.0  0.03281  0.73415  0.22279  1.0000
  N   N31       1.0  0.06318  0.75598  0.20425  1.0000
  O   O61       1.0  0.07423  0.74330  0.20031  1.0000
  O   O62       1.0  0.05464  0.75815  0.12919  1.0000
  C   C186      1.0  0.94413  0.22971  0.35050  1.0000
  C   C187      1.0  0.94458  0.21623  0.29101  1.0000
  C   C188      1.0  0.92850  0.20450  0.29195  1.0000
  H   H94       1.0  0.95648  0.21498  0.24580  1.0000
  H   H95       1.0  0.92894  0.19518  0.24606  1.0000
  C   C189      1.0  0.95987  0.24197  0.34792  1.0000
  C   C190      1.0  0.99048  0.26723  0.34593  1.0000
  C   C191      1.0  0.97557  0.26603  0.27661  1.0000
  C   C192      1.0  0.96038  0.25347  0.27623  1.0000
  H   H96       1.0  0.97588  0.27425  0.22464  1.0000
  N   N32       1.0  0.94553  0.25239  0.20601  1.0000
  O   O63       1.0  0.93448  0.26506  0.20159  1.0000
  O   O64       1.0  0.95415  0.25017  0.13114  1.0000
  C   C193      1.0  0.16811  0.25195  0.34439  1.0000
  C   C194      1.0  0.16243  0.26467  0.28442  1.0000
  C   C195      1.0  0.14207  0.27107  0.28332  1.0000
  C   C196      1.0  0.09270  0.26759  0.26748  1.0000
  C   C197      1.0  0.07192  0.27337  0.26790  1.0000
  H   H97       1.0  0.06233  0.27036  0.21546  1.0000
  H   H98       1.0  0.17301  0.26922  0.23953  1.0000
  H   H99       1.0  0.13851  0.28019  0.23870  1.0000
  N   N33       1.0  0.10013  0.25773  0.19591  1.0000
  O   O65       1.0  0.09938  0.26524  0.12221  1.0000
  O   O66       1.0  0.08992  0.24467  0.18890  1.0000
  C   C198      1.0  0.84045  0.75656  0.34365  1.0000
  C   C199      1.0  0.84611  0.74384  0.28361  1.0000
  C   C200      1.0  0.86647  0.73744  0.28232  1.0000
  C   C201      1.0  0.91581  0.74089  0.26590  1.0000
  C   C202      1.0  0.93659  0.73510  0.26606  1.0000
  H   H100      1.0  0.94613  0.73808  0.21344  1.0000
  H   H101      1.0  0.83551  0.73929  0.23878  1.0000
  H   H102      1.0  0.87000  0.72832  0.23765  1.0000
  N   N34       1.0  0.90832  0.75071  0.19430  1.0000
  O   O67       1.0  0.90901  0.74317  0.12069  1.0000
  O   O68       1.0  0.91853  0.76377  0.18696  1.0000
  C   C203      1.0  0.38183  0.76505  0.34096  1.0000
  C   C204      1.0  0.37630  0.75240  0.28074  1.0000
  C   C205      1.0  0.35597  0.74592  0.28028  1.0000
  H   H103      1.0  0.38709  0.74772  0.23715  1.0000
  H   H104      1.0  0.35250  0.73691  0.23497  1.0000
  C   C206      1.0  0.40255  0.77133  0.34294  1.0000
  C   C207      1.0  0.44443  0.78310  0.34506  1.0000
  C   C208      1.0  0.43092  0.78698  0.27337  1.0000
  C   C209      1.0  0.41018  0.78107  0.27090  1.0000
  H   H105      1.0  0.43639  0.79372  0.22039  1.0000
  N   N35       1.0  0.39693  0.78479  0.19753  1.0000
  O   O69       1.0  0.39426  0.79996  0.18951  1.0000
  O   O70       1.0  0.40406  0.77928  0.12489  1.0000
  C   C210      1.0  0.62678  0.24345  0.34208  1.0000
  C   C211      1.0  0.63229  0.25610  0.28179  1.0000
  C   C212      1.0  0.65261  0.26257  0.28113  1.0000
  H   H106      1.0  0.62147  0.26078  0.23829  1.0000
  H   H107      1.0  0.65606  0.27159  0.23577  1.0000
  C   C213      1.0  0.60606  0.23717  0.34427  1.0000
  C   C214      1.0  0.56419  0.22539  0.34690  1.0000
  C   C215      1.0  0.57763  0.22155  0.27492  1.0000
  C   C216      1.0  0.59837  0.22746  0.27221  1.0000
  H   H108      1.0  0.57212  0.21482  0.22194  1.0000
  N   N36       1.0  0.61156  0.22378  0.19856  1.0000
  O   O71       1.0  0.61423  0.20861  0.19027  1.0000
  O   O72       1.0  0.60437  0.22933  0.12613  1.0000
  C   C217      1.0  0.45845  0.08559  0.34475  1.0000
  C   C218      1.0  0.43650  0.08438  0.33968  1.0000
  C   C219      1.0  0.42606  0.06913  0.33490  1.0000
  C   C220      1.0  0.43836  0.05471  0.33567  1.0000
  C   C221      1.0  0.46039  0.05531  0.34085  1.0000
  C   C222      1.0  0.47010  0.07087  0.34518  1.0000
  H   H109      1.0  0.43114  0.04355  0.33236  1.0000
  H   H110      1.0  0.48600  0.07150  0.34886  1.0000
  H   H111      1.0  0.42787  0.09492  0.33940  1.0000
  C   C223      1.0  0.55019  0.92291  0.34244  1.0000
  C   C224      1.0  0.57214  0.92416  0.33893  1.0000
  C   C225      1.0  0.58256  0.93943  0.33585  1.0000
  C   C226      1.0  0.57022  0.95382  0.33736  1.0000
  C   C227      1.0  0.54813  0.95326  0.34049  1.0000
  C   C228      1.0  0.53851  0.93762  0.34249  1.0000
  H   H112      1.0  0.57751  0.96496  0.33597  1.0000
  H   H113      1.0  0.52261  0.93690  0.34433  1.0000
  H   H114      1.0  0.58080  0.91363  0.33852  1.0000
  C   C229      1.0  0.05014  0.58559  0.33910  1.0000
  C   C230      1.0  0.07209  0.58438  0.34416  1.0000
  C   C231      1.0  0.08253  0.56913  0.34895  1.0000
  C   C232      1.0  0.07023  0.55471  0.34818  1.0000
  C   C233      1.0  0.04819  0.55531  0.34299  1.0000
  C   C234      1.0  0.03849  0.57087  0.33867  1.0000
  H   H115      1.0  0.07745  0.54355  0.35148  1.0000
  H   H116      1.0  0.02259  0.57150  0.33499  1.0000
  H   H117      1.0  0.08073  0.59492  0.34445  1.0000
  C   C235      1.0  0.95840  0.42292  0.34141  1.0000
  C   C236      1.0  0.93644  0.42416  0.34490  1.0000
  C   C237      1.0  0.92603  0.43943  0.34798  1.0000
  C   C238      1.0  0.93837  0.45383  0.34646  1.0000
  C   C239      1.0  0.96046  0.45327  0.34334  1.0000
  C   C240      1.0  0.97007  0.43763  0.34135  1.0000
  H   H118      1.0  0.93108  0.46497  0.34785  1.0000
  H   H119      1.0  0.98598  0.43691  0.33952  1.0000
  H   H120      1.0  0.92779  0.41363  0.34533  1.0000
  C   C241      1.0  0.42991  0.48550  0.33634  1.0000
  C   C242      1.0  0.42531  0.46853  0.33895  1.0000
  C   C243      1.0  0.40462  0.46252  0.34215  1.0000
  C   C244      1.0  0.38821  0.47411  0.34334  1.0000
  C   C245      1.0  0.39203  0.49117  0.34046  1.0000
  C   C246      1.0  0.41295  0.49661  0.33669  1.0000
  H   H121      1.0  0.37314  0.47006  0.34635  1.0000
  H   H122      1.0  0.41586  0.50893  0.33427  1.0000
  H   H123      1.0  0.43734  0.46032  0.33850  1.0000
  C   C247      1.0  0.57874  0.52297  0.33599  1.0000
  C   C248      1.0  0.58318  0.53994  0.33606  1.0000
  C   C249      1.0  0.60386  0.54598  0.33965  1.0000
  C   C250      1.0  0.62029  0.53440  0.34242  1.0000
  C   C251      1.0  0.61650  0.51732  0.34127  1.0000
  C   C252      1.0  0.59561  0.51182  0.33842  1.0000
  H   H124      1.0  0.63536  0.53847  0.34533  1.0000
  H   H125      1.0  0.59262  0.49950  0.33807  1.0000
  H   H126      1.0  0.57105  0.54807  0.33354  1.0000
  C   C253      1.0  0.07867  0.98551  0.34749  1.0000
  C   C254      1.0  0.08328  0.96854  0.34488  1.0000
  C   C255      1.0  0.10397  0.96252  0.34168  1.0000
  C   C256      1.0  0.12038  0.97412  0.34049  1.0000
  C   C257      1.0  0.11656  0.99118  0.34338  1.0000
  C   C258      1.0  0.09564  0.99662  0.34715  1.0000
  H   H127      1.0  0.13545  0.97007  0.33747  1.0000
  H   H128      1.0  0.09273  0.00894  0.34956  1.0000
  H   H129      1.0  0.07125  0.96033  0.34532  1.0000
  C   C259      1.0  0.92984  0.02297  0.34786  1.0000
  C   C260      1.0  0.92540  0.03994  0.34779  1.0000
  C   C261      1.0  0.90473  0.04598  0.34418  1.0000
  C   C262      1.0  0.88829  0.03440  0.34141  1.0000
  C   C263      1.0  0.89209  0.01732  0.34257  1.0000
  C   C264      1.0  0.91298  0.01182  0.34543  1.0000
  H   H130      1.0  0.87323  0.03847  0.33851  1.0000
  H   H131      1.0  0.91596  0.99950  0.34578  1.0000
  H   H132      1.0  0.93753  0.04807  0.35030  1.0000
  C   C265      1.0  0.24397  0.10177  0.34208  1.0000
  C   C266      1.0  0.26512  0.09703  0.34221  1.0000
  C   C267      1.0  0.27106  0.08037  0.34155  1.0000
  C   C268      1.0  0.25523  0.06828  0.33921  1.0000
  C   C269      1.0  0.23379  0.07253  0.33931  1.0000
  C   C270      1.0  0.22857  0.08940  0.34162  1.0000
  H   H133      1.0  0.25944  0.05620  0.33749  1.0000
  H   H134      1.0  0.21323  0.09281  0.34260  1.0000
  H   H135      1.0  0.27640  0.10590  0.34313  1.0000
  C   C271      1.0  0.76469  0.90677  0.34235  1.0000
  C   C272      1.0  0.74354  0.91149  0.34287  1.0000
  C   C273      1.0  0.73757  0.92815  0.34234  1.0000
  C   C274      1.0  0.75339  0.94024  0.33961  1.0000
  C   C275      1.0  0.77484  0.93601  0.33928  1.0000
  C   C276      1.0  0.78008  0.91914  0.34158  1.0000
  H   H136      1.0  0.74918  0.95232  0.33797  1.0000
  H   H137      1.0  0.79543  0.91573  0.34230  1.0000
  H   H138      1.0  0.73227  0.90261  0.34394  1.0000
  C   C277      1.0  0.26462  0.60176  0.34176  1.0000
  C   C278      1.0  0.24347  0.59702  0.34164  1.0000
  C   C279      1.0  0.23753  0.58036  0.34229  1.0000
  C   C280      1.0  0.25335  0.56828  0.34462  1.0000
  C   C281      1.0  0.27480  0.57252  0.34451  1.0000
  C   C282      1.0  0.28002  0.58940  0.34221  1.0000
  H   H139      1.0  0.24915  0.55619  0.34633  1.0000
  H   H140      1.0  0.29536  0.59281  0.34123  1.0000
  H   H141      1.0  0.23219  0.60590  0.34072  1.0000
  C   C283      1.0  0.74390  0.40677  0.34149  1.0000
  C   C284      1.0  0.76504  0.41149  0.34098  1.0000
  C   C285      1.0  0.77102  0.42815  0.34150  1.0000
  C   C286      1.0  0.75520  0.44024  0.34425  1.0000
  C   C287      1.0  0.73374  0.43601  0.34456  1.0000
  C   C288      1.0  0.72850  0.41914  0.34226  1.0000
  H   H142      1.0  0.75941  0.45232  0.34589  1.0000
  H   H143      1.0  0.71316  0.41574  0.34154  1.0000
  H   H144      1.0  0.77631  0.40261  0.33990  1.0000
  C   C289      1.0  0.39416  0.31338  0.33895  1.0000
  C   C290      1.0  0.37374  0.30705  0.34556  1.0000
  C   C291      1.0  0.35617  0.31740  0.34994  1.0000
  C   C292      1.0  0.35921  0.33454  0.34794  1.0000
  C   C293      1.0  0.37945  0.34136  0.34255  1.0000
  C   C294      1.0  0.39674  0.33060  0.33806  1.0000
  H   H145      1.0  0.34652  0.34211  0.35053  1.0000
  H   H146      1.0  0.41145  0.33537  0.33386  1.0000
  H   H147      1.0  0.37159  0.29462  0.34727  1.0000
  C   C295      1.0  0.61445  0.69509  0.33669  1.0000
  C   C296      1.0  0.63487  0.70141  0.34363  1.0000
  C   C297      1.0  0.65244  0.69106  0.34804  1.0000
  C   C298      1.0  0.64939  0.67393  0.34575  1.0000
  C   C299      1.0  0.62915  0.66711  0.34000  1.0000
  C   C300      1.0  0.61187  0.67787  0.33546  1.0000
  H   H148      1.0  0.66207  0.66634  0.34840  1.0000
  H   H149      1.0  0.59716  0.67310  0.33099  1.0000
  H   H150      1.0  0.63702  0.71384  0.34556  1.0000
  C   C301      1.0  0.11443  0.81339  0.34486  1.0000
  C   C302      1.0  0.13485  0.80706  0.33826  1.0000
  C   C303      1.0  0.15242  0.81741  0.33390  1.0000
  C   C304      1.0  0.14938  0.83454  0.33589  1.0000
  C   C305      1.0  0.12913  0.84136  0.34128  1.0000
  C   C306      1.0  0.11185  0.83060  0.34576  1.0000
  H   H151      1.0  0.16207  0.84213  0.33330  1.0000
  H   H152      1.0  0.09714  0.83538  0.34997  1.0000
  H   H153      1.0  0.13701  0.79463  0.33655  1.0000
  C   C307      1.0  0.89414  0.19509  0.34718  1.0000
  C   C308      1.0  0.87373  0.20141  0.34025  1.0000
  C   C309      1.0  0.85616  0.19106  0.33585  1.0000
  C   C310      1.0  0.85920  0.17393  0.33811  1.0000
  C   C311      1.0  0.87944  0.16711  0.34386  1.0000
  C   C312      1.0  0.89672  0.17787  0.34841  1.0000
  H   H154      1.0  0.84652  0.16634  0.33546  1.0000
  H   H155      1.0  0.91143  0.17310  0.35288  1.0000
  H   H156      1.0  0.87157  0.21385  0.33833  1.0000
  C   C313      1.0  0.21281  0.22170  0.34778  1.0000
  C   C314      1.0  0.22982  0.23272  0.34737  1.0000
  C   C315      1.0  0.22698  0.24990  0.34591  1.0000
  C   C316      1.0  0.20635  0.25599  0.34519  1.0000
  C   C317      1.0  0.18883  0.24545  0.34534  1.0000
  C   C318      1.0  0.19245  0.22834  0.34650  1.0000
  H   H157      1.0  0.20403  0.26839  0.34439  1.0000
  H   H158      1.0  0.17998  0.22053  0.34648  1.0000
  H   H159      1.0  0.24464  0.22811  0.34808  1.0000
  C   C319      1.0  0.79576  0.78682  0.34741  1.0000
  C   C320      1.0  0.77875  0.77580  0.34693  1.0000
  C   C321      1.0  0.78158  0.75862  0.34536  1.0000
  C   C322      1.0  0.80221  0.75253  0.34456  1.0000
  C   C323      1.0  0.81973  0.76306  0.34476  1.0000
  C   C324      1.0  0.81612  0.78017  0.34605  1.0000
  H   H160      1.0  0.80452  0.74013  0.34366  1.0000
  H   H161      1.0  0.82859  0.78798  0.34604  1.0000
  H   H162      1.0  0.76393  0.78041  0.34769  1.0000
  C   C325      1.0  0.29577  0.72169  0.33606  1.0000
  C   C326      1.0  0.27877  0.73271  0.33648  1.0000
  C   C327      1.0  0.28160  0.74990  0.33793  1.0000
  C   C328      1.0  0.30224  0.75598  0.33866  1.0000
  C   C329      1.0  0.31975  0.74545  0.33850  1.0000
  C   C330      1.0  0.31613  0.72833  0.33734  1.0000
  H   H163      1.0  0.30455  0.76838  0.33946  1.0000
  H   H164      1.0  0.32860  0.72053  0.33737  1.0000
  H   H165      1.0  0.26394  0.72811  0.33576  1.0000
  C   C331      1.0  0.71283  0.28682  0.33643  1.0000
  C   C332      1.0  0.72984  0.27581  0.33690  1.0000
  C   C333      1.0  0.72701  0.25862  0.33848  1.0000
  C   C334      1.0  0.70638  0.25253  0.33928  1.0000
  C   C335      1.0  0.68886  0.26306  0.33908  1.0000
  C   C336      1.0  0.69247  0.28017  0.33779  1.0000
  H   H166      1.0  0.70407  0.24013  0.34017  1.0000
  H   H167      1.0  0.68000  0.28798  0.33780  1.0000
  H   H168      1.0  0.74466  0.28042  0.33615  1.0000
  C   C337      1.0  0.00588  0.27973  0.34460  1.0000
  C   C338      1.0  0.00021  0.29645  0.34544  1.0000
  C   C339      1.0  0.01543  0.30898  0.34474  1.0000
  C   C340      1.0  0.03671  0.30446  0.34232  1.0000
  C   C341      1.0  0.04282  0.28781  0.34088  1.0000
  C   C342      1.0  0.02722  0.27560  0.34246  1.0000
  H   H169      1.0  0.04790  0.31340  0.34163  1.0000
  H   H170      1.0  0.03146  0.26351  0.34183  1.0000
  H   H171      1.0  0.98476  0.29953  0.34686  1.0000
  C   C343      1.0  0.00268  0.72875  0.34234  1.0000
  C   C344      1.0  0.00834  0.71203  0.34291  1.0000
  C   C345      1.0  0.99311  0.69951  0.34207  1.0000
  C   C346      1.0  0.97183  0.70403  0.33988  1.0000
  C   C347      1.0  0.96573  0.72068  0.33877  1.0000
  C   C348      1.0  0.98134  0.73288  0.34040  1.0000
  H   H172      1.0  0.96064  0.69509  0.33911  1.0000
  H   H173      1.0  0.97710  0.74498  0.33995  1.0000
  H   H174      1.0  0.02379  0.70893  0.34424  1.0000
  C   C349      1.0  0.50271  0.77973  0.33924  1.0000
  C   C350      1.0  0.50837  0.79644  0.33839  1.0000
  C   C351      1.0  0.49315  0.80897  0.33909  1.0000
  C   C352      1.0  0.47187  0.80445  0.34151  1.0000
  C   C353      1.0  0.46576  0.78780  0.34295  1.0000
  C   C354      1.0  0.48136  0.77560  0.34138  1.0000
  H   H175      1.0  0.46068  0.81339  0.34219  1.0000
  H   H176      1.0  0.47713  0.76350  0.34201  1.0000
  H   H177      1.0  0.52383  0.79953  0.33697  1.0000
  C   C355      1.0  0.50591  0.22875  0.34150  1.0000
  C   C356      1.0  0.50026  0.21202  0.34093  1.0000
  C   C357      1.0  0.51549  0.19951  0.34177  1.0000
  C   C358      1.0  0.53677  0.20402  0.34396  1.0000
  C   C359      1.0  0.54286  0.22068  0.34507  1.0000
  C   C360      1.0  0.52725  0.23288  0.34345  1.0000
  H   H178      1.0  0.54795  0.19509  0.34472  1.0000
  H   H179      1.0  0.53149  0.24498  0.34389  1.0000
  H   H180      1.0  0.48480  0.20893  0.33960  1.0000
  C   C361      1.0  0.51055  0.99712  0.34118  1.0000
  C   C362      1.0  0.50652  0.98419  0.40185  1.0000
  C   C363      1.0  0.51882  0.96988  0.40150  1.0000
  H   H181      1.0  0.49445  0.98505  0.44648  1.0000
  H   H182      1.0  0.51542  0.96088  0.44703  1.0000
  C   C364      1.0  0.49795  0.01161  0.34118  1.0000
  C   C365      1.0  0.47266  0.04064  0.34152  1.0000
  C   C366      1.0  0.48710  0.03751  0.41107  1.0000
  C   C367      1.0  0.49952  0.02315  0.41243  1.0000
  H   H183      1.0  0.48848  0.04570  0.46283  1.0000
  N   N37       1.0  0.51376  0.02026  0.48344  1.0000
  O   O73       1.0  0.52728  0.03135  0.48808  1.0000
  O   O74       1.0  0.50460  0.01926  0.55790  1.0000
  C   C368      1.0  0.97280  0.46798  0.34246  1.0000
  C   C369      1.0  0.96874  0.48109  0.40249  1.0000
  C   C370      1.0  0.98118  0.49534  0.40301  1.0000
  C   C371      1.0  0.02496  0.51465  0.41362  1.0000
  C   C372      1.0  0.03751  0.52896  0.41200  1.0000
  H   H184      1.0  0.04765  0.53100  0.46388  1.0000
  H   H185      1.0  0.95689  0.48022  0.44815  1.0000
  H   H186      1.0  0.97778  0.50447  0.44777  1.0000
  N   N38       1.0  0.02668  0.50321  0.48482  1.0000
  O   O75       1.0  0.02219  0.50961  0.55918  1.0000
  O   O76       1.0  0.04471  0.49731  0.48956  1.0000
  C   C373      1.0  0.40372  0.06862  0.33109  1.0000
  C   C374      1.0  0.39203  0.05853  0.38986  1.0000
  C   C375      1.0  0.37007  0.05914  0.39131  1.0000
  C   C376      1.0  0.32737  0.07890  0.41323  1.0000
  C   C377      1.0  0.30554  0.08143  0.41427  1.0000
  H   H187      1.0  0.29901  0.08733  0.46805  1.0000
  H   H188      1.0  0.39945  0.05109  0.43498  1.0000
  H   H189      1.0  0.36220  0.05197  0.43630  1.0000
  N   N39       1.0  0.33994  0.08451  0.48525  1.0000
  O   O77       1.0  0.33501  0.07773  0.55806  1.0000
  O   O78       1.0  0.33865  0.09976  0.49493  1.0000
  C   C378      1.0  0.60489  0.93994  0.33263  1.0000
  C   C379      1.0  0.61654  0.94980  0.39270  1.0000
  C   C380      1.0  0.63850  0.94919  0.39431  1.0000
  C   C381      1.0  0.68122  0.92931  0.41391  1.0000
  C   C382      1.0  0.70305  0.92676  0.41468  1.0000
  H   H190      1.0  0.70955  0.92061  0.46768  1.0000
  H   H191      1.0  0.60909  0.95706  0.43858  1.0000
  H   H192      1.0  0.64635  0.95618  0.44022  1.0000
  N   N40       1.0  0.66863  0.92336  0.48503  1.0000
  O   O79       1.0  0.67354  0.92979  0.55882  1.0000
  O   O80       1.0  0.66990  0.90807  0.49249  1.0000
  C   C383      1.0  0.14958  0.56971  0.35073  1.0000
  C   C384      1.0  0.13802  0.57956  0.41082  1.0000
  C   C385      1.0  0.11610  0.57903  0.41163  1.0000
  H   H193      1.0  0.14548  0.58753  0.45300  1.0000
  H   H194      1.0  0.10835  0.58651  0.45551  1.0000
  C   C386      1.0  0.17177  0.57121  0.34605  1.0000
  C   C387      1.0  0.21592  0.57626  0.34111  1.0000
  C   C388      1.0  0.20641  0.56837  0.41484  1.0000
  C   C389      1.0  0.18454  0.56598  0.41872  1.0000
  H   H195      1.0  0.21535  0.56490  0.46852  1.0000
  N   N41       1.0  0.17520  0.55846  0.49450  1.0000
  O   O81       1.0  0.18185  0.54415  0.50582  1.0000
  O   O82       1.0  0.17841  0.56656  0.56504  1.0000
  C   C390      1.0  0.85898  0.43887  0.34889  1.0000
  C   C391      1.0  0.87050  0.42926  0.41026  1.0000
  C   C392      1.0  0.89242  0.42978  0.41120  1.0000
  H   H196      1.0  0.86301  0.42147  0.45335  1.0000
  H   H197      1.0  0.90014  0.42248  0.45607  1.0000
  C   C393      1.0  0.83679  0.43737  0.34426  1.0000
  C   C394      1.0  0.79264  0.43224  0.33992  1.0000
  C   C395      1.0  0.80213  0.44051  0.41243  1.0000
  C   C396      1.0  0.82399  0.44294  0.41605  1.0000
  H   H198      1.0  0.79318  0.44424  0.46556  1.0000
  N   N42       1.0  0.83331  0.45084  0.49071  1.0000
  O   O83       1.0  0.82663  0.46521  0.49982  1.0000
  O   O84       1.0  0.83009  0.44310  0.56243  1.0000
  C   C397      1.0  0.48634  0.13345  0.34704  1.0000
  C   C398      1.0  0.46994  0.12952  0.40650  1.0000
  C   C399      1.0  0.46107  0.11374  0.40667  1.0000
  H   H199      1.0  0.46405  0.13821  0.44898  1.0000
  H   H200      1.0  0.44913  0.11142  0.45038  1.0000
  C   C400      1.0  0.49451  0.14971  0.34390  1.0000
  C   C401      1.0  0.50924  0.18275  0.34090  1.0000
  C   C402      1.0  0.51431  0.17217  0.41265  1.0000
  C   C403      1.0  0.50689  0.15583  0.41565  1.0000
  H   H201      1.0  0.52294  0.17652  0.46533  1.0000
  N   N43       1.0  0.51167  0.14550  0.48931  1.0000
  O   O85       1.0  0.53097  0.14346  0.49733  1.0000
  O   O86       1.0  0.50465  0.15116  0.56179  1.0000
  C   C404      1.0  0.52233  0.87503  0.34361  1.0000
  C   C405      1.0  0.53853  0.87901  0.40401  1.0000
  C   C406      1.0  0.54741  0.89478  0.40436  1.0000
  H   H202      1.0  0.54426  0.87035  0.44713  1.0000
  H   H203      1.0  0.55917  0.89715  0.44886  1.0000
  C   C407      1.0  0.51414  0.85878  0.34051  1.0000
  C   C408      1.0  0.49940  0.82573  0.33792  1.0000
  C   C409      1.0  0.49407  0.83642  0.40880  1.0000
  C   C410      1.0  0.50148  0.85277  0.41161  1.0000
  H   H204      1.0  0.48523  0.83215  0.46106  1.0000
  N   N44       1.0  0.49641  0.86321  0.48445  1.0000
  O   O87       1.0  0.47708  0.86526  0.49093  1.0000
  O   O88       1.0  0.50314  0.85765  0.55768  1.0000
  C   C411      1.0  0.04026  0.60133  0.33591  1.0000
  C   C412      1.0  0.02357  0.60530  0.39425  1.0000
  C   C413      1.0  0.01479  0.62112  0.39515  1.0000
  C   C414      1.0  0.01900  0.66016  0.41337  1.0000
  C   C415      1.0  0.01175  0.67653  0.41343  1.0000
  H   H205      1.0  0.01563  0.68401  0.46610  1.0000
  H   H206      1.0  0.01811  0.59683  0.43909  1.0000
  H   H207      1.0  0.00304  0.62364  0.43947  1.0000
  N   N45       1.0  0.03157  0.65421  0.48460  1.0000
  O   O89       1.0  0.02210  0.65479  0.55847  1.0000
  O   O90       1.0  0.04822  0.66219  0.49148  1.0000
  C   C416      1.0  0.96824  0.40716  0.33897  1.0000
  C   C417      1.0  0.98472  0.40315  0.39831  1.0000
  C   C418      1.0  0.99350  0.38732  0.39939  1.0000
  C   C419      1.0  0.98925  0.34824  0.41591  1.0000
  C   C420      1.0  0.99651  0.33186  0.41577  1.0000
  H   H208      1.0  0.99243  0.32431  0.46784  1.0000
  H   H209      1.0  0.99003  0.41159  0.44362  1.0000
  H   H210      1.0  0.00511  0.38478  0.44438  1.0000
  N   N46       1.0  0.97640  0.35407  0.48645  1.0000
  O   O91       1.0  0.98558  0.35338  0.56098  1.0000
  O   O92       1.0  0.95972  0.34608  0.49173  1.0000
  C   C421      1.0  0.49377  0.50175  0.33382  1.0000
  C   C422      1.0  0.47903  0.50898  0.39217  1.0000
  C   C423      1.0  0.45807  0.50383  0.39196  1.0000
  H   H211      1.0  0.48347  0.51809  0.43535  1.0000
  H   H212      1.0  0.44800  0.50918  0.43639  1.0000
  C   C424      1.0  0.51506  0.50692  0.33400  1.0000
  C   C425      1.0  0.55769  0.51733  0.33439  1.0000
  C   C426      1.0  0.54951  0.50791  0.40567  1.0000
  C   C427      1.0  0.52839  0.50283  0.40695  1.0000
  H   H213      1.0  0.55889  0.50497  0.45893  1.0000
  N   N47       1.0  0.52043  0.49357  0.47981  1.0000
  O   O93       1.0  0.52989  0.48019  0.48839  1.0000
  O   O94       1.0  0.52167  0.50135  0.55254  1.0000
  C   C428      1.0  0.05748  0.99115  0.34954  1.0000
  C   C429      1.0  0.04258  0.98399  0.40783  1.0000
  C   C430      1.0  0.02167  0.98924  0.40847  1.0000
  C   C431      1.0  0.98541  0.01620  0.42273  1.0000
  C   C432      1.0  0.96436  0.02144  0.42101  1.0000
  H   H214      1.0  0.95877  0.02822  0.47362  1.0000
  H   H215      1.0  0.04689  0.97492  0.45148  1.0000
  H   H216      1.0  0.01141  0.98372  0.45147  1.0000
  N   N48       1.0  0.99859  0.02036  0.49565  1.0000
  O   O95       1.0  0.99190  0.01456  0.56842  1.0000
  O   O96       1.0  0.00042  0.03560  0.50386  1.0000
  C   C433      1.0  0.40048  0.44524  0.34348  1.0000
  C   C434      1.0  0.41158  0.43456  0.40134  1.0000
  C   C435      1.0  0.40774  0.41757  0.40172  1.0000
  C   C436      1.0  0.37836  0.38571  0.41466  1.0000
  C   C437      1.0  0.37494  0.36856  0.41286  1.0000
  H   H217      1.0  0.36723  0.36320  0.46538  1.0000
  H   H218      1.0  0.42246  0.43911  0.44488  1.0000
  H   H219      1.0  0.41611  0.41027  0.44438  1.0000
  N   N49       1.0  0.37096  0.39536  0.48707  1.0000
  O   O97       1.0  0.37899  0.39104  0.56039  1.0000
  O   O98       1.0  0.35150  0.39454  0.49405  1.0000
  C   C438      1.0  0.60794  0.56327  0.34032  1.0000
  C   C439      1.0  0.59664  0.57399  0.39717  1.0000
  C   C440      1.0  0.60049  0.59098  0.39745  1.0000
  C   C441      1.0  0.62990  0.62278  0.41220  1.0000
  C   C442      1.0  0.63337  0.63992  0.41060  1.0000
  H   H220      1.0  0.64089  0.64528  0.46365  1.0000
  H   H221      1.0  0.58561  0.56948  0.44016  1.0000
  H   H222      1.0  0.59199  0.59832  0.43945  1.0000
  N   N50       1.0  0.63699  0.61312  0.48519  1.0000
  O   O99       1.0  0.62868  0.61747  0.55789  1.0000
  O   O100      1.0  0.65643  0.61392  0.49361  1.0000
  C   C443      1.0  0.11580  0.91063  0.34037  1.0000
  C   C444      1.0  0.12693  0.92116  0.39841  1.0000
  C   C445      1.0  0.12322  0.93818  0.39794  1.0000
  H   H223      1.0  0.13783  0.91651  0.44155  1.0000
  H   H224      1.0  0.13136  0.94535  0.44202  1.0000
  C   C446      1.0  0.11940  0.89336  0.34117  1.0000
  C   C447      1.0  0.12613  0.85869  0.34182  1.0000
  C   C448      1.0  0.11523  0.86645  0.41241  1.0000
  C   C449      1.0  0.11198  0.88361  0.41356  1.0000
  H   H225      1.0  0.10976  0.85957  0.46487  1.0000
  N   N51       1.0  0.10110  0.89115  0.48538  1.0000
  O   O101      1.0  0.08284  0.88576  0.49199  1.0000
  O   O102      1.0  0.11029  0.88900  0.55904  1.0000
  C   C450      1.0  0.89291  0.09788  0.34373  1.0000
  C   C451      1.0  0.88160  0.08729  0.40082  1.0000
  C   C452      1.0  0.88532  0.07028  0.40024  1.0000
  H   H226      1.0  0.87051  0.09191  0.44323  1.0000
  H   H227      1.0  0.87701  0.06307  0.44352  1.0000
  C   C453      1.0  0.88925  0.11514  0.34440  1.0000
  C   C454      1.0  0.88245  0.14979  0.34467  1.0000
  C   C455      1.0  0.89309  0.14205  0.41601  1.0000
  C   C456      1.0  0.89637  0.12489  0.41735  1.0000
  H   H228      1.0  0.89836  0.14893  0.46883  1.0000
  N   N52       1.0  0.90698  0.11736  0.48992  1.0000
  O   O103      1.0  0.92520  0.12276  0.49786  1.0000
  O   O104      1.0  0.89750  0.11948  0.56291  1.0000
  C   C457      1.0  0.32419  0.53676  0.34441  1.0000
  C   C458      1.0  0.32462  0.55029  0.40358  1.0000
  C   C459      1.0  0.30834  0.56187  0.40405  1.0000
  H   H229      1.0  0.33696  0.55193  0.44616  1.0000
  H   H230      1.0  0.30930  0.57146  0.44804  1.0000
  C   C460      1.0  0.34099  0.52524  0.34285  1.0000
  C   C461      1.0  0.37512  0.50258  0.34142  1.0000
  C   C462      1.0  0.36069  0.50284  0.41303  1.0000
  C   C463      1.0  0.34391  0.51412  0.41530  1.0000
  H   H231      1.0  0.36258  0.49490  0.46568  1.0000
  N   N53       1.0  0.32981  0.51432  0.48857  1.0000
  O   O105      1.0  0.32054  0.50085  0.49675  1.0000
  O   O106      1.0  0.33893  0.51755  0.56120  1.0000
  C   C464      1.0  0.68439  0.47181  0.34548  1.0000
  C   C465      1.0  0.68397  0.45824  0.40441  1.0000
  C   C466      1.0  0.70024  0.44666  0.40459  1.0000
  H   H232      1.0  0.67163  0.45657  0.44698  1.0000
  H   H233      1.0  0.69929  0.43704  0.44841  1.0000
  C   C467      1.0  0.66756  0.48331  0.34400  1.0000
  C   C468      1.0  0.63340  0.50594  0.34252  1.0000
  C   C469      1.0  0.64767  0.50557  0.41467  1.0000
  C   C470      1.0  0.66446  0.49429  0.41697  1.0000
  H   H234      1.0  0.64567  0.51342  0.46761  1.0000
  N   N54       1.0  0.67840  0.49397  0.49079  1.0000
  O   O107      1.0  0.68762  0.50743  0.50009  1.0000
  O   O108      1.0  0.66912  0.49059  0.56285  1.0000
  C   C471      1.0  0.21767  0.06032  0.33772  1.0000
  C   C472      1.0  0.21813  0.04659  0.39593  1.0000
  C   C473      1.0  0.20174  0.03507  0.39722  1.0000
  C   C474      1.0  0.15333  0.02499  0.41409  1.0000
  C   C475      1.0  0.13640  0.01383  0.41336  1.0000
  H   H235      1.0  0.12628  0.01378  0.46651  1.0000
  H   H236      1.0  0.23019  0.04509  0.44009  1.0000
  H   H237      1.0  0.20254  0.02543  0.44098  1.0000
  N   N55       1.0  0.15605  0.03609  0.48637  1.0000
  O   O109      1.0  0.15879  0.02867  0.55946  1.0000
  O   O110      1.0  0.14070  0.04551  0.49447  1.0000
  C   C476      1.0  0.79095  0.94823  0.33733  1.0000
  C   C477      1.0  0.79050  0.96200  0.39528  1.0000
  C   C478      1.0  0.80687  0.97352  0.39623  1.0000
  C   C479      1.0  0.85514  0.98369  0.41351  1.0000
  C   C480      1.0  0.87208  0.99482  0.41280  1.0000
  H   H238      1.0  0.88210  0.99496  0.46631  1.0000
  H   H239      1.0  0.77846  0.96352  0.43952  1.0000
  H   H240      1.0  0.80608  0.98319  0.43985  1.0000
  N   N56       1.0  0.85226  0.97273  0.48633  1.0000
  O   O111      1.0  0.84938  0.98029  0.55889  1.0000
  O   O112      1.0  0.86758  0.96332  0.49557  1.0000
  C   C481      1.0  0.22415  0.16988  0.34722  1.0000
  C   C482      1.0  0.23458  0.18024  0.40849  1.0000
  C   C483      1.0  0.23073  0.19721  0.40897  1.0000
  H   H241      1.0  0.24525  0.17552  0.45251  1.0000
  H   H242      1.0  0.23854  0.20431  0.45450  1.0000
  C   C484      1.0  0.22860  0.15278  0.34490  1.0000
  C   C485      1.0  0.23847  0.11867  0.34227  1.0000
  C   C486      1.0  0.22643  0.12543  0.41241  1.0000
  C   C487      1.0  0.22163  0.14235  0.41524  1.0000
  H   H243      1.0  0.22149  0.11805  0.46380  1.0000
  N   N57       1.0  0.20985  0.14901  0.48703  1.0000
  O   O113      1.0  0.19208  0.14264  0.49155  1.0000
  O   O114      1.0  0.21891  0.14707  0.56117  1.0000
  C   C488      1.0  0.78447  0.83865  0.34718  1.0000
  C   C489      1.0  0.77402  0.82828  0.40831  1.0000
  C   C490      1.0  0.77785  0.81131  0.40867  1.0000
  H   H244      1.0  0.76333  0.83299  0.45231  1.0000
  H   H245      1.0  0.77002  0.80420  0.45411  1.0000
  C   C491      1.0  0.78004  0.85576  0.34494  1.0000
  C   C492      1.0  0.77020  0.88986  0.34244  1.0000
  C   C493      1.0  0.78217  0.88309  0.41275  1.0000
  C   C494      1.0  0.78695  0.86616  0.41551  1.0000
  H   H246      1.0  0.78706  0.89045  0.46429  1.0000
  N   N58       1.0  0.79864  0.85947  0.48748  1.0000
  O   O115      1.0  0.81642  0.86584  0.49241  1.0000
  O   O116      1.0  0.78950  0.86139  0.56145  1.0000
  C   C495      1.0  0.29233  0.70437  0.33507  1.0000
  C   C496      1.0  0.30288  0.69386  0.39562  1.0000
  C   C497      1.0  0.29893  0.67689  0.39678  1.0000
  C   C498      1.0  0.26810  0.64610  0.41071  1.0000
  C   C499      1.0  0.26318  0.62920  0.41060  1.0000
  H   H247      1.0  0.25450  0.62454  0.46234  1.0000
  H   H248      1.0  0.31319  0.69854  0.44133  1.0000
  H   H249      1.0  0.30664  0.66970  0.44219  1.0000
  N   N59       1.0  0.26097  0.65648  0.48060  1.0000
  O   O117      1.0  0.26802  0.65212  0.55569  1.0000
  O   O118      1.0  0.24143  0.65673  0.48466  1.0000
  C   C500      1.0  0.71625  0.30415  0.33534  1.0000
  C   C501      1.0  0.70567  0.31467  0.39575  1.0000
  C   C502      1.0  0.70961  0.33164  0.39679  1.0000
  C   C503      1.0  0.74034  0.36246  0.41085  1.0000
  C   C504      1.0  0.74526  0.37936  0.41066  1.0000
  H   H250      1.0  0.75389  0.38404  0.46249  1.0000
  H   H251      1.0  0.69536  0.30999  0.44145  1.0000
  H   H252      1.0  0.70187  0.33884  0.44211  1.0000
  N   N60       1.0  0.74742  0.35211  0.48096  1.0000
  O   O119      1.0  0.74029  0.35649  0.55588  1.0000
  O   O120      1.0  0.76695  0.35187  0.48540  1.0000
  C   C505      1.0  0.28001  0.28192  0.34756  1.0000
  C   C506      1.0  0.26299  0.28476  0.40564  1.0000
  C   C507      1.0  0.24547  0.27438  0.40421  1.0000
  H   H253      1.0  0.26329  0.29435  0.44990  1.0000
  H   H254      1.0  0.23365  0.27663  0.44859  1.0000
  C   C508      1.0  0.29817  0.29194  0.35120  1.0000
  C   C509      1.0  0.33601  0.31024  0.35399  1.0000
  C   C510      1.0  0.33048  0.30003  0.42669  1.0000
  C   C511      1.0  0.31170  0.29097  0.42665  1.0000
  H   H255      1.0  0.34046  0.29884  0.47996  1.0000
  N   N61       1.0  0.30672  0.28046  0.49939  1.0000
  O   O121      1.0  0.32015  0.26943  0.50940  1.0000
  O   O122      1.0  0.30505  0.28829  0.57178  1.0000
  C   C512      1.0  0.72856  0.72659  0.34656  1.0000
  C   C513      1.0  0.74557  0.72374  0.40468  1.0000
  C   C514      1.0  0.76308  0.73412  0.40342  1.0000
  H   H256      1.0  0.74527  0.71413  0.44883  1.0000
  H   H257      1.0  0.77490  0.73186  0.44780  1.0000
  C   C515      1.0  0.71041  0.71656  0.34999  1.0000
  C   C516      1.0  0.67259  0.69821  0.35237  1.0000
  C   C517      1.0  0.67809  0.70841  0.42517  1.0000
  C   C518      1.0  0.69686  0.71749  0.42536  1.0000
  H   H258      1.0  0.66808  0.70958  0.47839  1.0000
  N   N62       1.0  0.70179  0.72798  0.49823  1.0000
  O   O123      1.0  0.68834  0.73900  0.50824  1.0000
  O   O124      1.0  0.70344  0.72013  0.57056  1.0000
  C   C519      1.0  0.26409  0.76074  0.33836  1.0000
  C   C520      1.0  0.24697  0.75802  0.39654  1.0000
  C   C521      1.0  0.22951  0.76843  0.39564  1.0000
  C   C522      1.0  0.20505  0.80221  0.40627  1.0000
  C   C523      1.0  0.18630  0.81135  0.40358  1.0000
  H   H259      1.0  0.18225  0.81831  0.45807  1.0000
  H   H260      1.0  0.24709  0.74842  0.44075  1.0000
  H   H261      1.0  0.21732  0.76594  0.43782  1.0000
  N   N63       1.0  0.21845  0.80309  0.48182  1.0000
  O   O125      1.0  0.20951  0.79831  0.55225  1.0000
  O   O126      1.0  0.22501  0.81741  0.49408  1.0000
  C   C524      1.0  0.74453  0.24778  0.33901  1.0000
  C   C525      1.0  0.76164  0.25052  0.39722  1.0000
  C   C526      1.0  0.77910  0.24010  0.39650  1.0000
  C   C527      1.0  0.80350  0.20630  0.40760  1.0000
  C   C528      1.0  0.82224  0.19715  0.40515  1.0000
  H   H262      1.0  0.82626  0.19020  0.45974  1.0000
  H   H263      1.0  0.76151  0.26012  0.44135  1.0000
  H   H264      1.0  0.79127  0.24260  0.43872  1.0000
  N   N64       1.0  0.79007  0.20545  0.48304  1.0000
  O   O127      1.0  0.79898  0.21024  0.55351  1.0000
  O   O128      1.0  0.78349  0.19114  0.49535  1.0000
  C   C529      1.0  0.44416  0.27876  0.33558  1.0000
  C   C530      1.0  0.44456  0.29221  0.39533  1.0000
  C   C531      1.0  0.42848  0.30394  0.39442  1.0000
  H   H265      1.0  0.45643  0.29343  0.44071  1.0000
  H   H266      1.0  0.42889  0.31323  0.44050  1.0000
  C   C532      1.0  0.45988  0.26650  0.33815  1.0000
  C   C533      1.0  0.49050  0.24124  0.34014  1.0000
  C   C534      1.0  0.47552  0.24239  0.40922  1.0000
  C   C535      1.0  0.46033  0.25495  0.40959  1.0000
  H   H267      1.0  0.47578  0.23414  0.46103  1.0000
  N   N65       1.0  0.44541  0.25597  0.47956  1.0000
  O   O129      1.0  0.43436  0.24330  0.48350  1.0000
  O   O130      1.0  0.45395  0.25815  0.55464  1.0000
  C   C536      1.0  0.56446  0.72971  0.33336  1.0000
  C   C537      1.0  0.56401  0.71623  0.39283  1.0000
  C   C538      1.0  0.58009  0.70450  0.39190  1.0000
  H   H268      1.0  0.55210  0.71497  0.43802  1.0000
  H   H269      1.0  0.57964  0.69517  0.43779  1.0000
  C   C539      1.0  0.54872  0.74197  0.33593  1.0000
  C   C540      1.0  0.51811  0.76723  0.33791  1.0000
  C   C541      1.0  0.53302  0.76603  0.40725  1.0000
  C   C542      1.0  0.54820  0.75346  0.40763  1.0000
  H   H270      1.0  0.53270  0.77424  0.45922  1.0000
  N   N66       1.0  0.56306  0.75239  0.47786  1.0000
  O   O131      1.0  0.57410  0.76506  0.48231  1.0000
  O   O132      1.0  0.55443  0.75016  0.55273  1.0000
  C   C543      1.0  0.09715  0.80242  0.34917  1.0000
  C   C544      1.0  0.09728  0.78902  0.40965  1.0000
  C   C545      1.0  0.08114  0.77738  0.40945  1.0000
  C   C546      1.0  0.03388  0.76538  0.41626  1.0000
  C   C547      1.0  0.01861  0.75289  0.41372  1.0000
  H   H271      1.0  0.00797  0.75216  0.46482  1.0000
  H   H272      1.0  0.10928  0.78752  0.45413  1.0000
  H   H273      1.0  0.08192  0.76770  0.45300  1.0000
  N   N67       1.0  0.03442  0.77684  0.48778  1.0000
  O   O133      1.0  0.03738  0.76988  0.56209  1.0000
  O   O134      1.0  0.01786  0.78497  0.49210  1.0000
  C   C548      1.0  0.91143  0.20605  0.35151  1.0000
  C   C549      1.0  0.91126  0.21949  0.41171  1.0000
  C   C550      1.0  0.92739  0.23114  0.41147  1.0000
  C   C551      1.0  0.97463  0.24315  0.41871  1.0000
  C   C552      1.0  0.98990  0.25563  0.41618  1.0000
  H   H274      1.0  0.00050  0.25639  0.46743  1.0000
  H   H275      1.0  0.89923  0.22102  0.45603  1.0000
  H   H276      1.0  0.92659  0.24084  0.45484  1.0000
  N   N68       1.0  0.97403  0.23174  0.49046  1.0000
  O   O135      1.0  0.97100  0.23874  0.56458  1.0000
  O   O136      1.0  0.99059  0.22360  0.49524  1.0000
  C   C553      1.0  0.12675  0.26505  0.34287  1.0000
  C   C554      1.0  0.13228  0.25240  0.40309  1.0000
  C   C555      1.0  0.15261  0.24593  0.40356  1.0000
  H   H277      1.0  0.12149  0.24772  0.44669  1.0000
  H   H278      1.0  0.15608  0.23691  0.44887  1.0000
  C   C556      1.0  0.10603  0.27134  0.34090  1.0000
  C   C557      1.0  0.06416  0.28311  0.33877  1.0000
  C   C558      1.0  0.07766  0.28698  0.41048  1.0000
  C   C559      1.0  0.09840  0.28108  0.41296  1.0000
  H   H279      1.0  0.07219  0.29372  0.46346  1.0000
  N   N69       1.0  0.11165  0.28479  0.48634  1.0000
  O   O137      1.0  0.11432  0.29996  0.49438  1.0000
  O   O138      1.0  0.10452  0.27927  0.55896  1.0000
  C   C560      1.0  0.88181  0.74345  0.34175  1.0000
  C   C561      1.0  0.87631  0.75610  0.40204  1.0000
  C   C562      1.0  0.85598  0.76257  0.40270  1.0000
  H   H280      1.0  0.88712  0.76078  0.44555  1.0000
  H   H281      1.0  0.85253  0.77159  0.44806  1.0000
  C   C563      1.0  0.90253  0.73717  0.33957  1.0000
  C   C564      1.0  0.94440  0.72539  0.33693  1.0000
  C   C565      1.0  0.93096  0.72155  0.40892  1.0000
  C   C566      1.0  0.91022  0.72747  0.41164  1.0000
  H   H282      1.0  0.93647  0.71483  0.46190  1.0000
  N   N70       1.0  0.89703  0.72379  0.48529  1.0000
  O   O139      1.0  0.89437  0.70862  0.49359  1.0000
  O   O140      1.0  0.90423  0.72934  0.55772  1.0000
  C   C567      1.0  0.34047  0.75195  0.33945  1.0000
  C   C568      1.0  0.34615  0.76467  0.39943  1.0000
  C   C569      1.0  0.36651  0.77107  0.40052  1.0000
  C   C570      1.0  0.41589  0.76758  0.41635  1.0000
  C   C571      1.0  0.43667  0.77336  0.41594  1.0000
  H   H283      1.0  0.44626  0.77035  0.46837  1.0000
  H   H284      1.0  0.33557  0.76921  0.44432  1.0000
  H   H285      1.0  0.37007  0.78019  0.44515  1.0000
  N   N71       1.0  0.40845  0.75772  0.48792  1.0000
  O   O141      1.0  0.40921  0.76523  0.56162  1.0000
  O   O142      1.0  0.41866  0.74466  0.49491  1.0000
  C   C572      1.0  0.66814  0.25655  0.34018  1.0000
  C   C573      1.0  0.66249  0.24384  0.40023  1.0000
  C   C574      1.0  0.64213  0.23743  0.40151  1.0000
  C   C575      1.0  0.59279  0.24088  0.41794  1.0000
  C   C576      1.0  0.57201  0.23509  0.41778  1.0000
  H   H286      1.0  0.56246  0.23808  0.47040  1.0000
  H   H287      1.0  0.67309  0.23929  0.44505  1.0000
  H   H288      1.0  0.63860  0.22832  0.44618  1.0000
  N   N72       1.0  0.60027  0.25071  0.48954  1.0000
  O   O143      1.0  0.59958  0.24317  0.56315  1.0000
  O   O144      1.0  0.59006  0.26376  0.49688  1.0000
