data_image0
_chemical_formula_structural       C8H7NC8H7NC8H7NC8H7NC8H7NC8H7NC7H2N2O4CHC7H2N2O4CHC7H2N2O4CHC2H2C3H2CHC2H2C3H2CHC2H2C3H2CHC2H2C3H2CHC2H2C3H2CHC2H2C3H2CHC10H5C6H3N2C10H5C6H3N2C10H5C6H3N2C10H5C6H3N2C10H5C6H3N2C10H5C6H3N2C2H2C3H2CHC2H2C3H2CHC2H2C3H2CHC7H2N2O4CHC7H2N2O4CHC7H2N2O4CHC7H2N2O4CHC7H2N2O4CHC7H2N2O4CH
_chemical_formula_sum              "C270 H162 N36 O36"
_cell_length_a       91.9787
_cell_length_b       91.9788
_cell_length_c       14.9796
_cell_angle_alpha    90
_cell_angle_beta     90
_cell_angle_gamma    120

_space_group_name_H-M_alt    "P 1"
_space_group_IT_number       1

loop_
  _space_group_symop_operation_xyz
  'x, y, z'

loop_
  _atom_site_type_symbol
  _atom_site_label
  _atom_site_symmetry_multiplicity
  _atom_site_fract_x
  _atom_site_fract_y
  _atom_site_fract_z
  _atom_site_occupancy
  C   C1        1.0  0.12590  0.56370  0.34423  1.0000
  C   C2        1.0  0.18596  0.54188  0.32199  1.0000
  C   C3        1.0  0.17581  0.54934  0.31909  1.0000
  C   C4        1.0  0.11725  0.55004  0.28479  1.0000
  C   C5        1.0  0.09960  0.54138  0.27950  1.0000
  C   C6        1.0  0.09009  0.54588  0.33492  1.0000
  C   C7        1.0  0.20380  0.64165  0.26695  1.0000
  C   C8        1.0  0.19317  0.62417  0.27095  1.0000
  H   H1        1.0  0.18357  0.53241  0.27820  1.0000
  H   H2        1.0  0.16634  0.54505  0.27299  1.0000
  H   H3        1.0  0.12375  0.54642  0.24361  1.0000
  H   H4        1.0  0.09372  0.53158  0.23575  1.0000
  H   H5        1.0  0.21344  0.64644  0.22186  1.0000
  H   H6        1.0  0.19522  0.61679  0.22744  1.0000
  H   H7        1.0  0.14690  0.59681  0.33450  1.0000
  N   N1        1.0  0.07344  0.53721  0.32772  1.0000
  C   C9        1.0  0.43801  0.56255  0.34411  1.0000
  C   C10       1.0  0.45989  0.64444  0.32224  1.0000
  C   C11       1.0  0.45240  0.62683  0.31910  1.0000
  C   C12       1.0  0.45168  0.56755  0.28471  1.0000
  C   C13       1.0  0.46032  0.55854  0.27943  1.0000
  C   C14       1.0  0.45581  0.54453  0.33486  1.0000
  C   C15       1.0  0.36007  0.56254  0.26712  1.0000
  C   C16       1.0  0.37755  0.56939  0.27104  1.0000
  H   H8        1.0  0.46938  0.65153  0.27859  1.0000
  H   H9        1.0  0.45670  0.62165  0.27305  1.0000
  H   H10       1.0  0.45530  0.57766  0.24348  1.0000
  H   H11       1.0  0.47012  0.56246  0.23567  1.0000
  H   H12       1.0  0.35527  0.56740  0.22208  1.0000
  H   H13       1.0  0.38492  0.57882  0.22752  1.0000
  H   H14       1.0  0.40491  0.55046  0.33437  1.0000
  N   N2        1.0  0.46446  0.53654  0.32766  1.0000
  C   C17       1.0  0.43916  0.87581  0.34418  1.0000
  C   C18       1.0  0.35728  0.81576  0.32202  1.0000
  C   C19       1.0  0.37489  0.82592  0.31913  1.0000
  C   C20       1.0  0.43415  0.88447  0.28479  1.0000
  C   C21       1.0  0.44315  0.90212  0.27951  1.0000
  C   C22       1.0  0.45716  0.91163  0.33495  1.0000
  C   C23       1.0  0.43915  0.79788  0.26677  1.0000
  C   C24       1.0  0.43233  0.80854  0.27070  1.0000
  H   H15       1.0  0.35020  0.81817  0.27832  1.0000
  H   H16       1.0  0.38007  0.83539  0.27303  1.0000
  H   H17       1.0  0.42404  0.87798  0.24355  1.0000
  H   H18       1.0  0.43923  0.90801  0.23575  1.0000
  H   H19       1.0  0.43428  0.78823  0.22173  1.0000
  H   H20       1.0  0.42290  0.80649  0.22725  1.0000
  H   H21       1.0  0.45126  0.85481  0.33434  1.0000
  N   N3        1.0  0.46514  0.92828  0.32776  1.0000
  C   C25       1.0  0.87632  0.43982  0.34346  1.0000
  C   C26       1.0  0.81521  0.46001  0.32805  1.0000
  C   C27       1.0  0.82558  0.45281  0.32473  1.0000
  C   C28       1.0  0.88484  0.45528  0.29673  1.0000
  C   C29       1.0  0.90249  0.46449  0.29226  1.0000
  C   C30       1.0  0.91216  0.45832  0.33264  1.0000
  C   C31       1.0  0.79904  0.36102  0.26248  1.0000
  C   C32       1.0  0.80954  0.37853  0.26653  1.0000
  H   H22       1.0  0.81761  0.46964  0.28540  1.0000
  H   H23       1.0  0.83522  0.45747  0.27958  1.0000
  H   H24       1.0  0.87827  0.45998  0.26453  1.0000
  H   H25       1.0  0.90824  0.47565  0.25842  1.0000
  H   H26       1.0  0.78934  0.35616  0.21773  1.0000
  H   H27       1.0  0.80734  0.38586  0.22350  1.0000
  H   H28       1.0  0.85563  0.40654  0.32766  1.0000
  N   N4        1.0  0.92879  0.46760  0.33023  1.0000
  C   C33       1.0  0.56188  0.43684  0.34356  1.0000
  C   C34       1.0  0.54173  0.35555  0.32770  1.0000
  C   C35       1.0  0.54892  0.37312  0.32456  1.0000
  C   C36       1.0  0.54643  0.42990  0.29678  1.0000
  C   C37       1.0  0.53722  0.43834  0.29228  1.0000
  C   C38       1.0  0.54339  0.45419  0.33258  1.0000
  C   C39       1.0  0.64070  0.43841  0.26253  1.0000
  C   C40       1.0  0.62319  0.43139  0.26663  1.0000
  H   H29       1.0  0.53210  0.34833  0.28509  1.0000
  H   H30       1.0  0.54426  0.37811  0.27945  1.0000
  H   H31       1.0  0.54173  0.41863  0.26459  1.0000
  H   H32       1.0  0.52606  0.43293  0.25840  1.0000
  H   H33       1.0  0.64556  0.43360  0.21765  1.0000
  H   H34       1.0  0.61586  0.42186  0.22351  1.0000
  H   H35       1.0  0.59517  0.44943  0.32788  1.0000
  N   N5        1.0  0.53411  0.46153  0.33017  1.0000
  C   C41       1.0  0.56487  0.12540  0.34335  1.0000
  C   C42       1.0  0.64617  0.18651  0.32788  1.0000
  C   C43       1.0  0.62860  0.17614  0.32451  1.0000
  C   C44       1.0  0.57180  0.11687  0.29656  1.0000
  C   C45       1.0  0.56336  0.09923  0.29206  1.0000
  C   C46       1.0  0.54752  0.08956  0.33243  1.0000
  C   C47       1.0  0.56332  0.20267  0.26295  1.0000
  C   C48       1.0  0.57035  0.19219  0.26694  1.0000
  H   H36       1.0  0.65340  0.18408  0.28539  1.0000
  H   H37       1.0  0.62361  0.16649  0.27943  1.0000
  H   H38       1.0  0.58307  0.12345  0.26432  1.0000
  H   H39       1.0  0.56877  0.09348  0.25816  1.0000
  H   H40       1.0  0.56813  0.21236  0.21814  1.0000
  H   H41       1.0  0.57987  0.19440  0.22381  1.0000
  H   H42       1.0  0.55228  0.14609  0.32782  1.0000
  N   N6        1.0  0.54018  0.07293  0.33007  1.0000
  C   C49       1.0  0.95655  0.47429  0.31035  1.0000
  C   C50       1.0  0.96722  0.47693  0.23619  1.0000
  C   C51       1.0  0.98483  0.48730  0.24632  1.0000
  C   C52       1.0  0.99207  0.49504  0.32869  1.0000
  C   C53       1.0  0.00986  0.50460  0.33979  1.0000
  C   C54       1.0  0.02030  0.51870  0.28546  1.0000
  C   C55       1.0  0.03787  0.52777  0.30113  1.0000
  H   H43       1.0  0.04524  0.53815  0.26302  1.0000
  H   H44       1.0  0.99244  0.48877  0.19319  1.0000
  N   N7        1.0  0.01297  0.52399  0.21912  1.0000
  N   N8        1.0  0.96013  0.46919  0.15333  1.0000
  O   O1        1.0  0.01859  0.52387  0.14282  1.0000
  O   O2        1.0  0.96532  0.45951  0.12905  1.0000
  O   O3        1.0  0.01549  0.53850  0.23476  1.0000
  O   O4        1.0  0.96346  0.47993  0.09316  1.0000
  C   C56       1.0  0.93943  0.46319  0.30593  1.0000
  H   H45       1.0  0.93547  0.45159  0.28387  1.0000
  C   C57       1.0  0.52741  0.48259  0.31034  1.0000
  C   C58       1.0  0.52478  0.49063  0.23619  1.0000
  C   C59       1.0  0.51441  0.49787  0.24630  1.0000
  C   C60       1.0  0.50665  0.49736  0.32864  1.0000
  C   C61       1.0  0.49709  0.50558  0.33973  1.0000
  C   C62       1.0  0.48298  0.50191  0.28539  1.0000
  C   C63       1.0  0.47390  0.51040  0.30106  1.0000
  H   H46       1.0  0.46353  0.50738  0.26293  1.0000
  H   H47       1.0  0.51293  0.50401  0.19316  1.0000
  N   N9        1.0  0.47770  0.48929  0.21904  1.0000
  N   N10       1.0  0.53252  0.49128  0.15334  1.0000
  O   O5        1.0  0.47782  0.49503  0.14275  1.0000
  O   O6        1.0  0.54220  0.50616  0.12909  1.0000
  O   O7        1.0  0.46320  0.47730  0.23466  1.0000
  O   O8        1.0  0.52178  0.48387  0.09314  1.0000
  C   C64       1.0  0.53852  0.47659  0.30598  1.0000
  H   H48       1.0  0.55013  0.48424  0.28401  1.0000
  C   C65       1.0  0.51911  0.04516  0.31029  1.0000
  C   C66       1.0  0.51108  0.03449  0.23615  1.0000
  C   C67       1.0  0.50384  0.01688  0.24631  1.0000
  C   C68       1.0  0.50434  0.00965  0.32868  1.0000
  C   C69       1.0  0.49612  0.99186  0.33981  1.0000
  C   C70       1.0  0.49978  0.98141  0.28548  1.0000
  C   C71       1.0  0.49128  0.96384  0.30115  1.0000
  H   H49       1.0  0.49428  0.95648  0.26305  1.0000
  H   H50       1.0  0.49769  0.00926  0.19319  1.0000
  N   N11       1.0  0.51239  0.98874  0.21912  1.0000
  N   N12       1.0  0.51042  0.04158  0.15328  1.0000
  O   O9        1.0  0.50665  0.98312  0.14283  1.0000
  O   O10       1.0  0.49555  0.03638  0.12902  1.0000
  O   O11       1.0  0.52438  0.98622  0.23474  1.0000
  O   O12       1.0  0.51783  0.03825  0.09310  1.0000
  C   C72       1.0  0.52512  0.06229  0.30584  1.0000
  H   H51       1.0  0.51747  0.06624  0.28381  1.0000
  C   C73       1.0  0.24445  0.52335  0.26387  1.0000
  C   C74       1.0  0.22904  0.52287  0.27433  1.0000
  H   H52       1.0  0.24690  0.51947  0.20451  1.0000
  H   H53       1.0  0.22083  0.51882  0.22167  1.0000
  C   C75       1.0  0.30615  0.53793  0.28546  1.0000
  C   C76       1.0  0.29862  0.54446  0.22815  1.0000
  C   C77       1.0  0.28231  0.54143  0.24440  1.0000
  H   H54       1.0  0.30508  0.55183  0.17474  1.0000
  H   H55       1.0  0.27751  0.54677  0.20239  1.0000
  C   C78       1.0  0.32249  0.54167  0.26858  1.0000
  H   H56       1.0  0.32649  0.54358  0.20559  1.0000
  C   C79       1.0  0.47832  0.72139  0.26405  1.0000
  C   C80       1.0  0.47883  0.70648  0.27463  1.0000
  H   H57       1.0  0.48217  0.72769  0.20462  1.0000
  H   H58       1.0  0.48289  0.70232  0.22204  1.0000
  C   C81       1.0  0.46366  0.76846  0.28538  1.0000
  C   C82       1.0  0.45713  0.75438  0.22818  1.0000
  C   C83       1.0  0.46019  0.74113  0.24448  1.0000
  H   H59       1.0  0.44976  0.75345  0.17474  1.0000
  H   H60       1.0  0.45486  0.73098  0.20253  1.0000
  C   C84       1.0  0.45989  0.78103  0.26843  1.0000
  H   H61       1.0  0.45797  0.78311  0.20542  1.0000
  C   C85       1.0  0.28027  0.75726  0.26394  1.0000
  C   C86       1.0  0.29520  0.77267  0.27443  1.0000
  H   H62       1.0  0.27396  0.75481  0.20456  1.0000
  H   H63       1.0  0.29937  0.78088  0.22175  1.0000
  C   C87       1.0  0.23316  0.69557  0.28547  1.0000
  C   C88       1.0  0.24723  0.70309  0.22823  1.0000
  C   C89       1.0  0.26051  0.71940  0.24452  1.0000
  H   H64       1.0  0.24815  0.69663  0.17483  1.0000
  H   H65       1.0  0.27066  0.72420  0.20255  1.0000
  C   C90       1.0  0.22056  0.67924  0.26854  1.0000
  H   H66       1.0  0.21848  0.67524  0.20553  1.0000
  C   C91       1.0  0.75641  0.47777  0.26661  1.0000
  C   C92       1.0  0.77182  0.47830  0.27840  1.0000
  H   H67       1.0  0.75413  0.48173  0.20711  1.0000
  H   H68       1.0  0.78022  0.48250  0.22657  1.0000
  C   C93       1.0  0.69464  0.46307  0.28330  1.0000
  C   C94       1.0  0.70232  0.45659  0.22665  1.0000
  C   C95       1.0  0.71859  0.45962  0.24412  1.0000
  H   H69       1.0  0.69600  0.44928  0.17279  1.0000
  H   H70       1.0  0.72351  0.45434  0.20253  1.0000
  C   C96       1.0  0.67831  0.45928  0.26536  1.0000
  H   H71       1.0  0.67441  0.45731  0.20218  1.0000
  C   C97       1.0  0.52390  0.27894  0.26649  1.0000
  C   C98       1.0  0.52338  0.29382  0.27818  1.0000
  H   H72       1.0  0.51991  0.27268  0.20703  1.0000
  H   H73       1.0  0.51919  0.29801  0.22628  1.0000
  C   C99       1.0  0.53855  0.23184  0.28340  1.0000
  C   C100      1.0  0.54502  0.24597  0.22666  1.0000
  C   C101      1.0  0.54201  0.25923  0.24408  1.0000
  H   H74       1.0  0.55234  0.24696  0.17284  1.0000
  H   H75       1.0  0.54731  0.26943  0.20245  1.0000
  C   C102      1.0  0.54233  0.21929  0.26555  1.0000
  H   H76       1.0  0.54430  0.21735  0.20240  1.0000
  C   C103      1.0  0.72271  0.24529  0.26665  1.0000
  C   C104      1.0  0.70784  0.22987  0.27848  1.0000
  H   H77       1.0  0.72895  0.24757  0.20712  1.0000
  H   H78       1.0  0.70365  0.22147  0.22667  1.0000
  C   C105      1.0  0.76976  0.30708  0.28325  1.0000
  C   C106      1.0  0.75560  0.29939  0.22661  1.0000
  C   C107      1.0  0.74237  0.28311  0.24410  1.0000
  H   H79       1.0  0.75460  0.30570  0.17275  1.0000
  H   H80       1.0  0.73217  0.27818  0.20253  1.0000
  C   C108      1.0  0.78228  0.32341  0.26531  1.0000
  H   H81       1.0  0.78421  0.32732  0.20214  1.0000
  C   C109      1.0  0.17942  0.56334  0.37347  1.0000
  C   C110      1.0  0.18029  0.61683  0.33570  1.0000
  C   C111      1.0  0.19317  0.56922  0.43317  1.0000
  C   C112      1.0  0.20334  0.56182  0.43587  1.0000
  C   C113      1.0  0.19993  0.54815  0.38006  1.0000
  C   C114      1.0  0.09866  0.55965  0.39362  1.0000
  C   C115      1.0  0.11631  0.56845  0.39802  1.0000
  C   C116      1.0  0.17812  0.62755  0.39519  1.0000
  C   C117      1.0  0.18893  0.64508  0.39182  1.0000
  C   C118      1.0  0.20181  0.65234  0.32736  1.0000
  H   H82       1.0  0.21356  0.56681  0.47736  1.0000
  H   H83       1.0  0.12209  0.57820  0.44213  1.0000
  H   H84       1.0  0.09210  0.56341  0.43334  1.0000
  H   H85       1.0  0.16928  0.62262  0.44466  1.0000
  H   H86       1.0  0.18756  0.65249  0.43809  1.0000
  C   C119      1.0  0.17082  0.59907  0.34521  1.0000
  C   C120      1.0  0.15308  0.59025  0.34380  1.0000
  C   C121      1.0  0.14379  0.57250  0.34925  1.0000
  C   C122      1.0  0.15266  0.56368  0.35883  1.0000
  C   C123      1.0  0.17039  0.57215  0.36359  1.0000
  C   C124      1.0  0.17921  0.58984  0.35550  1.0000
  H   H87       1.0  0.14607  0.55088  0.36521  1.0000
  H   H88       1.0  0.19207  0.59617  0.35652  1.0000
  H   H89       1.0  0.19620  0.57928  0.47386  1.0000
  N   N13       1.0  0.21282  0.66871  0.33191  1.0000
  N   N14       1.0  0.21121  0.54318  0.37859  1.0000
  C   C125      1.0  0.43839  0.61644  0.37346  1.0000
  C   C126      1.0  0.38489  0.56383  0.33568  1.0000
  C   C127      1.0  0.43253  0.62430  0.43327  1.0000
  C   C128      1.0  0.43994  0.64187  0.43611  1.0000
  C   C129      1.0  0.45364  0.65214  0.38048  1.0000
  C   C130      1.0  0.44204  0.53935  0.39355  1.0000
  C   C131      1.0  0.43325  0.54821  0.39789  1.0000
  C   C132      1.0  0.37418  0.55095  0.39519  1.0000
  C   C133      1.0  0.35665  0.54422  0.39187  1.0000
  C   C134      1.0  0.34938  0.54986  0.32754  1.0000
  H   H90       1.0  0.43496  0.64709  0.47770  1.0000
  H   H91       1.0  0.42350  0.54424  0.44202  1.0000
  H   H92       1.0  0.43827  0.52903  0.43328  1.0000
  H   H93       1.0  0.37911  0.54700  0.44447  1.0000
  H   H94       1.0  0.34924  0.53541  0.43803  1.0000
  C   C135      1.0  0.40266  0.57212  0.34508  1.0000
  C   C136      1.0  0.41147  0.56320  0.34359  1.0000
  C   C137      1.0  0.42921  0.57164  0.34907  1.0000
  C   C138      1.0  0.43805  0.58934  0.35868  1.0000
  C   C139      1.0  0.42958  0.59860  0.36347  1.0000
  C   C140      1.0  0.41189  0.58974  0.35540  1.0000
  H   H95       1.0  0.45085  0.59554  0.36509  1.0000
  H   H96       1.0  0.40556  0.59627  0.35649  1.0000
  H   H97       1.0  0.42245  0.61727  0.47386  1.0000
  N   N15       1.0  0.33301  0.54447  0.33201  1.0000
  N   N16       1.0  0.45862  0.66839  0.37925  1.0000
  C   C141      1.0  0.38528  0.82229  0.37343  1.0000
  C   C142      1.0  0.43789  0.82142  0.33549  1.0000
  C   C143      1.0  0.37741  0.80855  0.43314  1.0000
  C   C144      1.0  0.35984  0.79838  0.43587  1.0000
  C   C145      1.0  0.34958  0.80179  0.38006  1.0000
  C   C146      1.0  0.46235  0.90305  0.39363  1.0000
  C   C147      1.0  0.45350  0.88540  0.39798  1.0000
  C   C148      1.0  0.45076  0.82356  0.39502  1.0000
  C   C149      1.0  0.45747  0.81275  0.39160  1.0000
  C   C150      1.0  0.45182  0.79985  0.32724  1.0000
  H   H98       1.0  0.35462  0.78816  0.47737  1.0000
  H   H99       1.0  0.45747  0.87961  0.44208  1.0000
  H   H100      1.0  0.47267  0.90961  0.43336  1.0000
  H   H101      1.0  0.45471  0.83243  0.44439  1.0000
  H   H102      1.0  0.46626  0.81411  0.43786  1.0000
  C   C151      1.0  0.42961  0.83090  0.34502  1.0000
  C   C152      1.0  0.43852  0.84863  0.34371  1.0000
  C   C153      1.0  0.43007  0.85793  0.34915  1.0000
  C   C154      1.0  0.41238  0.84906  0.35869  1.0000
  C   C155      1.0  0.40312  0.83133  0.36350  1.0000
  C   C156      1.0  0.41199  0.82251  0.35536  1.0000
  H   H103      1.0  0.40617  0.85565  0.36520  1.0000
  H   H104      1.0  0.40546  0.80965  0.35637  1.0000
  H   H105      1.0  0.38445  0.80551  0.47378  1.0000
  N   N17       1.0  0.45717  0.78883  0.33175  1.0000
  N   N18       1.0  0.33333  0.79052  0.37873  1.0000
  C   C157      1.0  0.82200  0.43860  0.37728  1.0000
  C   C158      1.0  0.82242  0.38594  0.33124  1.0000
  C   C159      1.0  0.80798  0.43220  0.43537  1.0000
  C   C160      1.0  0.79757  0.43933  0.43842  1.0000
  C   C161      1.0  0.80100  0.45325  0.38455  1.0000
  C   C162      1.0  0.90386  0.44299  0.37981  1.0000
  C   C163      1.0  0.88621  0.43389  0.38496  1.0000
  C   C164      1.0  0.82475  0.37530  0.39053  1.0000
  C   C165      1.0  0.81407  0.35775  0.38713  1.0000
  C   C166      1.0  0.80115  0.35040  0.32294  1.0000
  H   H106      1.0  0.78718  0.43398  0.47868  1.0000
  H   H107      1.0  0.88068  0.42303  0.42141  1.0000
  H   H108      1.0  0.91063  0.43851  0.41197  1.0000
  H   H109      1.0  0.83356  0.38029  0.44012  1.0000
  H   H110      1.0  0.81551  0.35039  0.43350  1.0000
  C   C167      1.0  0.83157  0.40368  0.34205  1.0000
  C   C168      1.0  0.84930  0.41286  0.33992  1.0000
  C   C169      1.0  0.85835  0.43058  0.34890  1.0000
  C   C170      1.0  0.84907  0.43891  0.36241  1.0000
  C   C171      1.0  0.83133  0.43011  0.36631  1.0000
  C   C172      1.0  0.82284  0.41250  0.35524  1.0000
  H   H111      1.0  0.85535  0.45164  0.37194  1.0000
  H   H112      1.0  0.80997  0.40592  0.35612  1.0000
  H   H113      1.0  0.80494  0.42195  0.47455  1.0000
  N   N19       1.0  0.79018  0.33403  0.32804  1.0000
  N   N20       1.0  0.78956  0.45801  0.38298  1.0000
  C   C173      1.0  0.56312  0.38374  0.37716  1.0000
  C   C174      1.0  0.61577  0.43684  0.33140  1.0000
  C   C175      1.0  0.56952  0.37611  0.43524  1.0000
  C   C176      1.0  0.56239  0.35857  0.43817  1.0000
  C   C177      1.0  0.54849  0.34809  0.38421  1.0000
  C   C178      1.0  0.55872  0.46121  0.37980  1.0000
  C   C179      1.0  0.56781  0.45266  0.38507  1.0000
  C   C180      1.0  0.62641  0.44979  0.39076  1.0000
  C   C181      1.0  0.64396  0.45667  0.38733  1.0000
  C   C182      1.0  0.65132  0.45114  0.32295  1.0000
  H   H114      1.0  0.56774  0.35353  0.47841  1.0000
  H   H115      1.0  0.57867  0.45799  0.42155  1.0000
  H   H116      1.0  0.56319  0.47246  0.41203  1.0000
  H   H117      1.0  0.62142  0.45360  0.44041  1.0000
  H   H118      1.0  0.65132  0.46546  0.43371  1.0000
  C   C183      1.0  0.59803  0.42824  0.34220  1.0000
  C   C184      1.0  0.58885  0.43678  0.34005  1.0000
  C   C185      1.0  0.57113  0.42811  0.34903  1.0000
  C   C186      1.0  0.56280  0.41049  0.36249  1.0000
  C   C187      1.0  0.57160  0.40156  0.36634  1.0000
  C   C188      1.0  0.58922  0.41069  0.35532  1.0000
  H   H119      1.0  0.55007  0.40404  0.37195  1.0000
  H   H120      1.0  0.59580  0.40441  0.35616  1.0000
  H   H121      1.0  0.57976  0.38331  0.47448  1.0000
  N   N21       1.0  0.66769  0.45654  0.32810  1.0000
  N   N22       1.0  0.54373  0.33189  0.38250  1.0000
  C   C189      1.0  0.61798  0.17972  0.37714  1.0000
  C   C190      1.0  0.56488  0.17930  0.33156  1.0000
  C   C191      1.0  0.62560  0.19372  0.43536  1.0000
  C   C192      1.0  0.64314  0.20412  0.43841  1.0000
  C   C193      1.0  0.65363  0.20068  0.38460  1.0000
  C   C194      1.0  0.54050  0.09786  0.37968  1.0000
  C   C195      1.0  0.54905  0.11550  0.38488  1.0000
  C   C196      1.0  0.55193  0.17696  0.39092  1.0000
  C   C197      1.0  0.54503  0.18762  0.38757  1.0000
  C   C198      1.0  0.55058  0.20053  0.32338  1.0000
  H   H122      1.0  0.64818  0.21450  0.47878  1.0000
  H   H123      1.0  0.54373  0.12103  0.42146  1.0000
  H   H124      1.0  0.52926  0.09108  0.41197  1.0000
  H   H125      1.0  0.54808  0.16811  0.44034  1.0000
  H   H126      1.0  0.53620  0.18614  0.43384  1.0000
  C   C199      1.0  0.57349  0.17015  0.34218  1.0000
  C   C200      1.0  0.56494  0.15242  0.33990  1.0000
  C   C201      1.0  0.57360  0.14337  0.34884  1.0000
  C   C202      1.0  0.59122  0.15265  0.36230  1.0000
  C   C203      1.0  0.60016  0.17039  0.36624  1.0000
  C   C204      1.0  0.59104  0.17888  0.35530  1.0000
  H   H127      1.0  0.59767  0.14637  0.37174  1.0000
  H   H128      1.0  0.59732  0.19174  0.35625  1.0000
  H   H129      1.0  0.61839  0.19676  0.47452  1.0000
  N   N23       1.0  0.54513  0.21147  0.32841  1.0000
  N   N24       1.0  0.66983  0.21212  0.38315  1.0000
  C   C205      1.0  0.98124  0.49240  0.40142  1.0000
  C   C206      1.0  0.96376  0.48219  0.39249  1.0000
  H   H130      1.0  0.98602  0.49776  0.46218  1.0000
  H   H131      1.0  0.95638  0.48025  0.44746  1.0000
  C   C207      1.0  0.04526  0.52315  0.37007  1.0000
  C   C208      1.0  0.03476  0.50914  0.42349  1.0000
  C   C209      1.0  0.01737  0.49997  0.40823  1.0000
  H   H132      1.0  0.03967  0.50546  0.47429  1.0000
  H   H133      1.0  0.01020  0.48980  0.44806  1.0000
  C   C210      1.0  0.06223  0.53250  0.38929  1.0000
  H   H134      1.0  0.06572  0.53490  0.45300  1.0000
  C   C211      1.0  0.50930  0.48917  0.40139  1.0000
  C   C212      1.0  0.51950  0.48190  0.39246  1.0000
  H   H135      1.0  0.50393  0.48859  0.46215  1.0000
  H   H136      1.0  0.52145  0.47647  0.44746  1.0000
  C   C213      1.0  0.47851  0.52241  0.36996  1.0000
  C   C214      1.0  0.49253  0.52593  0.42342  1.0000
  C   C215      1.0  0.50171  0.51772  0.40817  1.0000
  H   H137      1.0  0.49619  0.53451  0.47422  1.0000
  H   H138      1.0  0.51187  0.52072  0.44802  1.0000
  C   C216      1.0  0.46914  0.53001  0.38921  1.0000
  H   H139      1.0  0.46676  0.53111  0.45294  1.0000
  C   C217      1.0  0.51254  0.02048  0.40140  1.0000
  C   C218      1.0  0.51980  0.03796  0.39243  1.0000
  H   H140      1.0  0.51312  0.01571  0.46216  1.0000
  H   H141      1.0  0.52524  0.04534  0.44739  1.0000
  C   C219      1.0  0.47927  0.95645  0.37011  1.0000
  C   C220      1.0  0.47576  0.96696  0.42355  1.0000
  C   C221      1.0  0.48398  0.98435  0.40827  1.0000
  H   H142      1.0  0.46718  0.96205  0.47436  1.0000
  H   H143      1.0  0.48098  0.99152  0.44810  1.0000
  C   C222      1.0  0.47164  0.93948  0.38933  1.0000
  H   H144      1.0  0.47056  0.93599  0.45305  1.0000
  C   C223      1.0  0.22532  0.52867  0.35371  1.0000
  C   C224      1.0  0.23719  0.53449  0.42462  1.0000
  C   C225      1.0  0.25267  0.53487  0.41298  1.0000
  C   C226      1.0  0.25659  0.52952  0.33264  1.0000
  C   C227      1.0  0.27288  0.53166  0.31816  1.0000
  C   C228      1.0  0.28020  0.52485  0.37607  1.0000
  C   C229      1.0  0.29673  0.52807  0.35902  1.0000
  H   H145      1.0  0.30187  0.52306  0.40095  1.0000
  H   H146      1.0  0.26142  0.53973  0.46296  1.0000
  N   N25       1.0  0.27074  0.51457  0.44850  1.0000
  N   N26       1.0  0.23352  0.53999  0.50549  1.0000
  O   O13       1.0  0.27783  0.52055  0.52193  1.0000
  O   O14       1.0  0.23341  0.53132  0.57062  1.0000
  O   O15       1.0  0.26842  0.49995  0.44104  1.0000
  O   O16       1.0  0.24392  0.55515  0.52093  1.0000
  C   C230      1.0  0.21063  0.52942  0.35633  1.0000
  H   H147      1.0  0.20003  0.51981  0.33330  1.0000
  C   C231      1.0  0.47307  0.69698  0.35414  1.0000
  C   C232      1.0  0.46726  0.70305  0.42504  1.0000
  C   C233      1.0  0.46685  0.71814  0.41326  1.0000
  C   C234      1.0  0.47215  0.72737  0.33278  1.0000
  C   C235      1.0  0.46998  0.74149  0.31823  1.0000
  C   C236      1.0  0.47679  0.75565  0.37604  1.0000
  C   C237      1.0  0.47354  0.76893  0.35891  1.0000
  H   H148      1.0  0.47855  0.77910  0.40076  1.0000
  H   H149      1.0  0.46199  0.72202  0.46322  1.0000
  N   N27       1.0  0.48709  0.75650  0.44842  1.0000
  N   N28       1.0  0.46181  0.69392  0.50604  1.0000
  O   O17       1.0  0.48111  0.75761  0.52187  1.0000
  O   O18       1.0  0.47050  0.70251  0.57103  1.0000
  O   O19       1.0  0.50170  0.76881  0.44084  1.0000
  O   O20       1.0  0.44665  0.68914  0.52164  1.0000
  C   C238      1.0  0.47239  0.68158  0.35708  1.0000
  H   H150      1.0  0.48195  0.68058  0.33337  1.0000
  C   C239      1.0  0.30472  0.77641  0.35384  1.0000
  C   C240      1.0  0.29866  0.76454  0.42476  1.0000
  C   C241      1.0  0.28356  0.74905  0.41310  1.0000
  C   C242      1.0  0.27431  0.74513  0.33272  1.0000
  C   C243      1.0  0.26017  0.72884  0.31824  1.0000
  C   C244      1.0  0.24602  0.72151  0.37609  1.0000
  C   C245      1.0  0.23271  0.70498  0.35901  1.0000
  H   H151      1.0  0.22255  0.69985  0.40089  1.0000
  H   H152      1.0  0.27968  0.74031  0.46310  1.0000
  N   N29       1.0  0.24519  0.73098  0.44848  1.0000
  N   N30       1.0  0.30782  0.76822  0.50567  1.0000
  O   O21       1.0  0.24408  0.72389  0.52193  1.0000
  O   O22       1.0  0.29926  0.76833  0.57075  1.0000
  O   O23       1.0  0.23290  0.73330  0.44094  1.0000
  O   O24       1.0  0.31259  0.75782  0.52118  1.0000
  C   C246      1.0  0.32015  0.79110  0.35652  1.0000
  H   H153      1.0  0.32115  0.80170  0.33323  1.0000
  C   C247      1.0  0.77533  0.47240  0.35809  1.0000
  C   C248      1.0  0.76324  0.46640  0.42791  1.0000
  C   C249      1.0  0.74777  0.46598  0.41497  1.0000
  C   C250      1.0  0.74407  0.47144  0.33432  1.0000
  C   C251      1.0  0.72782  0.46931  0.31855  1.0000
  C   C252      1.0  0.72035  0.47607  0.37578  1.0000
  C   C253      1.0  0.70386  0.47286  0.35746  1.0000
  H   H154      1.0  0.69861  0.47782  0.39895  1.0000
  H   H155      1.0  0.73887  0.46101  0.46417  1.0000
  N   N31       1.0  0.72963  0.48628  0.44881  1.0000
  N   N32       1.0  0.76671  0.46080  0.50902  1.0000
  O   O25       1.0  0.72235  0.48023  0.52176  1.0000
  O   O26       1.0  0.76658  0.46932  0.57423  1.0000
  O   O27       1.0  0.73197  0.50091  0.44135  1.0000
  O   O28       1.0  0.75631  0.44559  0.52347  1.0000
  C   C254      1.0  0.79010  0.47182  0.36228  1.0000
  H   H156      1.0  0.80073  0.48159  0.34076  1.0000
  C   C255      1.0  0.52930  0.30326  0.35778  1.0000
  C   C256      1.0  0.53532  0.29718  0.42761  1.0000
  C   C257      1.0  0.53572  0.28212  0.41476  1.0000
  C   C258      1.0  0.53022  0.27293  0.33423  1.0000
  C   C259      1.0  0.53234  0.25880  0.31852  1.0000
  C   C260      1.0  0.52558  0.24458  0.37584  1.0000
  C   C261      1.0  0.52878  0.23130  0.35759  1.0000
  H   H157      1.0  0.52382  0.22109  0.39915  1.0000
  H   H158      1.0  0.54069  0.27819  0.46399  1.0000
  N   N33       1.0  0.51538  0.24368  0.44890  1.0000
  N   N34       1.0  0.54095  0.30628  0.50861  1.0000
  O   O29       1.0  0.52145  0.24247  0.52184  1.0000
  O   O30       1.0  0.53244  0.29765  0.57393  1.0000
  O   O31       1.0  0.50075  0.23140  0.44155  1.0000
  O   O32       1.0  0.55616  0.31108  0.52295  1.0000
  C   C262      1.0  0.52992  0.31862  0.36172  1.0000
  H   H159      1.0  0.52013  0.31949  0.34061  1.0000
  C   C263      1.0  0.69844  0.22635  0.35821  1.0000
  C   C264      1.0  0.70453  0.23845  0.42801  1.0000
  C   C265      1.0  0.71958  0.25393  0.41502  1.0000
  C   C266      1.0  0.72873  0.25763  0.33435  1.0000
  C   C267      1.0  0.74283  0.27388  0.31855  1.0000
  C   C268      1.0  0.75707  0.28137  0.37576  1.0000
  C   C269      1.0  0.77033  0.29786  0.35742  1.0000
  H   H160      1.0  0.78055  0.30312  0.39891  1.0000
  H   H161      1.0  0.72350  0.26283  0.46421  1.0000
  N   N35       1.0  0.75801  0.27210  0.44880  1.0000
  N   N36       1.0  0.69547  0.23498  0.50915  1.0000
  O   O33       1.0  0.75923  0.27937  0.52174  1.0000
  O   O34       1.0  0.70414  0.23512  0.57433  1.0000
  O   O35       1.0  0.77030  0.26977  0.44133  1.0000
  O   O36       1.0  0.69066  0.24537  0.52363  1.0000
  C   C270      1.0  0.68311  0.21158  0.36248  1.0000
  H   H162      1.0  0.68223  0.20096  0.34069  1.0000
