data_image0
_chemical_formula_structural       C3HOHC3HOHC3H2C3H2C3H2C3H2C3H2C3H2C3HOHC3HOHC3H2C3H2C3HOHC3HOHC3H2C3H2C3H2C3H2C3HOHC3HOHC3H2C3H2C3HOHC3HOHC3H2C3H2C3H2C3H2C3HOHC3HOHC6H3C6H3C6H3C6H3C6H3C6H3C6H3C6H3C6H3C6H3C6H3C6H3C6H3C6H3C6H3C6H3C6H3C6H3C6H3C6H3C3H2C3H2C3HOHC3HOHC3HOHC3HOHC3HOHC3HOHC3H2C3H2C3HOHC3HOHC3H2C3H2C3HOHC3HOHC3HOHC3HOHC3H2C3H2C3HOHC3HOHC3H2C3H2C3HOHC3HOHC3HOHC3HOHC3H2C3H2C3HOHC3HOHC3H2C3H2C3H2C3H2C3H2C3H2C3HOHC3HOHC3H2C3H2C3HOHC3HOHC3H2C3H2C3H2C3H2C3HOHC3HOHC3H2C3H2C3HOHC3HOHC3H2C3H2C3H2C3H2C3HOHC3HOHC6H3C6H3C6H3C6H3C6H3C6H3C6H3C6H3C6H3C6H3C6H3C6H3C6H3C6H3C6H3C6H3C6H3C6H3C6H3C6H3C3H2C3H2C3HOHC3HOHC3HOHC3HOHC3HOHC3HOHC3H2C3H2C3HOHC3HOHC3H2C3H2C3HOHC3HOHC3HOHC3HOHC3H2C3H2C3HOHC3HOHC3H2C3H2C3HOHC3HOHC3HOHC3HOHC3H2C3H2
_chemical_formula_sum              "C600 H360 O60"
_cell_length_a       85.4081
_cell_length_b       44.9886
_cell_length_c       14.9079
_cell_angle_alpha    90
_cell_angle_beta     90
_cell_angle_gamma    90

_space_group_name_H-M_alt    "P 1"
_space_group_IT_number       1

loop_
  _space_group_symop_operation_xyz
  'x, y, z'

loop_
  _atom_site_type_symbol
  _atom_site_label
  _atom_site_symmetry_multiplicity
  _atom_site_fract_x
  _atom_site_fract_y
  _atom_site_fract_z
  _atom_site_occupancy
  C   C1        1.0  0.23676  0.13403  0.34505  1.0000
  C   C2        1.0  0.24323  0.12230  0.26507  1.0000
  C   C3        1.0  0.25940  0.11612  0.26006  1.0000
  H   H1        1.0  0.26376  0.10653  0.20296  1.0000
  O   O1        1.0  0.23414  0.11662  0.19205  1.0000
  H   H2        1.0  0.23419  0.13489  0.15584  1.0000
  C   C4        1.0  0.76949  0.37228  0.34547  1.0000
  C   C5        1.0  0.76301  0.38395  0.26544  1.0000
  C   C6        1.0  0.74683  0.39012  0.26043  1.0000
  H   H3        1.0  0.74247  0.39966  0.20327  1.0000
  O   O2        1.0  0.77209  0.38960  0.19236  1.0000
  H   H4        1.0  0.77202  0.37131  0.15619  1.0000
  C   C7        1.0  0.73673  0.12246  0.34686  1.0000
  C   C8        1.0  0.74310  0.13473  0.26779  1.0000
  C   C9        1.0  0.75925  0.14064  0.26167  1.0000
  H   H5        1.0  0.76346  0.15017  0.20415  1.0000
  H   H6        1.0  0.73612  0.13866  0.21322  1.0000
  C   C10       1.0  0.26953  0.38376  0.34700  1.0000
  C   C11       1.0  0.26313  0.37152  0.26795  1.0000
  C   C12       1.0  0.24699  0.36559  0.26192  1.0000
  H   H7        1.0  0.24275  0.35607  0.20441  1.0000
  H   H8        1.0  0.27010  0.36757  0.21334  1.0000
  C   C13       1.0  0.30190  0.47206  0.34951  1.0000
  C   C14       1.0  0.30971  0.48769  0.28076  1.0000
  C   C15       1.0  0.30970  0.01884  0.28045  1.0000
  H   H9        1.0  0.31486  0.02975  0.22789  1.0000
  H   H10       1.0  0.31490  0.47659  0.22868  1.0000
  C   C16       1.0  0.70433  0.03421  0.34964  1.0000
  C   C17       1.0  0.69650  0.01859  0.28093  1.0000
  C   C18       1.0  0.69652  0.48744  0.28057  1.0000
  H   H11       1.0  0.69139  0.47654  0.22789  1.0000
  H   H12       1.0  0.69134  0.02969  0.22873  1.0000
  C   C19       1.0  0.80196  0.22196  0.34540  1.0000
  C   C20       1.0  0.80966  0.23834  0.27795  1.0000
  C   C21       1.0  0.80973  0.26947  0.28141  1.0000
  H   H13       1.0  0.81473  0.28100  0.22956  1.0000
  H   H14       1.0  0.81467  0.22786  0.22416  1.0000
  C   C22       1.0  0.20425  0.28434  0.34584  1.0000
  C   C23       1.0  0.19655  0.26798  0.27835  1.0000
  C   C24       1.0  0.19650  0.23685  0.28165  1.0000
  H   H15       1.0  0.19150  0.22535  0.22973  1.0000
  H   H16       1.0  0.19155  0.27848  0.22453  1.0000
  C   C25       1.0  0.36047  0.14594  0.33225  1.0000
  C   C26       1.0  0.35426  0.13156  0.25558  1.0000
  C   C27       1.0  0.33832  0.12367  0.25291  1.0000
  H   H17       1.0  0.33433  0.11148  0.19952  1.0000
  O   O3        1.0  0.36353  0.12328  0.18557  1.0000
  H   H18       1.0  0.36457  0.14094  0.14717  1.0000
  C   C28       1.0  0.64575  0.36051  0.33174  1.0000
  C   C29       1.0  0.65203  0.37477  0.25503  1.0000
  C   C30       1.0  0.66799  0.38256  0.25255  1.0000
  H   H19       1.0  0.67202  0.39468  0.19912  1.0000
  O   O4        1.0  0.64281  0.38300  0.18477  1.0000
  H   H20       1.0  0.64179  0.36532  0.14647  1.0000
  C   C31       1.0  0.67804  0.12988  0.35165  1.0000
  C   C32       1.0  0.67189  0.14434  0.27533  1.0000
  C   C33       1.0  0.65594  0.15240  0.27184  1.0000
  H   H21       1.0  0.65169  0.16163  0.21397  1.0000
  H   H22       1.0  0.67867  0.14717  0.21934  1.0000
  C   C34       1.0  0.32822  0.37644  0.35118  1.0000
  C   C35       1.0  0.33437  0.36208  0.27467  1.0000
  C   C36       1.0  0.35031  0.35403  0.27095  1.0000
  H   H23       1.0  0.35454  0.34481  0.21302  1.0000
  H   H24       1.0  0.32756  0.35920  0.21882  1.0000
  C   C37       1.0  0.86043  0.39604  0.33084  1.0000
  C   C38       1.0  0.85414  0.38113  0.25528  1.0000
  C   C39       1.0  0.83819  0.37329  0.25349  1.0000
  H   H25       1.0  0.83415  0.36070  0.20109  1.0000
  O   O5        1.0  0.86335  0.37232  0.18563  1.0000
  H   H26       1.0  0.86445  0.38973  0.14627  1.0000
  C   C40       1.0  0.14581  0.11032  0.32973  1.0000
  C   C41       1.0  0.15210  0.12534  0.25441  1.0000
  C   C42       1.0  0.16807  0.13313  0.25275  1.0000
  H   H27       1.0  0.17211  0.14583  0.20061  1.0000
  O   O6        1.0  0.14291  0.13430  0.18489  1.0000
  H   H28       1.0  0.14178  0.11696  0.14527  1.0000
  C   C43       1.0  0.17808  0.37996  0.35112  1.0000
  C   C44       1.0  0.17182  0.39491  0.27595  1.0000
  C   C45       1.0  0.15587  0.40294  0.27343  1.0000
  H   H29       1.0  0.15157  0.41256  0.21627  1.0000
  H   H30       1.0  0.17854  0.39815  0.21994  1.0000
  C   C46       1.0  0.82819  0.12641  0.35057  1.0000
  C   C47       1.0  0.83439  0.11139  0.27536  1.0000
  C   C48       1.0  0.85034  0.10341  0.27253  1.0000
  H   H31       1.0  0.85462  0.09378  0.21532  1.0000
  H   H32       1.0  0.82766  0.10818  0.21938  1.0000
  C   C49       1.0  0.07111  0.19855  0.34133  1.0000
  C   C50       1.0  0.08626  0.19839  0.30254  1.0000
  C   C51       1.0  0.09560  0.17273  0.29888  1.0000
  H   H33       1.0  0.10595  0.17476  0.26493  1.0000
  H   H34       1.0  0.09058  0.21687  0.27128  1.0000
  C   C52       1.0  0.93513  0.30792  0.34149  1.0000
  C   C53       1.0  0.91999  0.30813  0.30252  1.0000
  C   C54       1.0  0.91065  0.33378  0.29916  1.0000
  H   H35       1.0  0.90029  0.33180  0.26528  1.0000
  H   H36       1.0  0.91567  0.28966  0.27121  1.0000
  C   C55       1.0  0.91596  0.14356  0.35927  1.0000
  C   C56       1.0  0.93136  0.14400  0.32178  1.0000
  C   C57       1.0  0.94089  0.16992  0.32447  1.0000
  H   H37       1.0  0.95131  0.16927  0.29074  1.0000
  O   O7        1.0  0.93714  0.12083  0.27335  1.0000
  H   H38       1.0  0.93273  0.12270  0.21263  1.0000
  C   C58       1.0  0.09028  0.36287  0.36048  1.0000
  C   C59       1.0  0.07487  0.36252  0.32310  1.0000
  C   C60       1.0  0.06533  0.33660  0.32534  1.0000
  H   H39       1.0  0.05491  0.33729  0.29161  1.0000
  O   O8        1.0  0.06910  0.38571  0.27479  1.0000
  H   H40       1.0  0.07352  0.38390  0.21409  1.0000
  C   C61       1.0  0.57109  0.44860  0.34152  1.0000
  C   C62       1.0  0.58625  0.44839  0.30287  1.0000
  C   C63       1.0  0.59559  0.42273  0.29955  1.0000
  H   H41       1.0  0.60597  0.42473  0.26587  1.0000
  H   H42       1.0  0.59061  0.46686  0.27169  1.0000
  C   C64       1.0  0.43513  0.05791  0.34216  1.0000
  C   C65       1.0  0.41998  0.05814  0.30351  1.0000
  C   C66       1.0  0.41064  0.08380  0.30036  1.0000
  H   H43       1.0  0.40027  0.08184  0.26654  1.0000
  H   H44       1.0  0.41564  0.03970  0.27204  1.0000
  C   C67       1.0  0.41597  0.39354  0.35847  1.0000
  C   C68       1.0  0.43138  0.39398  0.32120  1.0000
  C   C69       1.0  0.44091  0.41990  0.32407  1.0000
  H   H45       1.0  0.45134  0.41930  0.29046  1.0000
  O   O9        1.0  0.43717  0.37086  0.27257  1.0000
  H   H46       1.0  0.43276  0.37279  0.21185  1.0000
  C   C70       1.0  0.59028  0.11294  0.35928  1.0000
  C   C71       1.0  0.57487  0.11257  0.32200  1.0000
  C   C72       1.0  0.56532  0.08667  0.32463  1.0000
  H   H47       1.0  0.55489  0.08737  0.29097  1.0000
  O   O10       1.0  0.56907  0.13579  0.27385  1.0000
  H   H48       1.0  0.57344  0.13394  0.21302  1.0000
  C   C73       1.0  0.10487  0.47106  0.30809  1.0000
  C   C74       1.0  0.11435  0.48781  0.24873  1.0000
  C   C75       1.0  0.11427  0.01887  0.24893  1.0000
  H   H49       1.0  0.12200  0.02935  0.20689  1.0000
  H   H50       1.0  0.12212  0.47749  0.20665  1.0000
  C   C76       1.0  0.90137  0.03530  0.30740  1.0000
  C   C77       1.0  0.89188  0.01847  0.24834  1.0000
  C   C78       1.0  0.89194  0.48741  0.24911  1.0000
  H   H51       1.0  0.88423  0.47686  0.20720  1.0000
  H   H52       1.0  0.88413  0.02873  0.20602  1.0000
  C   C79       1.0  0.60496  0.22116  0.30729  1.0000
  C   C80       1.0  0.61446  0.23806  0.24844  1.0000
  C   C81       1.0  0.61437  0.26912  0.24932  1.0000
  H   H53       1.0  0.62212  0.27971  0.20770  1.0000
  H   H54       1.0  0.62225  0.22785  0.20624  1.0000
  C   C82       1.0  0.40135  0.28529  0.30654  1.0000
  C   C83       1.0  0.39184  0.26831  0.24797  1.0000
  C   C84       1.0  0.39190  0.23724  0.24937  1.0000
  H   H55       1.0  0.38415  0.22660  0.20783  1.0000
  H   H56       1.0  0.38409  0.27846  0.20546  1.0000
  C   C85       1.0  0.02003  0.25318  0.34735  1.0000
  C   C86       1.0  0.01129  0.23522  0.28679  1.0000
  C   C87       1.0  0.99473  0.23509  0.28854  1.0000
  H   H57       1.0  0.98890  0.22201  0.24334  1.0000
  O   O11       1.0  0.01842  0.21778  0.22432  1.0000
  H   H58       1.0  0.02150  0.23106  0.17495  1.0000
  C   C88       1.0  0.52003  0.00325  0.34719  1.0000
  C   C89       1.0  0.51129  0.98528  0.28667  1.0000
  C   C90       1.0  0.49473  0.98511  0.28851  1.0000
  H   H59       1.0  0.48890  0.97203  0.24333  1.0000
  O   O12       1.0  0.51842  0.96784  0.22420  1.0000
  H   H60       1.0  0.52150  0.98111  0.17482  1.0000
  C   C91       1.0  0.30099  0.06592  0.34372  1.0000
  C   C92       1.0  0.31460  0.08341  0.33901  1.0000
  C   C93       1.0  0.31372  0.11467  0.33205  1.0000
  C   C94       1.0  0.29878  0.12845  0.33177  1.0000
  C   C95       1.0  0.28495  0.11096  0.33365  1.0000
  C   C96       1.0  0.28626  0.07980  0.33987  1.0000
  H   H61       1.0  0.29796  0.15109  0.32685  1.0000
  H   H62       1.0  0.27634  0.06694  0.34167  1.0000
  H   H63       1.0  0.32532  0.07313  0.34158  1.0000
  C   C97       1.0  0.70525  0.44036  0.34373  1.0000
  C   C98       1.0  0.69164  0.42286  0.33893  1.0000
  C   C99       1.0  0.69252  0.39160  0.33198  1.0000
  C   C100      1.0  0.70747  0.37782  0.33194  1.0000
  C   C101      1.0  0.72129  0.39531  0.33381  1.0000
  C   C102      1.0  0.71998  0.42647  0.33999  1.0000
  H   H64       1.0  0.70829  0.35518  0.32695  1.0000
  H   H65       1.0  0.72990  0.43934  0.34187  1.0000
  H   H66       1.0  0.68092  0.43314  0.34144  1.0000
  C   C103      1.0  0.70529  0.06542  0.34697  1.0000
  C   C104      1.0  0.69166  0.08289  0.34596  1.0000
  C   C105      1.0  0.69249  0.11425  0.34666  1.0000
  C   C106      1.0  0.70744  0.12806  0.34442  1.0000
  C   C107      1.0  0.72131  0.11065  0.34643  1.0000
  C   C108      1.0  0.72000  0.07941  0.34729  1.0000
  H   H67       1.0  0.70823  0.15075  0.34537  1.0000
  H   H68       1.0  0.72992  0.06653  0.34676  1.0000
  H   H69       1.0  0.68096  0.07251  0.34716  1.0000
  C   C109      1.0  0.30094  0.44085  0.34686  1.0000
  C   C110      1.0  0.31458  0.42340  0.34571  1.0000
  C   C111      1.0  0.31376  0.39204  0.34638  1.0000
  C   C112      1.0  0.29882  0.37820  0.34433  1.0000
  C   C113      1.0  0.28495  0.39559  0.34645  1.0000
  C   C114      1.0  0.28624  0.42683  0.34729  1.0000
  H   H70       1.0  0.29804  0.35551  0.34519  1.0000
  H   H71       1.0  0.27631  0.43970  0.34686  1.0000
  H   H72       1.0  0.32528  0.43379  0.34680  1.0000
  C   C115      1.0  0.80124  0.31579  0.35066  1.0000
  C   C116      1.0  0.81474  0.33342  0.34240  1.0000
  C   C117      1.0  0.81373  0.36466  0.33482  1.0000
  C   C118      1.0  0.79874  0.37828  0.33781  1.0000
  C   C119      1.0  0.78499  0.36078  0.34684  1.0000
  C   C120      1.0  0.78648  0.32960  0.35176  1.0000
  H   H73       1.0  0.79783  0.40088  0.33233  1.0000
  H   H74       1.0  0.77661  0.31659  0.35396  1.0000
  H   H75       1.0  0.82548  0.32323  0.34213  1.0000
  C   C121      1.0  0.20500  0.19050  0.35069  1.0000
  C   C122      1.0  0.19150  0.17287  0.34221  1.0000
  C   C123      1.0  0.19252  0.14165  0.33432  1.0000
  C   C124      1.0  0.20751  0.12804  0.33726  1.0000
  C   C125      1.0  0.22125  0.14553  0.34660  1.0000
  C   C126      1.0  0.21976  0.17670  0.35174  1.0000
  H   H76       1.0  0.20842  0.10543  0.33156  1.0000
  H   H77       1.0  0.22963  0.18972  0.35406  1.0000
  H   H78       1.0  0.18076  0.18306  0.34196  1.0000
  C   C127      1.0  0.20523  0.31544  0.33998  1.0000
  C   C128      1.0  0.19162  0.33290  0.34284  1.0000
  C   C129      1.0  0.19249  0.36425  0.34417  1.0000
  C   C130      1.0  0.20743  0.37799  0.33879  1.0000
  C   C131      1.0  0.22126  0.36054  0.33322  1.0000
  C   C132      1.0  0.21994  0.32931  0.33523  1.0000
  H   H79       1.0  0.20826  0.40068  0.34018  1.0000
  H   H80       1.0  0.22984  0.31636  0.33426  1.0000
  H   H81       1.0  0.18094  0.32252  0.34682  1.0000
  C   C133      1.0  0.80099  0.19086  0.33950  1.0000
  C   C134      1.0  0.81462  0.17342  0.34232  1.0000
  C   C135      1.0  0.81376  0.14207  0.34359  1.0000
  C   C136      1.0  0.79883  0.12830  0.33828  1.0000
  C   C137      1.0  0.78498  0.14572  0.33282  1.0000
  C   C138      1.0  0.78629  0.17696  0.33483  1.0000
  H   H82       1.0  0.79801  0.10561  0.33969  1.0000
  H   H83       1.0  0.77638  0.18988  0.33390  1.0000
  H   H84       1.0  0.82529  0.18382  0.34626  1.0000
  C   C139      1.0  0.12954  0.10362  0.33401  1.0000
  C   C140      1.0  0.11811  0.12609  0.33817  1.0000
  C   C141      1.0  0.10169  0.12029  0.33597  1.0000
  C   C142      1.0  0.09729  0.08958  0.33272  1.0000
  C   C143      1.0  0.10842  0.06615  0.32265  1.0000
  C   C144      1.0  0.12450  0.07413  0.32581  1.0000
  H   H85       1.0  0.08576  0.08423  0.32515  1.0000
  H   H86       1.0  0.13297  0.05800  0.32359  1.0000
  H   H87       1.0  0.12214  0.14728  0.34700  1.0000
  C   C145      1.0  0.87670  0.40278  0.33522  1.0000
  C   C146      1.0  0.88814  0.38033  0.33932  1.0000
  C   C147      1.0  0.90455  0.38615  0.33701  1.0000
  C   C148      1.0  0.90895  0.41686  0.33386  1.0000
  C   C149      1.0  0.89780  0.44025  0.32349  1.0000
  C   C150      1.0  0.88173  0.43226  0.32677  1.0000
  H   H88       1.0  0.92047  0.42220  0.32590  1.0000
  H   H89       1.0  0.87326  0.44838  0.32441  1.0000
  H   H90       1.0  0.88411  0.35912  0.34812  1.0000
  C   C151      1.0  0.87694  0.10382  0.33842  1.0000
  C   C152      1.0  0.88856  0.12569  0.35034  1.0000
  C   C153      1.0  0.90494  0.11942  0.35070  1.0000
  C   C154      1.0  0.90908  0.08882  0.33898  1.0000
  C   C155      1.0  0.89788  0.06607  0.32125  1.0000
  C   C156      1.0  0.88187  0.07457  0.32227  1.0000
  H   H91       1.0  0.92057  0.08277  0.34195  1.0000
  H   H92       1.0  0.87331  0.05866  0.31818  1.0000
  H   H93       1.0  0.88468  0.14714  0.35344  1.0000
  C   C157      1.0  0.12931  0.40258  0.33979  1.0000
  C   C158      1.0  0.11769  0.38072  0.35185  1.0000
  C   C159      1.0  0.10131  0.38700  0.35214  1.0000
  C   C160      1.0  0.09718  0.41760  0.34030  1.0000
  C   C161      1.0  0.10838  0.44033  0.32241  1.0000
  C   C162      1.0  0.12439  0.43182  0.32347  1.0000
  H   H94       1.0  0.08569  0.42367  0.34323  1.0000
  H   H95       1.0  0.13295  0.44772  0.31917  1.0000
  H   H96       1.0  0.12157  0.35927  0.35499  1.0000
  C   C163      1.0  0.62950  0.35372  0.33635  1.0000
  C   C164      1.0  0.61806  0.37617  0.34005  1.0000
  C   C165      1.0  0.60166  0.37033  0.33727  1.0000
  C   C166      1.0  0.59728  0.33961  0.33380  1.0000
  C   C167      1.0  0.60844  0.31623  0.32385  1.0000
  C   C168      1.0  0.62450  0.32423  0.32765  1.0000
  H   H97       1.0  0.58575  0.33429  0.32567  1.0000
  H   H98       1.0  0.63299  0.30813  0.32544  1.0000
  H   H99       1.0  0.62208  0.39738  0.34900  1.0000
  C   C169      1.0  0.37672  0.15275  0.33717  1.0000
  C   C170      1.0  0.38816  0.13031  0.34109  1.0000
  C   C171      1.0  0.40457  0.13615  0.33837  1.0000
  C   C172      1.0  0.40895  0.16687  0.33477  1.0000
  C   C173      1.0  0.39779  0.19024  0.32458  1.0000
  C   C174      1.0  0.38172  0.18223  0.32828  1.0000
  H   H100      1.0  0.42047  0.17222  0.32680  1.0000
  H   H101      1.0  0.37324  0.19833  0.32581  1.0000
  H   H102      1.0  0.38415  0.10910  0.35006  1.0000
  C   C175      1.0  0.37695  0.35391  0.33647  1.0000
  C   C176      1.0  0.38857  0.37574  0.34880  1.0000
  C   C177      1.0  0.40494  0.36944  0.34945  1.0000
  C   C178      1.0  0.40906  0.33883  0.33771  1.0000
  C   C179      1.0  0.39786  0.31609  0.31982  1.0000
  C   C180      1.0  0.38185  0.32464  0.32039  1.0000
  H   H103      1.0  0.42055  0.33276  0.34101  1.0000
  H   H104      1.0  0.37328  0.30878  0.31624  1.0000
  H   H105      1.0  0.38469  0.39720  0.35211  1.0000
  C   C181      1.0  0.62933  0.15252  0.33761  1.0000
  C   C182      1.0  0.61769  0.13070  0.34984  1.0000
  C   C183      1.0  0.60132  0.13703  0.35049  1.0000
  C   C184      1.0  0.59722  0.16765  0.33879  1.0000
  C   C185      1.0  0.60844  0.19037  0.32086  1.0000
  C   C186      1.0  0.62444  0.18179  0.32163  1.0000
  H   H106      1.0  0.58574  0.17375  0.34204  1.0000
  H   H107      1.0  0.63301  0.19765  0.31730  1.0000
  H   H108      1.0  0.62156  0.10923  0.35316  1.0000
  C   C187      1.0  0.06225  0.22567  0.34801  1.0000
  C   C188      1.0  0.06981  0.25383  0.35328  1.0000
  C   C189      1.0  0.06198  0.28175  0.35560  1.0000
  C   C190      1.0  0.04540  0.28053  0.34961  1.0000
  C   C191      1.0  0.03693  0.25334  0.34882  1.0000
  C   C192      1.0  0.04562  0.22642  0.35030  1.0000
  H   H109      1.0  0.03919  0.29995  0.35048  1.0000
  H   H110      1.0  0.03958  0.20685  0.34824  1.0000
  H   H111      1.0  0.08172  0.25405  0.35505  1.0000
  C   C193      1.0  0.94398  0.28079  0.34831  1.0000
  C   C194      1.0  0.93640  0.25264  0.35329  1.0000
  C   C195      1.0  0.94422  0.22471  0.35528  1.0000
  C   C196      1.0  0.96079  0.22589  0.34937  1.0000
  C   C197      1.0  0.96925  0.25307  0.34965  1.0000
  C   C198      1.0  0.96060  0.28004  0.35091  1.0000
  H   H112      1.0  0.96701  0.20650  0.35291  1.0000
  H   H113      1.0  0.96667  0.29954  0.34572  1.0000
  H   H114      1.0  0.92448  0.25243  0.35497  1.0000
  C   C199      1.0  0.56224  0.47574  0.34800  1.0000
  C   C200      1.0  0.56980  0.00390  0.35306  1.0000
  C   C201      1.0  0.56197  0.03183  0.35519  1.0000
  C   C202      1.0  0.54540  0.03061  0.34915  1.0000
  C   C203      1.0  0.53693  0.50343  0.34862  1.0000
  C   C204      1.0  0.54562  0.47650  0.35027  1.0000
  H   H115      1.0  0.53919  0.05003  0.35002  1.0000
  H   H116      1.0  0.53956  0.45693  0.34835  1.0000
  H   H117      1.0  0.58171  0.00412  0.35484  1.0000
  C   C205      1.0  0.44398  0.03078  0.34869  1.0000
  C   C206      1.0  0.43641  0.50261  0.35354  1.0000
  C   C207      1.0  0.44423  0.47468  0.35530  1.0000
  C   C208      1.0  0.46081  0.47588  0.34943  1.0000
  C   C209      1.0  0.46926  0.00306  0.34973  1.0000
  C   C210      1.0  0.46060  0.03002  0.35107  1.0000
  H   H118      1.0  0.46702  0.45648  0.35274  1.0000
  H   H119      1.0  0.46667  0.04954  0.34603  1.0000
  H   H120      1.0  0.42449  0.50240  0.35528  1.0000
  C   C211      1.0  0.26957  0.12276  0.33231  1.0000
  C   C212      1.0  0.26310  0.13455  0.41176  1.0000
  C   C213      1.0  0.24695  0.14031  0.41764  1.0000
  H   H121      1.0  0.24266  0.14946  0.47557  1.0000
  H   H122      1.0  0.27002  0.13827  0.46675  1.0000
  C   C214      1.0  0.73667  0.38351  0.33276  1.0000
  C   C215      1.0  0.74315  0.37178  0.41223  1.0000
  C   C216      1.0  0.75930  0.36601  0.41807  1.0000
  H   H123      1.0  0.76359  0.35688  0.47602  1.0000
  H   H124      1.0  0.73624  0.36805  0.46722  1.0000
  C   C217      1.0  0.76954  0.13398  0.33348  1.0000
  C   C218      1.0  0.76314  0.12205  0.41338  1.0000
  C   C219      1.0  0.74699  0.11581  0.41875  1.0000
  H   H125      1.0  0.74270  0.10611  0.47589  1.0000
  O   O13       1.0  0.77230  0.11620  0.48601  1.0000
  H   H126      1.0  0.77216  0.13429  0.52307  1.0000
  C   C220      1.0  0.23672  0.37225  0.33383  1.0000
  C   C221      1.0  0.24312  0.38418  0.41369  1.0000
  C   C222      1.0  0.25928  0.39041  0.41893  1.0000
  H   H127      1.0  0.26357  0.40010  0.47604  1.0000
  O   O14       1.0  0.23397  0.39003  0.48637  1.0000
  H   H128      1.0  0.23412  0.37195  0.52342  1.0000
  C   C223      1.0  0.30199  0.03473  0.34921  1.0000
  C   C224      1.0  0.29461  0.01911  0.42009  1.0000
  C   C225      1.0  0.29448  0.48792  0.41931  1.0000
  H   H129      1.0  0.28888  0.47682  0.47003  1.0000
  O   O15       1.0  0.28708  0.03322  0.48848  1.0000
  H   H130      1.0  0.29529  0.04049  0.52922  1.0000
  C   C226      1.0  0.70425  0.47154  0.34928  1.0000
  C   C227      1.0  0.71162  0.48716  0.42019  1.0000
  C   C228      1.0  0.71174  0.01835  0.41944  1.0000
  H   H131      1.0  0.71735  0.02944  0.47015  1.0000
  O   O16       1.0  0.71915  0.47304  0.48856  1.0000
  H   H132      1.0  0.71094  0.46574  0.52927  1.0000
  C   C229      1.0  0.80229  0.28454  0.35290  1.0000
  C   C230      1.0  0.79508  0.26804  0.42257  1.0000
  C   C231      1.0  0.79481  0.23689  0.41785  1.0000
  H   H133      1.0  0.78930  0.22515  0.46762  1.0000
  O   O17       1.0  0.78781  0.28126  0.49344  1.0000
  H   H134      1.0  0.79616  0.28825  0.53363  1.0000
  C   C232      1.0  0.20393  0.22176  0.35307  1.0000
  C   C233      1.0  0.21114  0.23823  0.42280  1.0000
  C   C234      1.0  0.21141  0.26938  0.41824  1.0000
  H   H135      1.0  0.21691  0.28110  0.46802  1.0000
  O   O18       1.0  0.21841  0.22498  0.49363  1.0000
  H   H136      1.0  0.21006  0.21797  0.53379  1.0000
  C   C235      1.0  0.32813  0.13027  0.32512  1.0000
  C   C236      1.0  0.33424  0.14582  0.39967  1.0000
  C   C237      1.0  0.35019  0.15386  0.40268  1.0000
  H   H137      1.0  0.35443  0.16403  0.45911  1.0000
  H   H138      1.0  0.32741  0.14952  0.45497  1.0000
  C   C238      1.0  0.67811  0.37600  0.32508  1.0000
  C   C239      1.0  0.67194  0.36064  0.39977  1.0000
  C   C240      1.0  0.65598  0.35265  0.40252  1.0000
  H   H139      1.0  0.65169  0.34252  0.45889  1.0000
  H   H140      1.0  0.67875  0.35691  0.45515  1.0000
  C   C241      1.0  0.64564  0.14567  0.34351  1.0000
  C   C242      1.0  0.65196  0.13234  0.42172  1.0000
  C   C243      1.0  0.66792  0.12447  0.42503  1.0000
  H   H141      1.0  0.67194  0.11310  0.47993  1.0000
  O   O19       1.0  0.64286  0.12530  0.49364  1.0000
  H   H142      1.0  0.64170  0.14371  0.52858  1.0000
  C   C244      1.0  0.36064  0.36072  0.34256  1.0000
  C   C245      1.0  0.35433  0.37398  0.42093  1.0000
  C   C246      1.0  0.33838  0.38183  0.42441  1.0000
  H   H143      1.0  0.33436  0.39313  0.47948  1.0000
  O   O20       1.0  0.36345  0.38099  0.49281  1.0000
  H   H144      1.0  0.36466  0.36255  0.52755  1.0000
  C   C247      1.0  0.82808  0.38039  0.32561  1.0000
  C   C248      1.0  0.83424  0.39649  0.39891  1.0000
  C   C249      1.0  0.85020  0.40453  0.40092  1.0000
  H   H145      1.0  0.85448  0.41513  0.45651  1.0000
  H   H146      1.0  0.82746  0.40065  0.45411  1.0000
  C   C250      1.0  0.17818  0.12592  0.32479  1.0000
  C   C251      1.0  0.17200  0.10967  0.39774  1.0000
  C   C252      1.0  0.15604  0.10166  0.39963  1.0000
  H   H147      1.0  0.15174  0.09107  0.45520  1.0000
  H   H148      1.0  0.17875  0.10551  0.45306  1.0000
  C   C253      1.0  0.14564  0.39576  0.34504  1.0000
  C   C254      1.0  0.15206  0.38195  0.42225  1.0000
  C   C255      1.0  0.16802  0.37407  0.42451  1.0000
  H   H149      1.0  0.17210  0.36235  0.47858  1.0000
  O   O21       1.0  0.14304  0.37444  0.49407  1.0000
  H   H150      1.0  0.14184  0.39264  0.52991  1.0000
  C   C256      1.0  0.86062  0.11062  0.34394  1.0000
  C   C257      1.0  0.85424  0.12443  0.42125  1.0000
  C   C258      1.0  0.83828  0.13231  0.42376  1.0000
  H   H151      1.0  0.83422  0.14404  0.47789  1.0000
  O   O22       1.0  0.86329  0.13195  0.49292  1.0000
  H   H152      1.0  0.86452  0.11374  0.52870  1.0000
  C   C259      1.0  0.09089  0.14491  0.33529  1.0000
  C   C260      1.0  0.07524  0.14431  0.36897  1.0000
  C   C261      1.0  0.06570  0.17026  0.37063  1.0000
  H   H153      1.0  0.05499  0.16861  0.40081  1.0000
  O   O23       1.0  0.06914  0.11968  0.40878  1.0000
  H   H154      1.0  0.07331  0.11927  0.47029  1.0000
  C   C262      1.0  0.91535  0.36154  0.33606  1.0000
  C   C263      1.0  0.93099  0.36210  0.36990  1.0000
  C   C264      1.0  0.94054  0.33616  0.37119  1.0000
  H   H155      1.0  0.95123  0.33774  0.40165  1.0000
  O   O24       1.0  0.93706  0.38668  0.41019  1.0000
  H   H156      1.0  0.93286  0.38698  0.47164  1.0000
  C   C265      1.0  0.93560  0.19731  0.36096  1.0000
  C   C266      1.0  0.92080  0.19604  0.40366  1.0000
  C   C267      1.0  0.91155  0.17021  0.40402  1.0000
  H   H157      1.0  0.90140  0.17127  0.44024  1.0000
  H   H158      1.0  0.91666  0.21384  0.43914  1.0000
  C   C268      1.0  0.07060  0.30914  0.36155  1.0000
  C   C269      1.0  0.08539  0.31035  0.40442  1.0000
  C   C270      1.0  0.09466  0.33616  0.40501  1.0000
  H   H159      1.0  0.10481  0.33504  0.44122  1.0000
  H   H160      1.0  0.08952  0.29251  0.43968  1.0000
  C   C271      1.0  0.59085  0.39494  0.33613  1.0000
  C   C272      1.0  0.57519  0.39437  0.36958  1.0000
  C   C273      1.0  0.56566  0.42033  0.37090  1.0000
  H   H161      1.0  0.55494  0.41870  0.40098  1.0000
  O   O25       1.0  0.56907  0.36975  0.40928  1.0000
  H   H162      1.0  0.57318  0.36936  0.47091  1.0000
  C   C274      1.0  0.41537  0.11154  0.33720  1.0000
  C   C275      1.0  0.43102  0.11209  0.37078  1.0000
  C   C276      1.0  0.44056  0.08614  0.37186  1.0000
  H   H163      1.0  0.45128  0.08770  0.40204  1.0000
  O   O26       1.0  0.43712  0.13668  0.41081  1.0000
  H   H164      1.0  0.43297  0.13700  0.47237  1.0000
  C   C277      1.0  0.43562  0.44727  0.36076  1.0000
  C   C278      1.0  0.42081  0.44596  0.40342  1.0000
  C   C279      1.0  0.41155  0.42014  0.40342  1.0000
  H   H165      1.0  0.40139  0.42118  0.43948  1.0000
  H   H166      1.0  0.41666  0.46374  0.43893  1.0000
  C   C280      1.0  0.57060  0.05922  0.36088  1.0000
  C   C281      1.0  0.58541  0.06046  0.40356  1.0000
  C   C282      1.0  0.59467  0.08627  0.40395  1.0000
  H   H167      1.0  0.60483  0.08517  0.44004  1.0000
  H   H168      1.0  0.58954  0.04265  0.43898  1.0000
  C   C283      1.0  0.10477  0.03544  0.30878  1.0000
  C   C284      1.0  0.09329  0.01900  0.35717  1.0000
  C   C285      1.0  0.09330  0.48731  0.35587  1.0000
  H   H169      1.0  0.08616  0.47633  0.39986  1.0000
  O   O27       1.0  0.08354  0.03277  0.41626  1.0000
  H   H170      1.0  0.08937  0.03470  0.47287  1.0000
  C   C286      1.0  0.90143  0.47095  0.30925  1.0000
  C   C287      1.0  0.91297  0.48746  0.35713  1.0000
  C   C288      1.0  0.91298  0.01915  0.35515  1.0000
  H   H171      1.0  0.92013  0.03015  0.39908  1.0000
  O   O28       1.0  0.92273  0.47378  0.41634  1.0000
  H   H172      1.0  0.91691  0.47197  0.47305  1.0000
  C   C289      1.0  0.60483  0.28554  0.30933  1.0000
  C   C290      1.0  0.59331  0.26896  0.35707  1.0000
  C   C291      1.0  0.59332  0.23727  0.35495  1.0000
  H   H173      1.0  0.58615  0.22623  0.39870  1.0000
  O   O29       1.0  0.58350  0.28262  0.41605  1.0000
  H   H174      1.0  0.58926  0.28435  0.47297  1.0000
  C   C292      1.0  0.40141  0.22091  0.30976  1.0000
  C   C293      1.0  0.41293  0.23754  0.35726  1.0000
  C   C294      1.0  0.41294  0.26922  0.35471  1.0000
  H   H175      1.0  0.42009  0.28036  0.39830  1.0000
  O   O30       1.0  0.42270  0.22399  0.41669  1.0000
  H   H176      1.0  0.41689  0.22228  0.47344  1.0000
  C   C295      1.0  0.98613  0.25324  0.34851  1.0000
  C   C296      1.0  0.99486  0.27148  0.40754  1.0000
  C   C297      1.0  0.01138  0.27133  0.40725  1.0000
  H   H177      1.0  0.01708  0.28438  0.45301  1.0000
  H   H178      1.0  0.98922  0.28464  0.45329  1.0000
  C   C298      1.0  0.48613  0.00325  0.34852  1.0000
  C   C299      1.0  0.49486  0.02152  0.40746  1.0000
  C   C300      1.0  0.51138  0.02140  0.40710  1.0000
  H   H179      1.0  0.51709  0.03444  0.45288  1.0000
  H   H180      1.0  0.48922  0.03465  0.45331  1.0000
  C   C301      1.0  0.23676  0.63403  0.34505  1.0000
  C   C302      1.0  0.24323  0.62230  0.26507  1.0000
  C   C303      1.0  0.25940  0.61612  0.26006  1.0000
  H   H181      1.0  0.26376  0.60653  0.20296  1.0000
  O   O31       1.0  0.23414  0.61662  0.19205  1.0000
  H   H182      1.0  0.23419  0.63489  0.15584  1.0000
  C   C304      1.0  0.76949  0.87228  0.34547  1.0000
  C   C305      1.0  0.76301  0.88395  0.26544  1.0000
  C   C306      1.0  0.74683  0.89012  0.26043  1.0000
  H   H183      1.0  0.74247  0.89966  0.20327  1.0000
  O   O32       1.0  0.77209  0.88960  0.19236  1.0000
  H   H184      1.0  0.77202  0.87132  0.15619  1.0000
  C   C307      1.0  0.73673  0.62246  0.34686  1.0000
  C   C308      1.0  0.74310  0.63473  0.26779  1.0000
  C   C309      1.0  0.75925  0.64064  0.26167  1.0000
  H   H185      1.0  0.76346  0.65018  0.20415  1.0000
  H   H186      1.0  0.73612  0.63866  0.21322  1.0000
  C   C310      1.0  0.26953  0.88376  0.34700  1.0000
  C   C311      1.0  0.26313  0.87152  0.26795  1.0000
  C   C312      1.0  0.24699  0.86559  0.26192  1.0000
  H   H187      1.0  0.24275  0.85607  0.20441  1.0000
  H   H188      1.0  0.27010  0.86757  0.21334  1.0000
  C   C313      1.0  0.30190  0.97206  0.34951  1.0000
  C   C314      1.0  0.30971  0.98769  0.28076  1.0000
  C   C315      1.0  0.30970  0.51884  0.28045  1.0000
  H   H189      1.0  0.31486  0.52975  0.22789  1.0000
  H   H190      1.0  0.31490  0.97659  0.22868  1.0000
  C   C316      1.0  0.70433  0.53421  0.34964  1.0000
  C   C317      1.0  0.69650  0.51859  0.28093  1.0000
  C   C318      1.0  0.69652  0.98744  0.28057  1.0000
  H   H191      1.0  0.69139  0.97654  0.22789  1.0000
  H   H192      1.0  0.69134  0.52969  0.22873  1.0000
  C   C319      1.0  0.80196  0.72196  0.34540  1.0000
  C   C320      1.0  0.80966  0.73834  0.27795  1.0000
  C   C321      1.0  0.80973  0.76947  0.28141  1.0000
  H   H193      1.0  0.81473  0.78099  0.22956  1.0000
  H   H194      1.0  0.81467  0.72786  0.22416  1.0000
  C   C322      1.0  0.20425  0.78434  0.34584  1.0000
  C   C323      1.0  0.19655  0.76798  0.27835  1.0000
  C   C324      1.0  0.19650  0.73685  0.28165  1.0000
  H   H195      1.0  0.19150  0.72535  0.22973  1.0000
  H   H196      1.0  0.19155  0.77848  0.22453  1.0000
  C   C325      1.0  0.36047  0.64594  0.33225  1.0000
  C   C326      1.0  0.35426  0.63156  0.25558  1.0000
  C   C327      1.0  0.33832  0.62367  0.25291  1.0000
  H   H197      1.0  0.33433  0.61148  0.19952  1.0000
  O   O33       1.0  0.36353  0.62329  0.18557  1.0000
  H   H198      1.0  0.36457  0.64094  0.14717  1.0000
  C   C328      1.0  0.64575  0.86051  0.33174  1.0000
  C   C329      1.0  0.65203  0.87477  0.25503  1.0000
  C   C330      1.0  0.66799  0.88256  0.25255  1.0000
  H   H199      1.0  0.67202  0.89468  0.19912  1.0000
  O   O34       1.0  0.64281  0.88300  0.18477  1.0000
  H   H200      1.0  0.64179  0.86531  0.14647  1.0000
  C   C331      1.0  0.67804  0.62988  0.35165  1.0000
  C   C332      1.0  0.67189  0.64434  0.27533  1.0000
  C   C333      1.0  0.65594  0.65240  0.27184  1.0000
  H   H201      1.0  0.65169  0.66163  0.21397  1.0000
  H   H202      1.0  0.67867  0.64717  0.21934  1.0000
  C   C334      1.0  0.32822  0.87644  0.35118  1.0000
  C   C335      1.0  0.33437  0.86208  0.27467  1.0000
  C   C336      1.0  0.35031  0.85403  0.27095  1.0000
  H   H203      1.0  0.35454  0.84481  0.21302  1.0000
  H   H204      1.0  0.32756  0.85920  0.21882  1.0000
  C   C337      1.0  0.86043  0.89604  0.33084  1.0000
  C   C338      1.0  0.85414  0.88113  0.25528  1.0000
  C   C339      1.0  0.83819  0.87329  0.25349  1.0000
  H   H205      1.0  0.83415  0.86069  0.20109  1.0000
  O   O35       1.0  0.86335  0.87232  0.18563  1.0000
  H   H206      1.0  0.86445  0.88973  0.14627  1.0000
  C   C340      1.0  0.14581  0.61032  0.32973  1.0000
  C   C341      1.0  0.15210  0.62534  0.25441  1.0000
  C   C342      1.0  0.16807  0.63313  0.25275  1.0000
  H   H207      1.0  0.17211  0.64583  0.20061  1.0000
  O   O36       1.0  0.14291  0.63431  0.18489  1.0000
  H   H208      1.0  0.14178  0.61696  0.14527  1.0000
  C   C343      1.0  0.17808  0.87996  0.35112  1.0000
  C   C344      1.0  0.17182  0.89491  0.27595  1.0000
  C   C345      1.0  0.15587  0.90294  0.27343  1.0000
  H   H209      1.0  0.15157  0.91256  0.21627  1.0000
  H   H210      1.0  0.17854  0.89815  0.21994  1.0000
  C   C346      1.0  0.82819  0.62641  0.35057  1.0000
  C   C347      1.0  0.83439  0.61140  0.27536  1.0000
  C   C348      1.0  0.85034  0.60341  0.27253  1.0000
  H   H211      1.0  0.85462  0.59378  0.21532  1.0000
  H   H212      1.0  0.82766  0.60818  0.21938  1.0000
  C   C349      1.0  0.07111  0.69855  0.34133  1.0000
  C   C350      1.0  0.08626  0.69839  0.30254  1.0000
  C   C351      1.0  0.09560  0.67273  0.29888  1.0000
  H   H213      1.0  0.10595  0.67476  0.26493  1.0000
  H   H214      1.0  0.09058  0.71687  0.27128  1.0000
  C   C352      1.0  0.93513  0.80792  0.34149  1.0000
  C   C353      1.0  0.91999  0.80813  0.30252  1.0000
  C   C354      1.0  0.91065  0.83378  0.29916  1.0000
  H   H215      1.0  0.90029  0.83180  0.26528  1.0000
  H   H216      1.0  0.91567  0.78966  0.27121  1.0000
  C   C355      1.0  0.91596  0.64356  0.35927  1.0000
  C   C356      1.0  0.93136  0.64400  0.32178  1.0000
  C   C357      1.0  0.94089  0.66991  0.32447  1.0000
  H   H217      1.0  0.95131  0.66927  0.29074  1.0000
  O   O37       1.0  0.93714  0.62083  0.27335  1.0000
  H   H218      1.0  0.93273  0.62270  0.21263  1.0000
  C   C358      1.0  0.09028  0.86287  0.36048  1.0000
  C   C359      1.0  0.07487  0.86252  0.32310  1.0000
  C   C360      1.0  0.06533  0.83660  0.32534  1.0000
  H   H219      1.0  0.05491  0.83729  0.29161  1.0000
  O   O38       1.0  0.06910  0.88572  0.27479  1.0000
  H   H220      1.0  0.07352  0.88390  0.21409  1.0000
  C   C361      1.0  0.57109  0.94860  0.34152  1.0000
  C   C362      1.0  0.58625  0.94839  0.30287  1.0000
  C   C363      1.0  0.59559  0.92273  0.29955  1.0000
  H   H221      1.0  0.60597  0.92473  0.26587  1.0000
  H   H222      1.0  0.59061  0.96686  0.27169  1.0000
  C   C364      1.0  0.43513  0.55791  0.34216  1.0000
  C   C365      1.0  0.41998  0.55814  0.30351  1.0000
  C   C366      1.0  0.41064  0.58380  0.30036  1.0000
  H   H223      1.0  0.40027  0.58184  0.26654  1.0000
  H   H224      1.0  0.41564  0.53970  0.27204  1.0000
  C   C367      1.0  0.41597  0.89354  0.35847  1.0000
  C   C368      1.0  0.43138  0.89397  0.32120  1.0000
  C   C369      1.0  0.44091  0.91990  0.32407  1.0000
  H   H225      1.0  0.45134  0.91930  0.29046  1.0000
  O   O39       1.0  0.43717  0.87086  0.27257  1.0000
  H   H226      1.0  0.43276  0.87280  0.21185  1.0000
  C   C370      1.0  0.59028  0.61294  0.35928  1.0000
  C   C371      1.0  0.57487  0.61257  0.32200  1.0000
  C   C372      1.0  0.56532  0.58667  0.32463  1.0000
  H   H227      1.0  0.55489  0.58737  0.29097  1.0000
  O   O40       1.0  0.56907  0.63579  0.27385  1.0000
  H   H228      1.0  0.57344  0.63394  0.21302  1.0000
  C   C373      1.0  0.10487  0.97106  0.30809  1.0000
  C   C374      1.0  0.11435  0.98781  0.24873  1.0000
  C   C375      1.0  0.11427  0.51887  0.24893  1.0000
  H   H229      1.0  0.12200  0.52935  0.20689  1.0000
  H   H230      1.0  0.12212  0.97749  0.20665  1.0000
  C   C376      1.0  0.90137  0.53530  0.30740  1.0000
  C   C377      1.0  0.89188  0.51847  0.24834  1.0000
  C   C378      1.0  0.89194  0.98741  0.24911  1.0000
  H   H231      1.0  0.88423  0.97686  0.20720  1.0000
  H   H232      1.0  0.88413  0.52873  0.20602  1.0000
  C   C379      1.0  0.60496  0.72116  0.30729  1.0000
  C   C380      1.0  0.61446  0.73806  0.24844  1.0000
  C   C381      1.0  0.61437  0.76912  0.24932  1.0000
  H   H233      1.0  0.62212  0.77971  0.20770  1.0000
  H   H234      1.0  0.62225  0.72785  0.20624  1.0000
  C   C382      1.0  0.40135  0.78529  0.30654  1.0000
  C   C383      1.0  0.39184  0.76831  0.24797  1.0000
  C   C384      1.0  0.39190  0.73724  0.24937  1.0000
  H   H235      1.0  0.38415  0.72660  0.20783  1.0000
  H   H236      1.0  0.38409  0.77846  0.20546  1.0000
  C   C385      1.0  0.02003  0.75318  0.34735  1.0000
  C   C386      1.0  0.01129  0.73523  0.28679  1.0000
  C   C387      1.0  0.99473  0.73510  0.28854  1.0000
  H   H237      1.0  0.98890  0.72201  0.24334  1.0000
  O   O41       1.0  0.01842  0.71778  0.22432  1.0000
  H   H238      1.0  0.02150  0.73106  0.17495  1.0000
  C   C388      1.0  0.52003  0.50325  0.34719  1.0000
  C   C389      1.0  0.51129  0.48528  0.28667  1.0000
  C   C390      1.0  0.49473  0.48511  0.28851  1.0000
  H   H239      1.0  0.48890  0.47203  0.24333  1.0000
  O   O42       1.0  0.51842  0.46784  0.22420  1.0000
  H   H240      1.0  0.52150  0.48111  0.17482  1.0000
  C   C391      1.0  0.30099  0.56592  0.34372  1.0000
  C   C392      1.0  0.31460  0.58341  0.33901  1.0000
  C   C393      1.0  0.31372  0.61467  0.33205  1.0000
  C   C394      1.0  0.29878  0.62845  0.33177  1.0000
  C   C395      1.0  0.28495  0.61096  0.33365  1.0000
  C   C396      1.0  0.28626  0.57980  0.33987  1.0000
  H   H241      1.0  0.29796  0.65109  0.32685  1.0000
  H   H242      1.0  0.27634  0.56694  0.34167  1.0000
  H   H243      1.0  0.32532  0.57313  0.34158  1.0000
  C   C397      1.0  0.70525  0.94036  0.34373  1.0000
  C   C398      1.0  0.69164  0.92286  0.33893  1.0000
  C   C399      1.0  0.69252  0.89160  0.33198  1.0000
  C   C400      1.0  0.70747  0.87782  0.33194  1.0000
  C   C401      1.0  0.72129  0.89531  0.33381  1.0000
  C   C402      1.0  0.71998  0.92647  0.33999  1.0000
  H   H244      1.0  0.70829  0.85518  0.32695  1.0000
  H   H245      1.0  0.72990  0.93934  0.34187  1.0000
  H   H246      1.0  0.68092  0.93314  0.34144  1.0000
  C   C403      1.0  0.70529  0.56542  0.34697  1.0000
  C   C404      1.0  0.69166  0.58289  0.34596  1.0000
  C   C405      1.0  0.69249  0.61425  0.34666  1.0000
  C   C406      1.0  0.70744  0.62806  0.34442  1.0000
  C   C407      1.0  0.72131  0.61065  0.34643  1.0000
  C   C408      1.0  0.72000  0.57941  0.34729  1.0000
  H   H247      1.0  0.70823  0.65075  0.34537  1.0000
  H   H248      1.0  0.72992  0.56653  0.34676  1.0000
  H   H249      1.0  0.68096  0.57251  0.34716  1.0000
  C   C409      1.0  0.30094  0.94085  0.34686  1.0000
  C   C410      1.0  0.31458  0.92340  0.34571  1.0000
  C   C411      1.0  0.31376  0.89204  0.34638  1.0000
  C   C412      1.0  0.29882  0.87820  0.34433  1.0000
  C   C413      1.0  0.28495  0.89559  0.34645  1.0000
  C   C414      1.0  0.28624  0.92683  0.34729  1.0000
  H   H250      1.0  0.29804  0.85550  0.34519  1.0000
  H   H251      1.0  0.27631  0.93969  0.34686  1.0000
  H   H252      1.0  0.32528  0.93379  0.34680  1.0000
  C   C415      1.0  0.80124  0.81579  0.35066  1.0000
  C   C416      1.0  0.81474  0.83342  0.34240  1.0000
  C   C417      1.0  0.81373  0.86466  0.33482  1.0000
  C   C418      1.0  0.79874  0.87828  0.33781  1.0000
  C   C419      1.0  0.78499  0.86077  0.34684  1.0000
  C   C420      1.0  0.78648  0.82960  0.35176  1.0000
  H   H253      1.0  0.79783  0.90089  0.33233  1.0000
  H   H254      1.0  0.77661  0.81658  0.35396  1.0000
  H   H255      1.0  0.82548  0.82323  0.34213  1.0000
  C   C421      1.0  0.20500  0.69050  0.35069  1.0000
  C   C422      1.0  0.19150  0.67287  0.34221  1.0000
  C   C423      1.0  0.19252  0.64165  0.33432  1.0000
  C   C424      1.0  0.20751  0.62803  0.33726  1.0000
  C   C425      1.0  0.22125  0.64553  0.34660  1.0000
  C   C426      1.0  0.21976  0.67670  0.35174  1.0000
  H   H256      1.0  0.20842  0.60543  0.33156  1.0000
  H   H257      1.0  0.22963  0.68972  0.35406  1.0000
  H   H258      1.0  0.18076  0.68306  0.34196  1.0000
  C   C427      1.0  0.20523  0.81544  0.33998  1.0000
  C   C428      1.0  0.19162  0.83290  0.34284  1.0000
  C   C429      1.0  0.19249  0.86425  0.34417  1.0000
  C   C430      1.0  0.20743  0.87799  0.33879  1.0000
  C   C431      1.0  0.22126  0.86054  0.33322  1.0000
  C   C432      1.0  0.21994  0.82931  0.33523  1.0000
  H   H259      1.0  0.20826  0.90068  0.34018  1.0000
  H   H260      1.0  0.22984  0.81637  0.33426  1.0000
  H   H261      1.0  0.18094  0.82252  0.34682  1.0000
  C   C433      1.0  0.80099  0.69086  0.33950  1.0000
  C   C434      1.0  0.81462  0.67342  0.34232  1.0000
  C   C435      1.0  0.81376  0.64207  0.34359  1.0000
  C   C436      1.0  0.79883  0.62830  0.33828  1.0000
  C   C437      1.0  0.78498  0.64572  0.33282  1.0000
  C   C438      1.0  0.78629  0.67696  0.33483  1.0000
  H   H262      1.0  0.79801  0.60561  0.33969  1.0000
  H   H263      1.0  0.77638  0.68988  0.33390  1.0000
  H   H264      1.0  0.82529  0.68383  0.34626  1.0000
  C   C439      1.0  0.12954  0.60362  0.33401  1.0000
  C   C440      1.0  0.11811  0.62609  0.33817  1.0000
  C   C441      1.0  0.10169  0.62029  0.33597  1.0000
  C   C442      1.0  0.09729  0.58958  0.33272  1.0000
  C   C443      1.0  0.10842  0.56615  0.32265  1.0000
  C   C444      1.0  0.12450  0.57413  0.32581  1.0000
  H   H265      1.0  0.08576  0.58423  0.32515  1.0000
  H   H266      1.0  0.13297  0.55800  0.32359  1.0000
  H   H267      1.0  0.12214  0.64728  0.34700  1.0000
  C   C445      1.0  0.87670  0.90278  0.33522  1.0000
  C   C446      1.0  0.88814  0.88033  0.33932  1.0000
  C   C447      1.0  0.90455  0.88615  0.33701  1.0000
  C   C448      1.0  0.90895  0.91686  0.33386  1.0000
  C   C449      1.0  0.89780  0.94025  0.32349  1.0000
  C   C450      1.0  0.88173  0.93226  0.32677  1.0000
  H   H268      1.0  0.92047  0.92219  0.32590  1.0000
  H   H269      1.0  0.87326  0.94838  0.32441  1.0000
  H   H270      1.0  0.88411  0.85912  0.34812  1.0000
  C   C451      1.0  0.87694  0.60382  0.33842  1.0000
  C   C452      1.0  0.88856  0.62569  0.35034  1.0000
  C   C453      1.0  0.90494  0.61942  0.35070  1.0000
  C   C454      1.0  0.90908  0.58882  0.33898  1.0000
  C   C455      1.0  0.89788  0.56607  0.32125  1.0000
  C   C456      1.0  0.88187  0.57457  0.32227  1.0000
  H   H271      1.0  0.92057  0.58277  0.34195  1.0000
  H   H272      1.0  0.87331  0.55866  0.31818  1.0000
  H   H273      1.0  0.88468  0.64714  0.35344  1.0000
  C   C457      1.0  0.12931  0.90258  0.33979  1.0000
  C   C458      1.0  0.11769  0.88072  0.35185  1.0000
  C   C459      1.0  0.10131  0.88699  0.35214  1.0000
  C   C460      1.0  0.09718  0.91760  0.34030  1.0000
  C   C461      1.0  0.10838  0.94033  0.32241  1.0000
  C   C462      1.0  0.12439  0.93183  0.32347  1.0000
  H   H274      1.0  0.08569  0.92367  0.34323  1.0000
  H   H275      1.0  0.13295  0.94772  0.31917  1.0000
  H   H276      1.0  0.12157  0.85927  0.35499  1.0000
  C   C463      1.0  0.62950  0.85372  0.33635  1.0000
  C   C464      1.0  0.61806  0.87617  0.34005  1.0000
  C   C465      1.0  0.60166  0.87033  0.33727  1.0000
  C   C466      1.0  0.59728  0.83961  0.33380  1.0000
  C   C467      1.0  0.60844  0.81623  0.32385  1.0000
  C   C468      1.0  0.62450  0.82423  0.32765  1.0000
  H   H277      1.0  0.58575  0.83429  0.32567  1.0000
  H   H278      1.0  0.63299  0.80814  0.32544  1.0000
  H   H279      1.0  0.62208  0.89738  0.34900  1.0000
  C   C469      1.0  0.37672  0.65275  0.33717  1.0000
  C   C470      1.0  0.38816  0.63031  0.34109  1.0000
  C   C471      1.0  0.40457  0.63615  0.33837  1.0000
  C   C472      1.0  0.40895  0.66687  0.33477  1.0000
  C   C473      1.0  0.39779  0.69024  0.32458  1.0000
  C   C474      1.0  0.38172  0.68224  0.32828  1.0000
  H   H280      1.0  0.42047  0.67222  0.32680  1.0000
  H   H281      1.0  0.37324  0.69833  0.32581  1.0000
  H   H282      1.0  0.38415  0.60910  0.35006  1.0000
  C   C475      1.0  0.37695  0.85391  0.33647  1.0000
  C   C476      1.0  0.38857  0.87575  0.34880  1.0000
  C   C477      1.0  0.40494  0.86943  0.34945  1.0000
  C   C478      1.0  0.40906  0.83883  0.33771  1.0000
  C   C479      1.0  0.39786  0.81609  0.31982  1.0000
  C   C480      1.0  0.38185  0.82464  0.32039  1.0000
  H   H283      1.0  0.42055  0.83276  0.34101  1.0000
  H   H284      1.0  0.37328  0.80878  0.31624  1.0000
  H   H285      1.0  0.38469  0.89720  0.35211  1.0000
  C   C481      1.0  0.62933  0.65252  0.33761  1.0000
  C   C482      1.0  0.61769  0.63070  0.34984  1.0000
  C   C483      1.0  0.60132  0.63703  0.35049  1.0000
  C   C484      1.0  0.59722  0.66766  0.33879  1.0000
  C   C485      1.0  0.60844  0.69037  0.32086  1.0000
  C   C486      1.0  0.62444  0.68180  0.32163  1.0000
  H   H286      1.0  0.58574  0.67375  0.34204  1.0000
  H   H287      1.0  0.63301  0.69765  0.31730  1.0000
  H   H288      1.0  0.62156  0.60923  0.35316  1.0000
  C   C487      1.0  0.06225  0.72567  0.34801  1.0000
  C   C488      1.0  0.06981  0.75383  0.35328  1.0000
  C   C489      1.0  0.06198  0.78175  0.35560  1.0000
  C   C490      1.0  0.04540  0.78053  0.34961  1.0000
  C   C491      1.0  0.03693  0.75334  0.34882  1.0000
  C   C492      1.0  0.04562  0.72642  0.35030  1.0000
  H   H289      1.0  0.03919  0.79995  0.35048  1.0000
  H   H290      1.0  0.03958  0.70685  0.34824  1.0000
  H   H291      1.0  0.08172  0.75406  0.35505  1.0000
  C   C493      1.0  0.94398  0.78079  0.34831  1.0000
  C   C494      1.0  0.93640  0.75264  0.35329  1.0000
  C   C495      1.0  0.94422  0.72471  0.35528  1.0000
  C   C496      1.0  0.96079  0.72589  0.34937  1.0000
  C   C497      1.0  0.96925  0.75307  0.34965  1.0000
  C   C498      1.0  0.96060  0.78004  0.35091  1.0000
  H   H292      1.0  0.96701  0.70650  0.35291  1.0000
  H   H293      1.0  0.96667  0.79954  0.34572  1.0000
  H   H294      1.0  0.92448  0.75243  0.35497  1.0000
  C   C499      1.0  0.56224  0.97574  0.34800  1.0000
  C   C500      1.0  0.56980  0.50390  0.35306  1.0000
  C   C501      1.0  0.56197  0.53183  0.35519  1.0000
  C   C502      1.0  0.54540  0.53061  0.34915  1.0000
  C   C503      1.0  0.53693  0.00343  0.34862  1.0000
  C   C504      1.0  0.54562  0.97650  0.35027  1.0000
  H   H295      1.0  0.53919  0.55003  0.35002  1.0000
  H   H296      1.0  0.53956  0.95693  0.34835  1.0000
  H   H297      1.0  0.58171  0.50412  0.35484  1.0000
  C   C505      1.0  0.44398  0.53078  0.34869  1.0000
  C   C506      1.0  0.43641  0.00261  0.35354  1.0000
  C   C507      1.0  0.44423  0.97468  0.35530  1.0000
  C   C508      1.0  0.46081  0.97588  0.34943  1.0000
  C   C509      1.0  0.46926  0.50306  0.34973  1.0000
  C   C510      1.0  0.46060  0.53002  0.35107  1.0000
  H   H298      1.0  0.46702  0.95648  0.35274  1.0000
  H   H299      1.0  0.46667  0.54953  0.34603  1.0000
  H   H300      1.0  0.42449  0.00240  0.35528  1.0000
  C   C511      1.0  0.26957  0.62276  0.33231  1.0000
  C   C512      1.0  0.26310  0.63455  0.41176  1.0000
  C   C513      1.0  0.24695  0.64031  0.41764  1.0000
  H   H301      1.0  0.24266  0.64946  0.47557  1.0000
  H   H302      1.0  0.27002  0.63827  0.46675  1.0000
  C   C514      1.0  0.73667  0.88351  0.33276  1.0000
  C   C515      1.0  0.74315  0.87178  0.41223  1.0000
  C   C516      1.0  0.75930  0.86601  0.41807  1.0000
  H   H303      1.0  0.76359  0.85688  0.47602  1.0000
  H   H304      1.0  0.73624  0.86805  0.46722  1.0000
  C   C517      1.0  0.76954  0.63398  0.33348  1.0000
  C   C518      1.0  0.76314  0.62205  0.41338  1.0000
  C   C519      1.0  0.74699  0.61581  0.41875  1.0000
  H   H305      1.0  0.74270  0.60611  0.47589  1.0000
  O   O43       1.0  0.77230  0.61620  0.48601  1.0000
  H   H306      1.0  0.77216  0.63429  0.52307  1.0000
  C   C520      1.0  0.23672  0.87225  0.33383  1.0000
  C   C521      1.0  0.24312  0.88418  0.41369  1.0000
  C   C522      1.0  0.25928  0.89041  0.41893  1.0000
  H   H307      1.0  0.26357  0.90010  0.47604  1.0000
  O   O44       1.0  0.23397  0.89003  0.48637  1.0000
  H   H308      1.0  0.23412  0.87195  0.52342  1.0000
  C   C523      1.0  0.30199  0.53473  0.34921  1.0000
  C   C524      1.0  0.29461  0.51911  0.42009  1.0000
  C   C525      1.0  0.29448  0.98792  0.41931  1.0000
  H   H309      1.0  0.28888  0.97683  0.47003  1.0000
  O   O45       1.0  0.28708  0.53322  0.48848  1.0000
  H   H310      1.0  0.29529  0.54049  0.52922  1.0000
  C   C526      1.0  0.70425  0.97154  0.34928  1.0000
  C   C527      1.0  0.71162  0.98716  0.42019  1.0000
  C   C528      1.0  0.71174  0.51835  0.41944  1.0000
  H   H311      1.0  0.71735  0.52944  0.47015  1.0000
  O   O46       1.0  0.71915  0.97304  0.48856  1.0000
  H   H312      1.0  0.71094  0.96574  0.52927  1.0000
  C   C529      1.0  0.80229  0.78454  0.35290  1.0000
  C   C530      1.0  0.79508  0.76804  0.42257  1.0000
  C   C531      1.0  0.79481  0.73689  0.41785  1.0000
  H   H313      1.0  0.78930  0.72515  0.46762  1.0000
  O   O47       1.0  0.78781  0.78126  0.49344  1.0000
  H   H314      1.0  0.79616  0.78826  0.53363  1.0000
  C   C532      1.0  0.20393  0.72176  0.35307  1.0000
  C   C533      1.0  0.21114  0.73823  0.42280  1.0000
  C   C534      1.0  0.21141  0.76938  0.41824  1.0000
  H   H315      1.0  0.21691  0.78110  0.46802  1.0000
  O   O48       1.0  0.21841  0.72498  0.49363  1.0000
  H   H316      1.0  0.21006  0.71797  0.53379  1.0000
  C   C535      1.0  0.32813  0.63027  0.32512  1.0000
  C   C536      1.0  0.33424  0.64581  0.39967  1.0000
  C   C537      1.0  0.35019  0.65387  0.40268  1.0000
  H   H317      1.0  0.35443  0.66403  0.45911  1.0000
  H   H318      1.0  0.32741  0.64951  0.45497  1.0000
  C   C538      1.0  0.67811  0.87600  0.32508  1.0000
  C   C539      1.0  0.67194  0.86065  0.39977  1.0000
  C   C540      1.0  0.65598  0.85265  0.40252  1.0000
  H   H319      1.0  0.65169  0.84251  0.45889  1.0000
  H   H320      1.0  0.67875  0.85691  0.45515  1.0000
  C   C541      1.0  0.64564  0.64567  0.34351  1.0000
  C   C542      1.0  0.65196  0.63233  0.42172  1.0000
  C   C543      1.0  0.66792  0.62447  0.42503  1.0000
  H   H321      1.0  0.67194  0.61310  0.47993  1.0000
  O   O49       1.0  0.64286  0.62530  0.49364  1.0000
  H   H322      1.0  0.64170  0.64371  0.52858  1.0000
  C   C544      1.0  0.36064  0.86072  0.34256  1.0000
  C   C545      1.0  0.35433  0.87398  0.42093  1.0000
  C   C546      1.0  0.33838  0.88183  0.42441  1.0000
  H   H323      1.0  0.33436  0.89313  0.47948  1.0000
  O   O50       1.0  0.36345  0.88099  0.49281  1.0000
  H   H324      1.0  0.36466  0.86256  0.52755  1.0000
  C   C547      1.0  0.82808  0.88039  0.32561  1.0000
  C   C548      1.0  0.83424  0.89649  0.39891  1.0000
  C   C549      1.0  0.85020  0.90453  0.40092  1.0000
  H   H325      1.0  0.85448  0.91513  0.45651  1.0000
  H   H326      1.0  0.82746  0.90066  0.45411  1.0000
  C   C550      1.0  0.17818  0.62592  0.32479  1.0000
  C   C551      1.0  0.17200  0.60967  0.39774  1.0000
  C   C552      1.0  0.15604  0.60166  0.39963  1.0000
  H   H327      1.0  0.15174  0.59107  0.45520  1.0000
  H   H328      1.0  0.17875  0.60551  0.45306  1.0000
  C   C553      1.0  0.14564  0.89576  0.34504  1.0000
  C   C554      1.0  0.15206  0.88196  0.42225  1.0000
  C   C555      1.0  0.16802  0.87407  0.42451  1.0000
  H   H329      1.0  0.17210  0.86235  0.47858  1.0000
  O   O51       1.0  0.14304  0.87444  0.49407  1.0000
  H   H330      1.0  0.14184  0.89264  0.52991  1.0000
  C   C556      1.0  0.86062  0.61062  0.34394  1.0000
  C   C557      1.0  0.85424  0.62443  0.42125  1.0000
  C   C558      1.0  0.83828  0.63231  0.42376  1.0000
  H   H331      1.0  0.83422  0.64404  0.47789  1.0000
  O   O52       1.0  0.86329  0.63195  0.49292  1.0000
  H   H332      1.0  0.86452  0.61374  0.52870  1.0000
  C   C559      1.0  0.09089  0.64491  0.33529  1.0000
  C   C560      1.0  0.07524  0.64431  0.36897  1.0000
  C   C561      1.0  0.06570  0.67026  0.37063  1.0000
  H   H333      1.0  0.05499  0.66861  0.40081  1.0000
  O   O53       1.0  0.06914  0.61968  0.40878  1.0000
  H   H334      1.0  0.07331  0.61927  0.47029  1.0000
  C   C562      1.0  0.91535  0.86154  0.33606  1.0000
  C   C563      1.0  0.93099  0.86210  0.36990  1.0000
  C   C564      1.0  0.94054  0.83616  0.37119  1.0000
  H   H335      1.0  0.95123  0.83774  0.40165  1.0000
  O   O54       1.0  0.93706  0.88667  0.41019  1.0000
  H   H336      1.0  0.93286  0.88698  0.47164  1.0000
  C   C565      1.0  0.93560  0.69732  0.36096  1.0000
  C   C566      1.0  0.92080  0.69605  0.40366  1.0000
  C   C567      1.0  0.91155  0.67021  0.40402  1.0000
  H   H337      1.0  0.90140  0.67127  0.44024  1.0000
  H   H338      1.0  0.91666  0.71384  0.43914  1.0000
  C   C568      1.0  0.07060  0.80914  0.36155  1.0000
  C   C569      1.0  0.08539  0.81036  0.40442  1.0000
  C   C570      1.0  0.09466  0.83616  0.40501  1.0000
  H   H339      1.0  0.10481  0.83504  0.44122  1.0000
  H   H340      1.0  0.08952  0.79251  0.43968  1.0000
  C   C571      1.0  0.59085  0.89494  0.33613  1.0000
  C   C572      1.0  0.57519  0.89438  0.36958  1.0000
  C   C573      1.0  0.56566  0.92033  0.37090  1.0000
  H   H341      1.0  0.55494  0.91870  0.40098  1.0000
  O   O55       1.0  0.56907  0.86975  0.40928  1.0000
  H   H342      1.0  0.57318  0.86936  0.47091  1.0000
  C   C574      1.0  0.41537  0.61155  0.33720  1.0000
  C   C575      1.0  0.43102  0.61209  0.37078  1.0000
  C   C576      1.0  0.44056  0.58614  0.37186  1.0000
  H   H343      1.0  0.45128  0.58770  0.40204  1.0000
  O   O56       1.0  0.43712  0.63668  0.41081  1.0000
  H   H344      1.0  0.43297  0.63701  0.47237  1.0000
  C   C577      1.0  0.43562  0.94728  0.36076  1.0000
  C   C578      1.0  0.42081  0.94596  0.40342  1.0000
  C   C579      1.0  0.41155  0.92014  0.40342  1.0000
  H   H345      1.0  0.40139  0.92119  0.43948  1.0000
  H   H346      1.0  0.41666  0.96374  0.43893  1.0000
  C   C580      1.0  0.57060  0.55922  0.36088  1.0000
  C   C581      1.0  0.58541  0.56046  0.40356  1.0000
  C   C582      1.0  0.59467  0.58627  0.40395  1.0000
  H   H347      1.0  0.60483  0.58517  0.44004  1.0000
  H   H348      1.0  0.58954  0.54265  0.43898  1.0000
  C   C583      1.0  0.10477  0.53544  0.30878  1.0000
  C   C584      1.0  0.09329  0.51900  0.35717  1.0000
  C   C585      1.0  0.09330  0.98731  0.35587  1.0000
  H   H349      1.0  0.08616  0.97633  0.39986  1.0000
  O   O57       1.0  0.08354  0.53277  0.41626  1.0000
  H   H350      1.0  0.08937  0.53470  0.47287  1.0000
  C   C586      1.0  0.90143  0.97095  0.30925  1.0000
  C   C587      1.0  0.91297  0.98746  0.35713  1.0000
  C   C588      1.0  0.91298  0.51915  0.35515  1.0000
  H   H351      1.0  0.92013  0.53015  0.39908  1.0000
  O   O58       1.0  0.92273  0.97378  0.41634  1.0000
  H   H352      1.0  0.91691  0.97197  0.47305  1.0000
  C   C589      1.0  0.60483  0.78554  0.30933  1.0000
  C   C590      1.0  0.59331  0.76896  0.35707  1.0000
  C   C591      1.0  0.59332  0.73727  0.35495  1.0000
  H   H353      1.0  0.58615  0.72623  0.39870  1.0000
  O   O59       1.0  0.58350  0.78262  0.41605  1.0000
  H   H354      1.0  0.58926  0.78435  0.47297  1.0000
  C   C592      1.0  0.40141  0.72091  0.30976  1.0000
  C   C593      1.0  0.41293  0.73754  0.35726  1.0000
  C   C594      1.0  0.41294  0.76922  0.35471  1.0000
  H   H355      1.0  0.42009  0.78036  0.39830  1.0000
  O   O60       1.0  0.42270  0.72399  0.41669  1.0000
  H   H356      1.0  0.41689  0.72228  0.47344  1.0000
  C   C595      1.0  0.98613  0.75324  0.34851  1.0000
  C   C596      1.0  0.99486  0.77148  0.40754  1.0000
  C   C597      1.0  0.01138  0.77133  0.40725  1.0000
  H   H357      1.0  0.01708  0.78438  0.45301  1.0000
  H   H358      1.0  0.98922  0.78464  0.45329  1.0000
  C   C598      1.0  0.48613  0.50325  0.34852  1.0000
  C   C599      1.0  0.49486  0.52153  0.40746  1.0000
  C   C600      1.0  0.51138  0.52140  0.40710  1.0000
  H   H359      1.0  0.51709  0.53444  0.45288  1.0000
  H   H360      1.0  0.48922  0.53464  0.45331  1.0000
