data_image0
_chemical_formula_structural       C12H3CH3CHC3H2CHC3H2CHC3H2CHC4H3CH3CHC4H3CH3CHC4H3CH3CHC4H3CH3CHC3H2CHC3H2CHC4H3CH3CHC4H3CH3CHC3H2CHC3H2CHC4H3CH3CHC4H3CH3CHC3H2CHC3H2CHC4H3CH3CHC4H3CH3CHC3H2CHC3H2CHC3H2CHC4H3CH3CHNCNCN5CNCN4CNCNCN4CNCNCN4CNCNCN4CNCNCN5CNCN5CNCN5CNCN5CNCN4CNCNCN4CNCNCN4CNCNCN4CNCNCN5CNCN5CNCN4C3H2CHC4H3CH3CHC4H3CH3CHC4H3CH3CHC3H2CHC3H2CHC3H2CHC3H2CHC4H3CH3CHC4H3CH3CHC3H2CHC3H2CHC4H3CH3CHC4H3CH3CHC3H2CHC3H2CHC4H3CH3CHC4H3CH3CHC3H2CHC3H2CHC4H3CH3CHC4H3CH3CHC4H3CH3CHC3H2CH
_chemical_formula_sum              "C288 H240 N96"
_cell_length_a       82.7995
_cell_length_b       42.6897
_cell_length_c       14.6349
_cell_angle_alpha    90
_cell_angle_beta     90
_cell_angle_gamma    90

_space_group_name_H-M_alt    "P 1"
_space_group_IT_number       1

loop_
  _space_group_symop_operation_xyz
  'x, y, z'

loop_
  _atom_site_type_symbol
  _atom_site_label
  _atom_site_symmetry_multiplicity
  _atom_site_fract_x
  _atom_site_fract_y
  _atom_site_fract_z
  _atom_site_occupancy
  C   C1        1.0  0.46237  0.37448  0.36100  1.0000
  C   C2        1.0  0.56256  0.65098  0.36147  1.0000
  C   C3        1.0  0.21003  0.81438  0.35832  1.0000
  C   C4        1.0  0.81492  0.21076  0.35769  1.0000
  C   C5        1.0  0.07919  0.40541  0.35939  1.0000
  C   C6        1.0  0.94561  0.62038  0.35754  1.0000
  C   C7        1.0  0.30080  0.97597  0.35741  1.0000
  C   C8        1.0  0.72418  0.04911  0.35764  1.0000
  C   C9        1.0  0.50169  0.48597  0.35543  1.0000
  C   C10       1.0  0.50380  0.50423  0.27423  1.0000
  C   C11       1.0  0.51447  0.53095  0.27439  1.0000
  C   C12       1.0  0.49507  0.49534  0.18823  1.0000
  H   H1        1.0  0.48740  0.47471  0.19456  1.0000
  H   H2        1.0  0.50375  0.49023  0.13419  1.0000
  H   H3        1.0  0.48730  0.51457  0.16642  1.0000
  C   C13       1.0  0.51694  0.54921  0.18794  1.0000
  H   H4        1.0  0.52542  0.56856  0.19385  1.0000
  H   H5        1.0  0.50547  0.55916  0.16537  1.0000
  H   H6        1.0  0.52164  0.53388  0.13458  1.0000
  C   C14       1.0  0.49061  0.46121  0.36300  1.0000
  H   H7        1.0  0.47896  0.46658  0.36771  1.0000
  C   C15       1.0  0.00217  0.03979  0.36026  1.0000
  C   C16       1.0  0.00442  0.02112  0.28153  1.0000
  C   C17       1.0  0.01479  0.99502  0.28173  1.0000
  H   H8        1.0  0.01619  0.98271  0.22209  1.0000
  H   H9        1.0  0.99854  0.02652  0.22192  1.0000
  C   C18       1.0  0.99093  0.06437  0.35402  1.0000
  H   H10       1.0  0.97936  0.05883  0.34566  1.0000
  C   C19       1.0  0.42023  0.34734  0.36278  1.0000
  C   C20       1.0  0.41120  0.34544  0.28109  1.0000
  C   C21       1.0  0.39496  0.33583  0.28119  1.0000
  H   H11       1.0  0.38933  0.33281  0.21939  1.0000
  H   H12       1.0  0.41671  0.34890  0.21915  1.0000
  C   C22       1.0  0.43707  0.34808  0.35378  1.0000
  H   H13       1.0  0.44229  0.32750  0.34153  1.0000
  C   C23       1.0  0.60472  0.67794  0.36379  1.0000
  C   C24       1.0  0.61378  0.67974  0.28218  1.0000
  C   C25       1.0  0.63003  0.68932  0.28243  1.0000
  H   H14       1.0  0.63565  0.69238  0.22064  1.0000
  H   H15       1.0  0.60827  0.67639  0.22019  1.0000
  C   C26       1.0  0.58788  0.67727  0.35461  1.0000
  H   H16       1.0  0.58269  0.69788  0.34232  1.0000
  C   C27       1.0  0.13797  0.82758  0.35354  1.0000
  C   C28       1.0  0.12930  0.83030  0.26931  1.0000
  C   C29       1.0  0.11264  0.84013  0.26950  1.0000
  C   C30       1.0  0.13732  0.82168  0.18094  1.0000
  H   H17       1.0  0.14998  0.81517  0.18768  1.0000
  H   H18       1.0  0.13695  0.84149  0.13398  1.0000
  H   H19       1.0  0.13109  0.80181  0.14991  1.0000
  C   C31       1.0  0.10343  0.84147  0.18136  1.0000
  H   H20       1.0  0.09106  0.84977  0.18833  1.0000
  H   H21       1.0  0.10287  0.81818  0.15074  1.0000
  H   H22       1.0  0.10939  0.85742  0.13396  1.0000
  C   C32       1.0  0.15246  0.81086  0.36179  1.0000
  H   H23       1.0  0.15143  0.78788  0.37149  1.0000
  C   C33       1.0  0.88696  0.19754  0.35225  1.0000
  C   C34       1.0  0.89566  0.19490  0.26812  1.0000
  C   C35       1.0  0.91233  0.18516  0.26840  1.0000
  C   C36       1.0  0.88765  0.20354  0.17973  1.0000
  H   H24       1.0  0.87497  0.20996  0.18641  1.0000
  H   H25       1.0  0.88806  0.18376  0.13266  1.0000
  H   H26       1.0  0.89385  0.22346  0.14886  1.0000
  C   C37       1.0  0.92157  0.18390  0.18034  1.0000
  H   H27       1.0  0.93395  0.17566  0.18737  1.0000
  H   H28       1.0  0.92210  0.20721  0.14980  1.0000
  H   H29       1.0  0.91564  0.16794  0.13282  1.0000
  C   C38       1.0  0.87248  0.21429  0.36057  1.0000
  H   H30       1.0  0.87352  0.23728  0.37017  1.0000
  C   C39       1.0  0.53080  0.22380  0.35155  1.0000
  C   C40       1.0  0.52324  0.23549  0.27052  1.0000
  C   C41       1.0  0.51656  0.26663  0.26950  1.0000
  C   C42       1.0  0.52231  0.21549  0.18634  1.0000
  H   H31       1.0  0.52786  0.19248  0.19339  1.0000
  H   H32       1.0  0.52848  0.22705  0.12979  1.0000
  H   H33       1.0  0.50970  0.21164  0.16777  1.0000
  C   C43       1.0  0.50909  0.27909  0.18349  1.0000
  H   H34       1.0  0.50471  0.30306  0.18847  1.0000
  H   H35       1.0  0.49881  0.26456  0.16402  1.0000
  H   H36       1.0  0.51795  0.27888  0.12835  1.0000
  C   C44       1.0  0.53570  0.19278  0.36149  1.0000
  H   H37       1.0  0.52698  0.17691  0.36809  1.0000
  C   C45       1.0  0.49435  0.80202  0.34865  1.0000
  C   C46       1.0  0.50192  0.79017  0.26785  1.0000
  C   C47       1.0  0.50856  0.75899  0.26731  1.0000
  C   C48       1.0  0.50287  0.81002  0.18337  1.0000
  H   H38       1.0  0.49734  0.83305  0.19005  1.0000
  H   H39       1.0  0.49671  0.79836  0.12696  1.0000
  H   H40       1.0  0.51549  0.81380  0.16483  1.0000
  C   C49       1.0  0.51604  0.74635  0.18155  1.0000
  H   H41       1.0  0.52041  0.72239  0.18694  1.0000
  H   H42       1.0  0.52633  0.76083  0.16192  1.0000
  H   H43       1.0  0.50719  0.74649  0.12634  1.0000
  C   C50       1.0  0.48948  0.83308  0.35820  1.0000
  H   H44       1.0  0.49822  0.84897  0.36396  1.0000
  C   C51       1.0  0.00779  0.78548  0.36630  1.0000
  C   C52       1.0  0.00015  0.77335  0.28765  1.0000
  C   C53       1.0  0.99357  0.74306  0.28671  1.0000
  H   H45       1.0  0.98859  0.73498  0.22705  1.0000
  H   H46       1.0  0.99948  0.78640  0.22892  1.0000
  C   C54       1.0  0.01357  0.81617  0.36081  1.0000
  H   H47       1.0  0.00556  0.83346  0.35568  1.0000
  C   C55       1.0  0.01705  0.24028  0.36826  1.0000
  C   C56       1.0  0.02469  0.25259  0.28986  1.0000
  C   C57       1.0  0.03124  0.28291  0.28944  1.0000
  H   H48       1.0  0.03622  0.29113  0.22993  1.0000
  H   H49       1.0  0.02538  0.23966  0.23092  1.0000
  C   C58       1.0  0.01132  0.20958  0.36229  1.0000
  H   H50       1.0  0.01936  0.19233  0.35724  1.0000
  C   C59       1.0  0.31747  0.17931  0.34881  1.0000
  C   C60       1.0  0.32268  0.16317  0.26825  1.0000
  C   C61       1.0  0.32406  0.12947  0.26830  1.0000
  C   C62       1.0  0.32662  0.18113  0.18305  1.0000
  H   H51       1.0  0.32490  0.20632  0.18856  1.0000
  H   H52       1.0  0.31891  0.17332  0.12709  1.0000
  H   H53       1.0  0.33923  0.17732  0.16442  1.0000
  C   C63       1.0  0.32986  0.11286  0.18408  1.0000
  H   H54       1.0  0.33030  0.08744  0.19018  1.0000
  H   H55       1.0  0.34205  0.12065  0.16712  1.0000
  H   H56       1.0  0.32185  0.11796  0.12686  1.0000
  C   C64       1.0  0.31499  0.21185  0.35472  1.0000
  H   H57       1.0  0.30369  0.21946  0.36119  1.0000
  C   C65       1.0  0.70750  0.84581  0.34928  1.0000
  C   C66       1.0  0.70228  0.86195  0.26871  1.0000
  C   C67       1.0  0.70090  0.89565  0.26874  1.0000
  C   C68       1.0  0.69833  0.84397  0.18355  1.0000
  H   H58       1.0  0.70004  0.81878  0.18908  1.0000
  H   H59       1.0  0.70603  0.85177  0.12756  1.0000
  H   H60       1.0  0.68572  0.84779  0.16496  1.0000
  C   C69       1.0  0.69509  0.91225  0.18454  1.0000
  H   H61       1.0  0.69465  0.93766  0.19063  1.0000
  H   H62       1.0  0.68290  0.90446  0.16763  1.0000
  H   H63       1.0  0.70309  0.90714  0.12728  1.0000
  C   C70       1.0  0.70998  0.81328  0.35520  1.0000
  H   H64       1.0  0.72128  0.80567  0.36153  1.0000
  C   C71       1.0  0.20515  0.61184  0.36859  1.0000
  C   C72       1.0  0.21039  0.62835  0.29047  1.0000
  C   C73       1.0  0.21165  0.66120  0.29039  1.0000
  H   H65       1.0  0.21555  0.67192  0.23170  1.0000
  H   H66       1.0  0.21312  0.61653  0.23147  1.0000
  C   C74       1.0  0.20218  0.57963  0.35935  1.0000
  H   H67       1.0  0.19069  0.57334  0.35213  1.0000
  C   C75       1.0  0.81978  0.41328  0.36818  1.0000
  C   C76       1.0  0.81453  0.39678  0.29006  1.0000
  C   C77       1.0  0.81327  0.36393  0.28994  1.0000
  H   H68       1.0  0.80937  0.35322  0.23124  1.0000
  H   H69       1.0  0.81180  0.40861  0.23108  1.0000
  C   C78       1.0  0.82275  0.44549  0.35896  1.0000
  H   H70       1.0  0.83424  0.45179  0.35175  1.0000
  C   C79       1.0  0.28401  0.37651  0.35400  1.0000
  C   C80       1.0  0.27468  0.37919  0.27197  1.0000
  C   C81       1.0  0.26000  0.39744  0.27122  1.0000
  C   C82       1.0  0.28018  0.36333  0.18600  1.0000
  H   H71       1.0  0.29145  0.35041  0.19255  1.0000
  H   H72       1.0  0.28209  0.38071  0.13244  1.0000
  H   H73       1.0  0.27105  0.34662  0.16334  1.0000
  C   C83       1.0  0.25020  0.39966  0.18520  1.0000
  H   H74       1.0  0.23948  0.41434  0.19078  1.0000
  H   H75       1.0  0.24610  0.37638  0.16491  1.0000
  H   H76       1.0  0.25750  0.40961  0.13041  1.0000
  C   C84       1.0  0.29916  0.36170  0.35994  1.0000
  H   H77       1.0  0.30875  0.37554  0.36719  1.0000
  C   C85       1.0  0.74092  0.64863  0.35433  1.0000
  C   C86       1.0  0.75023  0.64590  0.27221  1.0000
  C   C87       1.0  0.76490  0.62764  0.27135  1.0000
  C   C88       1.0  0.74471  0.66175  0.18626  1.0000
  H   H78       1.0  0.73345  0.67470  0.19291  1.0000
  H   H79       1.0  0.74277  0.64437  0.13275  1.0000
  H   H80       1.0  0.75384  0.67845  0.16349  1.0000
  C   C89       1.0  0.77468  0.62539  0.18526  1.0000
  H   H81       1.0  0.78539  0.61069  0.19076  1.0000
  H   H82       1.0  0.77878  0.64865  0.16492  1.0000
  H   H83       1.0  0.76736  0.61544  0.13053  1.0000
  C   C90       1.0  0.72578  0.66342  0.36037  1.0000
  H   H84       1.0  0.71619  0.64960  0.36770  1.0000
  C   C91       1.0  0.27008  0.91372  0.36489  1.0000
  C   C92       1.0  0.26058  0.91085  0.28526  1.0000
  C   C93       1.0  0.24630  0.89299  0.28449  1.0000
  H   H85       1.0  0.23980  0.89205  0.22490  1.0000
  H   H86       1.0  0.26408  0.92161  0.22584  1.0000
  C   C94       1.0  0.28511  0.92875  0.35702  1.0000
  H   H87       1.0  0.29475  0.91494  0.35288  1.0000
  C   C95       1.0  0.75490  0.11136  0.36477  1.0000
  C   C96       1.0  0.76438  0.11425  0.28507  1.0000
  C   C97       1.0  0.77865  0.13214  0.28419  1.0000
  H   H88       1.0  0.78513  0.13310  0.22453  1.0000
  H   H89       1.0  0.76087  0.10350  0.22566  1.0000
  C   C98       1.0  0.73988  0.09632  0.35701  1.0000
  H   H90       1.0  0.73023  0.11013  0.35300  1.0000
  C   C99       1.0  0.11992  0.43799  0.35656  1.0000
  C   C100      1.0  0.12735  0.44622  0.27163  1.0000
  C   C101      1.0  0.14375  0.45735  0.27025  1.0000
  C   C102      1.0  0.11789  0.44434  0.18444  1.0000
  H   H91       1.0  0.10578  0.43482  0.19252  1.0000
  H   H92       1.0  0.12408  0.42914  0.13585  1.0000
  H   H93       1.0  0.11664  0.46767  0.15467  1.0000
  C   C103      1.0  0.15132  0.46710  0.18157  1.0000
  H   H94       1.0  0.16384  0.47464  0.18753  1.0000
  H   H95       1.0  0.14455  0.48657  0.15200  1.0000
  H   H96       1.0  0.15125  0.44751  0.13376  1.0000
  C   C104      1.0  0.10323  0.43589  0.36813  1.0000
  H   H97       1.0  0.09723  0.45569  0.35668  1.0000
  C   C105      1.0  0.90488  0.58761  0.35504  1.0000
  C   C106      1.0  0.89750  0.57910  0.27024  1.0000
  C   C107      1.0  0.88112  0.56781  0.26896  1.0000
  C   C108      1.0  0.90698  0.58086  0.18310  1.0000
  H   H98       1.0  0.91907  0.59050  0.19112  1.0000
  H   H99       1.0  0.90076  0.59591  0.13419  1.0000
  H   H100      1.0  0.90828  0.55749  0.15376  1.0000
  C   C109      1.0  0.87360  0.55782  0.18041  1.0000
  H   H101      1.0  0.86109  0.55020  0.18643  1.0000
  H   H102      1.0  0.88041  0.53836  0.15120  1.0000
  H   H103      1.0  0.87363  0.57732  0.13228  1.0000
  C   C110      1.0  0.92156  0.58993  0.36680  1.0000
  H   H104      1.0  0.92756  0.57003  0.35637  1.0000
  C   C111      1.0  0.37235  0.96019  0.36274  1.0000
  C   C112      1.0  0.37976  0.95068  0.28045  1.0000
  C   C113      1.0  0.39575  0.93978  0.27911  1.0000
  H   H105      1.0  0.40095  0.93539  0.21680  1.0000
  H   H106      1.0  0.37395  0.95367  0.21916  1.0000
  C   C114      1.0  0.35822  0.97777  0.35507  1.0000
  H   H107      1.0  0.35954  0.00080  0.34766  1.0000
  C   C115      1.0  0.65267  0.06509  0.36409  1.0000
  C   C116      1.0  0.64529  0.07486  0.28198  1.0000
  C   C117      1.0  0.62931  0.08588  0.28084  1.0000
  H   H108      1.0  0.62411  0.09034  0.21856  1.0000
  H   H109      1.0  0.65106  0.07185  0.22060  1.0000
  C   C118      1.0  0.66677  0.04744  0.35614  1.0000
  H   H110      1.0  0.66542  0.02441  0.34880  1.0000
  C   C119      1.0  0.00441  0.54264  0.36419  1.0000
  C   C120      1.0  0.00510  0.52378  0.28522  1.0000
  C   C121      1.0  0.01304  0.49482  0.28651  1.0000
  H   H111      1.0  0.01326  0.48185  0.22749  1.0000
  H   H112      1.0  0.99990  0.53104  0.22522  1.0000
  C   C122      1.0  0.99699  0.57159  0.35573  1.0000
  H   H113      1.0  0.00396  0.59054  0.35200  1.0000
  C   C123      1.0  0.50427  0.98388  0.34997  1.0000
  C   C124      1.0  0.50493  0.00232  0.26849  1.0000
  C   C125      1.0  0.51301  0.03212  0.26991  1.0000
  C   C126      1.0  0.49742  0.99077  0.18151  1.0000
  H   H114      1.0  0.49191  0.96769  0.18653  1.0000
  H   H115      1.0  0.50656  0.98917  0.12808  1.0000
  H   H116      1.0  0.48797  0.00693  0.15961  1.0000
  C   C127      1.0  0.51365  0.05173  0.18489  1.0000
  H   H117      1.0  0.52006  0.07384  0.19274  1.0000
  H   H118      1.0  0.50142  0.05746  0.16271  1.0000
  H   H119      1.0  0.51977  0.03890  0.13055  1.0000
  C   C128      1.0  0.49704  0.95462  0.35515  1.0000
  H   H120      1.0  0.50411  0.93579  0.35801  1.0000
  N   N1        1.0  0.47003  0.40287  0.36188  1.0000
  C   C129      1.0  0.48654  0.40527  0.36037  1.0000
  N   N2        1.0  0.49531  0.37828  0.35808  1.0000
  C   C130      1.0  0.48817  0.34951  0.35809  1.0000
  N   N3        1.0  0.47179  0.34828  0.35931  1.0000
  N   N4        1.0  0.44613  0.37254  0.36419  1.0000
  N   N5        1.0  0.49616  0.32240  0.35471  1.0000
  N   N6        1.0  0.49488  0.43219  0.35860  1.0000
  N   N7        1.0  0.55485  0.62263  0.36220  1.0000
  C   C131      1.0  0.53834  0.62032  0.36030  1.0000
  N   N8        1.0  0.52962  0.64736  0.35753  1.0000
  C   C132      1.0  0.53679  0.67610  0.35767  1.0000
  N   N9        1.0  0.55317  0.67723  0.35938  1.0000
  N   N10       1.0  0.57880  0.65285  0.36490  1.0000
  N   N11       1.0  0.52885  0.70325  0.35379  1.0000
  N   N12       1.0  0.52995  0.59348  0.35774  1.0000
  C   C133      1.0  0.06259  0.87448  0.35562  1.0000
  N   N13       1.0  0.05491  0.90287  0.35475  1.0000
  C   C134      1.0  0.03841  0.90527  0.35626  1.0000
  N   N14       1.0  0.02964  0.87828  0.35855  1.0000
  C   C135      1.0  0.03678  0.84950  0.35855  1.0000
  N   N15       1.0  0.05316  0.84828  0.35730  1.0000
  N   N16       1.0  0.07882  0.87254  0.35245  1.0000
  N   N17       1.0  0.02879  0.82240  0.36188  1.0000
  N   N18       1.0  0.03007  0.93219  0.35808  1.0000
  C   C136      1.0  0.96240  0.15099  0.35510  1.0000
  N   N19       1.0  0.97011  0.12264  0.35436  1.0000
  C   C137      1.0  0.98661  0.12034  0.35628  1.0000
  N   N20       1.0  0.99534  0.14738  0.35907  1.0000
  C   C138      1.0  0.98817  0.17611  0.35898  1.0000
  N   N21       1.0  0.97179  0.17724  0.35722  1.0000
  N   N22       1.0  0.94616  0.15286  0.35165  1.0000
  N   N23       1.0  0.99611  0.20326  0.36283  1.0000
  N   N24       1.0  0.99501  0.09349  0.35883  1.0000
  C   C139      1.0  0.31492  0.31438  0.35832  1.0000
  N   N25       1.0  0.31369  0.28245  0.35593  1.0000
  C   C140      1.0  0.32698  0.26340  0.35618  1.0000
  N   N26       1.0  0.34176  0.27734  0.35772  1.0000
  C   C141      1.0  0.34370  0.30909  0.35959  1.0000
  N   N27       1.0  0.33008  0.32708  0.36004  1.0000
  N   N28       1.0  0.30134  0.33173  0.35575  1.0000
  N   N29       1.0  0.35826  0.32299  0.36268  1.0000
  N   N30       1.0  0.32661  0.23200  0.35268  1.0000
  C   C142      1.0  0.71004  0.71076  0.35890  1.0000
  N   N31       1.0  0.71127  0.74269  0.35650  1.0000
  C   C143      1.0  0.69799  0.76174  0.35685  1.0000
  N   N32       1.0  0.68320  0.74781  0.35852  1.0000
  C   C144      1.0  0.68126  0.71606  0.36043  1.0000
  N   N33       1.0  0.69487  0.69807  0.36077  1.0000
  N   N34       1.0  0.72360  0.69340  0.35624  1.0000
  N   N35       1.0  0.66671  0.70217  0.36360  1.0000
  N   N36       1.0  0.69836  0.79314  0.35332  1.0000
  N   N37       1.0  0.21126  0.78245  0.36065  1.0000
  C   C145      1.0  0.19797  0.76340  0.36036  1.0000
  N   N38       1.0  0.18319  0.77733  0.35884  1.0000
  C   C146      1.0  0.18125  0.80908  0.35698  1.0000
  N   N39       1.0  0.19486  0.82707  0.35656  1.0000
  N   N40       1.0  0.22360  0.83174  0.36086  1.0000
  N   N41       1.0  0.16669  0.82298  0.35394  1.0000
  N   N42       1.0  0.19834  0.73199  0.36388  1.0000
  N   N43       1.0  0.81368  0.24269  0.36004  1.0000
  C   C147      1.0  0.82697  0.26174  0.35963  1.0000
  N   N44       1.0  0.84175  0.24781  0.35799  1.0000
  C   C148      1.0  0.84369  0.21607  0.35611  1.0000
  N   N45       1.0  0.83008  0.19807  0.35580  1.0000
  N   N46       1.0  0.80135  0.19340  0.36034  1.0000
  N   N47       1.0  0.85825  0.20217  0.35295  1.0000
  N   N48       1.0  0.82660  0.29314  0.36319  1.0000
  N   N49       1.0  0.07270  0.37598  0.35963  1.0000
  C   C149      1.0  0.05639  0.37113  0.35890  1.0000
  N   N50       1.0  0.04657  0.39675  0.35897  1.0000
  C   C150      1.0  0.05255  0.42641  0.35840  1.0000
  N   N51       1.0  0.06880  0.43019  0.35916  1.0000
  N   N52       1.0  0.09525  0.40952  0.36098  1.0000
  N   N53       1.0  0.04336  0.45187  0.36110  1.0000
  N   N54       1.0  0.05039  0.34202  0.36239  1.0000
  N   N55       1.0  0.95207  0.64982  0.35749  1.0000
  C   C151      1.0  0.96837  0.65473  0.35645  1.0000
  N   N56       1.0  0.97820  0.62914  0.35650  1.0000
  C   C152      1.0  0.97226  0.59946  0.35626  1.0000
  N   N57       1.0  0.95601  0.59562  0.35733  1.0000
  N   N58       1.0  0.92955  0.61625  0.35927  1.0000
  N   N59       1.0  0.98152  0.57408  0.35879  1.0000
  N   N60       1.0  0.97437  0.68385  0.35981  1.0000
  C   C153      1.0  0.44577  0.90534  0.35713  1.0000
  N   N61       1.0  0.45227  0.87593  0.35692  1.0000
  C   C154      1.0  0.46858  0.87111  0.35765  1.0000
  N   N62       1.0  0.47838  0.89675  0.35754  1.0000
  C   C155      1.0  0.47239  0.92639  0.35804  1.0000
  N   N63       1.0  0.45614  0.93014  0.35732  1.0000
  N   N64       1.0  0.42970  0.90939  0.35558  1.0000
  N   N65       1.0  0.48157  0.95187  0.35538  1.0000
  N   N66       1.0  0.47459  0.84200  0.35420  1.0000
  C   C156      1.0  0.57934  0.12036  0.35911  1.0000
  N   N67       1.0  0.57289  0.14981  0.35913  1.0000
  C   C157      1.0  0.55658  0.15472  0.36010  1.0000
  N   N68       1.0  0.54675  0.12914  0.35998  1.0000
  C   C158      1.0  0.55268  0.09945  0.36024  1.0000
  N   N69       1.0  0.56893  0.09561  0.35927  1.0000
  N   N70       1.0  0.59540  0.11621  0.35745  1.0000
  N   N71       1.0  0.54343  0.07408  0.35765  1.0000
  N   N72       1.0  0.55059  0.18385  0.35664  1.0000
  C   C159      1.0  0.22413  0.47597  0.35920  1.0000
  N   N73       1.0  0.22506  0.50797  0.36096  1.0000
  C   C160      1.0  0.21165  0.52667  0.36143  1.0000
  N   N74       1.0  0.19697  0.51219  0.36041  1.0000
  C   C161      1.0  0.19537  0.48040  0.35864  1.0000
  N   N75       1.0  0.20909  0.46283  0.35755  1.0000
  N   N76       1.0  0.23778  0.45879  0.35661  1.0000
  N   N77       1.0  0.18103  0.46595  0.35570  1.0000
  N   N78       1.0  0.21313  0.55808  0.36480  1.0000
  C   C162      1.0  0.80077  0.54911  0.35897  1.0000
  N   N79       1.0  0.79986  0.51712  0.36073  1.0000
  C   C163      1.0  0.81327  0.49843  0.36105  1.0000
  N   N80       1.0  0.82794  0.51293  0.35987  1.0000
  C   C164      1.0  0.82954  0.54472  0.35810  1.0000
  N   N81       1.0  0.81581  0.56227  0.35717  1.0000
  N   N82       1.0  0.78713  0.56629  0.35655  1.0000
  N   N83       1.0  0.84387  0.55919  0.35504  1.0000
  N   N84       1.0  0.81179  0.46703  0.36442  1.0000
  N   N85       1.0  0.29988  0.00797  0.35563  1.0000
  C   C165      1.0  0.31329  0.02667  0.35513  1.0000
  N   N86       1.0  0.32796  0.01219  0.35615  1.0000
  C   C166      1.0  0.32957  0.98040  0.35792  1.0000
  N   N87       1.0  0.31584  0.96283  0.35903  1.0000
  N   N88       1.0  0.28716  0.95878  0.35998  1.0000
  N   N89       1.0  0.34391  0.96596  0.36084  1.0000
  N   N90       1.0  0.31180  0.05808  0.35177  1.0000
  N   N91       1.0  0.72510  0.01712  0.35585  1.0000
  C   C167      1.0  0.71169  0.99843  0.35553  1.0000
  N   N92       1.0  0.69701  0.01293  0.35674  1.0000
  C   C168      1.0  0.69542  0.04472  0.35853  1.0000
  N   N93       1.0  0.70915  0.06227  0.35945  1.0000
  N   N94       1.0  0.73783  0.06629  0.36004  1.0000
  N   N95       1.0  0.68109  0.05919  0.36166  1.0000
  N   N96       1.0  0.71316  0.96703  0.35217  1.0000
  C   C169      1.0  0.52278  0.53978  0.35629  1.0000
  C   C170      1.0  0.52054  0.52110  0.43500  1.0000
  C   C171      1.0  0.51017  0.49500  0.43481  1.0000
  H   H121      1.0  0.50878  0.48268  0.49443  1.0000
  H   H122      1.0  0.52644  0.52648  0.49458  1.0000
  C   C172      1.0  0.53403  0.56435  0.36252  1.0000
  H   H123      1.0  0.54560  0.55881  0.37085  1.0000
  C   C173      1.0  0.02325  0.98596  0.36116  1.0000
  C   C174      1.0  0.02114  0.00421  0.44235  1.0000
  C   C175      1.0  0.01047  0.03095  0.44219  1.0000
  C   C176      1.0  0.02986  0.99531  0.52837  1.0000
  H   H124      1.0  0.03752  0.97469  0.52204  1.0000
  H   H125      1.0  0.02117  0.99020  0.58238  1.0000
  H   H126      1.0  0.03763  0.01455  0.55021  1.0000
  C   C177      1.0  0.00799  0.04920  0.52864  1.0000
  H   H127      1.0  0.99951  0.06855  0.52272  1.0000
  H   H128      1.0  0.01946  0.05913  0.55126  1.0000
  H   H129      1.0  0.00329  0.03386  0.58197  1.0000
  C   C178      1.0  0.03433  0.96121  0.35357  1.0000
  H   H130      1.0  0.04598  0.96658  0.34859  1.0000
  C   C179      1.0  0.38698  0.32759  0.36300  1.0000
  C   C180      1.0  0.39564  0.33033  0.44725  1.0000
  C   C181      1.0  0.41230  0.34014  0.44708  1.0000
  C   C182      1.0  0.38761  0.32171  0.53561  1.0000
  H   H131      1.0  0.37495  0.31521  0.52886  1.0000
  H   H132      1.0  0.38798  0.34153  0.58255  1.0000
  H   H133      1.0  0.39384  0.30185  0.56669  1.0000
  C   C183      1.0  0.42151  0.34150  0.53524  1.0000
  H   H134      1.0  0.43388  0.34980  0.52829  1.0000
  H   H135      1.0  0.42207  0.31821  0.56590  1.0000
  H   H136      1.0  0.41555  0.35747  0.58261  1.0000
  C   C184      1.0  0.37249  0.31088  0.35476  1.0000
  H   H137      1.0  0.37351  0.28790  0.34490  1.0000
  C   C185      1.0  0.63800  0.69754  0.36430  1.0000
  C   C186      1.0  0.62930  0.69491  0.44843  1.0000
  C   C187      1.0  0.61263  0.68516  0.44814  1.0000
  C   C188      1.0  0.63731  0.70355  0.53681  1.0000
  H   H138      1.0  0.64998  0.70997  0.53012  1.0000
  H   H139      1.0  0.63689  0.68377  0.58389  1.0000
  H   H140      1.0  0.63110  0.72348  0.56766  1.0000
  C   C189      1.0  0.60339  0.68391  0.53621  1.0000
  H   H141      1.0  0.59101  0.67566  0.52917  1.0000
  H   H142      1.0  0.60285  0.70722  0.56672  1.0000
  H   H143      1.0  0.60931  0.66795  0.58374  1.0000
  C   C190      1.0  0.65247  0.71429  0.35597  1.0000
  H   H144      1.0  0.65144  0.73728  0.34636  1.0000
  C   C191      1.0  0.10472  0.84734  0.35381  1.0000
  C   C192      1.0  0.11375  0.84545  0.43549  1.0000
  C   C193      1.0  0.13000  0.83584  0.43536  1.0000
  H   H145      1.0  0.13563  0.83282  0.49714  1.0000
  H   H146      1.0  0.10825  0.84892  0.49744  1.0000
  C   C194      1.0  0.08787  0.84808  0.36286  1.0000
  H   H147      1.0  0.08266  0.82749  0.37499  1.0000
  C   C195      1.0  0.92024  0.17795  0.35275  1.0000
  C   C196      1.0  0.91118  0.17975  0.43437  1.0000
  C   C197      1.0  0.89493  0.18932  0.43411  1.0000
  H   H148      1.0  0.88930  0.19239  0.49590  1.0000
  H   H149      1.0  0.91669  0.17641  0.49636  1.0000
  C   C198      1.0  0.93708  0.17728  0.36193  1.0000
  H   H150      1.0  0.94227  0.19789  0.37422  1.0000
  C   C199      1.0  0.51716  0.28548  0.35027  1.0000
  C   C200      1.0  0.52480  0.27333  0.42890  1.0000
  C   C201      1.0  0.53138  0.24304  0.42979  1.0000
  H   H151      1.0  0.53637  0.23495  0.48942  1.0000
  H   H152      1.0  0.52547  0.28637  0.48766  1.0000
  C   C202      1.0  0.51138  0.31616  0.35582  1.0000
  H   H153      1.0  0.51939  0.33346  0.36105  1.0000
  C   C203      1.0  0.50792  0.74027  0.34834  1.0000
  C   C204      1.0  0.50028  0.75259  0.42675  1.0000
  C   C205      1.0  0.49374  0.78292  0.42717  1.0000
  H   H154      1.0  0.48876  0.79114  0.48669  1.0000
  H   H155      1.0  0.49959  0.73966  0.48570  1.0000
  C   C206      1.0  0.51364  0.70956  0.35433  1.0000
  H   H156      1.0  0.50560  0.69232  0.35942  1.0000
  C   C207      1.0  0.99415  0.72380  0.36491  1.0000
  C   C208      1.0  0.00171  0.73547  0.44597  1.0000
  C   C209      1.0  0.00839  0.76661  0.44705  1.0000
  C   C210      1.0  0.00263  0.71545  0.53012  1.0000
  H   H157      1.0  0.99708  0.69245  0.52303  1.0000
  H   H158      1.0  0.99647  0.72701  0.58669  1.0000
  H   H159      1.0  0.01524  0.71160  0.54869  1.0000
  C   C211      1.0  0.01586  0.77906  0.53308  1.0000
  H   H160      1.0  0.02024  0.80302  0.52814  1.0000
  H   H161      1.0  0.02614  0.76451  0.55254  1.0000
  H   H162      1.0  0.00700  0.77884  0.58821  1.0000
  C   C212      1.0  0.98925  0.69277  0.35488  1.0000
  H   H163      1.0  0.99798  0.67690  0.34849  1.0000
  C   C213      1.0  0.03063  0.30202  0.36795  1.0000
  C   C214      1.0  0.02305  0.29018  0.44874  1.0000
  C   C215      1.0  0.01640  0.25901  0.44928  1.0000
  C   C216      1.0  0.02209  0.31003  0.53321  1.0000
  H   H164      1.0  0.02763  0.33306  0.52652  1.0000
  H   H165      1.0  0.02825  0.29838  0.58965  1.0000
  H   H166      1.0  0.00948  0.31383  0.55171  1.0000
  C   C217      1.0  0.00892  0.24638  0.53504  1.0000
  H   H167      1.0  0.00455  0.22242  0.52965  1.0000
  H   H168      1.0  0.99862  0.26086  0.55465  1.0000
  H   H169      1.0  0.01776  0.24651  0.59026  1.0000
  C   C218      1.0  0.03550  0.33309  0.35839  1.0000
  H   H170      1.0  0.02676  0.34896  0.35257  1.0000
  C   C219      1.0  0.31979  0.11183  0.34797  1.0000
  C   C220      1.0  0.31456  0.12835  0.42609  1.0000
  C   C221      1.0  0.31330  0.16120  0.42617  1.0000
  H   H171      1.0  0.30940  0.17193  0.48486  1.0000
  H   H172      1.0  0.31182  0.11653  0.48509  1.0000
  C   C222      1.0  0.32275  0.07963  0.35722  1.0000
  H   H173      1.0  0.33425  0.07333  0.36441  1.0000
  C   C223      1.0  0.70518  0.91328  0.34839  1.0000
  C   C224      1.0  0.71043  0.89678  0.42649  1.0000
  C   C225      1.0  0.71169  0.86392  0.42659  1.0000
  H   H174      1.0  0.71559  0.85321  0.48528  1.0000
  H   H175      1.0  0.71317  0.90860  0.48548  1.0000
  C   C226      1.0  0.70221  0.94548  0.35765  1.0000
  H   H176      1.0  0.69071  0.95178  0.36480  1.0000
  C   C227      1.0  0.20749  0.67931  0.36777  1.0000
  C   C228      1.0  0.20227  0.66317  0.44831  1.0000
  C   C229      1.0  0.20088  0.62947  0.44827  1.0000
  C   C230      1.0  0.19833  0.68114  0.53351  1.0000
  H   H177      1.0  0.20006  0.70632  0.52801  1.0000
  H   H178      1.0  0.20603  0.67331  0.58948  1.0000
  H   H179      1.0  0.18572  0.67734  0.55211  1.0000
  C   C231      1.0  0.19508  0.61287  0.53247  1.0000
  H   H180      1.0  0.19463  0.58745  0.52636  1.0000
  H   H181      1.0  0.18289  0.62067  0.54942  1.0000
  H   H182      1.0  0.20309  0.61796  0.58970  1.0000
  C   C232      1.0  0.20997  0.71185  0.36183  1.0000
  H   H183      1.0  0.22126  0.71947  0.35533  1.0000
  C   C233      1.0  0.81746  0.34581  0.36725  1.0000
  C   C234      1.0  0.82267  0.36194  0.44783  1.0000
  C   C235      1.0  0.82405  0.39564  0.44783  1.0000
  C   C236      1.0  0.82662  0.34396  0.53299  1.0000
  H   H184      1.0  0.82490  0.31877  0.52744  1.0000
  H   H185      1.0  0.81891  0.35176  0.58897  1.0000
  H   H186      1.0  0.83923  0.34777  0.55161  1.0000
  C   C237      1.0  0.82986  0.41223  0.53205  1.0000
  H   H187      1.0  0.83030  0.43765  0.52598  1.0000
  H   H188      1.0  0.84205  0.40444  0.54898  1.0000
  H   H189      1.0  0.82185  0.40712  0.58929  1.0000
  C   C238      1.0  0.81497  0.31328  0.36129  1.0000
  H   H190      1.0  0.80367  0.30567  0.35493  1.0000
  C   C239      1.0  0.25486  0.41372  0.35170  1.0000
  C   C240      1.0  0.26436  0.41084  0.43133  1.0000
  C   C241      1.0  0.27863  0.39297  0.43211  1.0000
  H   H191      1.0  0.28513  0.39203  0.49171  1.0000
  H   H192      1.0  0.26086  0.42159  0.49076  1.0000
  C   C242      1.0  0.23983  0.42875  0.35955  1.0000
  H   H193      1.0  0.23019  0.41494  0.36371  1.0000
  C   C243      1.0  0.77005  0.61136  0.35182  1.0000
  C   C244      1.0  0.76057  0.61425  0.43151  1.0000
  C   C245      1.0  0.74630  0.63214  0.43239  1.0000
  H   H194      1.0  0.73982  0.63310  0.49204  1.0000
  H   H195      1.0  0.76408  0.60350  0.49092  1.0000
  C   C246      1.0  0.78508  0.59632  0.35958  1.0000
  H   H196      1.0  0.79472  0.61013  0.36365  1.0000
  C   C247      1.0  0.24092  0.87653  0.36262  1.0000
  C   C248      1.0  0.25027  0.87918  0.44462  1.0000
  C   C249      1.0  0.26495  0.89741  0.44535  1.0000
  C   C250      1.0  0.24476  0.86331  0.53058  1.0000
  H   H197      1.0  0.23349  0.85041  0.52404  1.0000
  H   H198      1.0  0.24287  0.88067  0.58419  1.0000
  H   H199      1.0  0.25389  0.84657  0.55315  1.0000
  C   C251      1.0  0.27476  0.89961  0.53134  1.0000
  H   H200      1.0  0.28547  0.91427  0.52576  1.0000
  H   H201      1.0  0.27885  0.87632  0.55158  1.0000
  H   H202      1.0  0.26746  0.90956  0.58618  1.0000
  C   C252      1.0  0.22577  0.86172  0.35667  1.0000
  H   H203      1.0  0.21618  0.87554  0.34938  1.0000
  C   C253      1.0  0.78403  0.14863  0.36226  1.0000
  C   C254      1.0  0.77473  0.14590  0.44438  1.0000
  C   C255      1.0  0.76005  0.12763  0.44524  1.0000
  C   C256      1.0  0.78025  0.16175  0.53032  1.0000
  H   H204      1.0  0.79150  0.17469  0.52367  1.0000
  H   H205      1.0  0.78219  0.14437  0.58383  1.0000
  H   H206      1.0  0.77112  0.17844  0.55310  1.0000
  C   C257      1.0  0.75028  0.12538  0.53134  1.0000
  H   H207      1.0  0.73957  0.11068  0.52583  1.0000
  H   H208      1.0  0.74618  0.14865  0.55168  1.0000
  H   H209      1.0  0.75760  0.11544  0.58606  1.0000
  C   C258      1.0  0.79918  0.16342  0.35621  1.0000
  H   H210      1.0  0.80877  0.14960  0.34891  1.0000
  C   C259      1.0  0.15259  0.46016  0.35381  1.0000
  C   C260      1.0  0.14517  0.45064  0.43606  1.0000
  C   C261      1.0  0.12917  0.43976  0.43737  1.0000
  H   H211      1.0  0.12397  0.43539  0.49968  1.0000
  H   H212      1.0  0.15097  0.45361  0.49737  1.0000
  C   C262      1.0  0.16672  0.47774  0.36152  1.0000
  H   H213      1.0  0.16540  0.50077  0.36900  1.0000
  C   C263      1.0  0.87229  0.56508  0.35253  1.0000
  C   C264      1.0  0.87966  0.57485  0.43467  1.0000
  C   C265      1.0  0.89563  0.58587  0.43588  1.0000
  H   H214      1.0  0.90082  0.59033  0.49819  1.0000
  H   H215      1.0  0.87388  0.57184  0.49603  1.0000
  C   C266      1.0  0.85818  0.54743  0.36042  1.0000
  H   H216      1.0  0.85953  0.52439  0.36745  1.0000
  C   C267      1.0  0.40501  0.93797  0.35992  1.0000
  C   C268      1.0  0.39759  0.94620  0.44487  1.0000
  C   C269      1.0  0.38118  0.95736  0.44628  1.0000
  C   C270      1.0  0.40705  0.94430  0.53205  1.0000
  H   H217      1.0  0.41916  0.93479  0.52394  1.0000
  H   H218      1.0  0.40085  0.92909  0.58059  1.0000
  H   H219      1.0  0.40829  0.96762  0.56188  1.0000
  C   C271      1.0  0.37363  0.96709  0.53498  1.0000
  H   H220      1.0  0.36111  0.97465  0.52905  1.0000
  H   H221      1.0  0.38039  0.98655  0.56458  1.0000
  H   H222      1.0  0.37369  0.94749  0.58275  1.0000
  C   C272      1.0  0.42169  0.93570  0.34838  1.0000
  H   H223      1.0  0.42767  0.95560  0.35910  1.0000
  C   C273      1.0  0.62007  0.08761  0.36173  1.0000
  C   C274      1.0  0.62746  0.07908  0.44648  1.0000
  C   C275      1.0  0.64384  0.06780  0.44770  1.0000
  C   C276      1.0  0.61799  0.08082  0.53365  1.0000
  H   H224      1.0  0.60590  0.09045  0.52568  1.0000
  H   H225      1.0  0.62421  0.09586  0.58258  1.0000
  H   H226      1.0  0.61669  0.05743  0.56294  1.0000
  C   C277      1.0  0.65138  0.05780  0.53621  1.0000
  H   H227      1.0  0.66388  0.05018  0.53014  1.0000
  H   H228      1.0  0.64457  0.03833  0.56541  1.0000
  H   H229      1.0  0.65135  0.07730  0.58437  1.0000
  C   C278      1.0  0.60340  0.08989  0.35007  1.0000
  H   H230      1.0  0.59735  0.07001  0.35959  1.0000
  C   C279      1.0  0.02065  0.48385  0.36656  1.0000
  C   C280      1.0  0.02000  0.50231  0.44801  1.0000
  C   C281      1.0  0.01193  0.53211  0.44657  1.0000
  C   C282      1.0  0.02752  0.49077  0.53499  1.0000
  H   H231      1.0  0.03303  0.46769  0.52998  1.0000
  H   H232      1.0  0.01838  0.48919  0.58845  1.0000
  H   H233      1.0  0.03698  0.50693  0.55684  1.0000
  C   C283      1.0  0.01130  0.55174  0.53156  1.0000
  H   H234      1.0  0.00488  0.57385  0.52370  1.0000
  H   H235      1.0  0.02352  0.55746  0.55373  1.0000
  H   H236      1.0  0.00517  0.53891  0.58593  1.0000
  C   C284      1.0  0.02789  0.45460  0.36138  1.0000
  H   H237      1.0  0.02083  0.43577  0.35855  1.0000
  C   C285      1.0  0.52052  0.04265  0.35230  1.0000
  C   C286      1.0  0.51983  0.02380  0.43128  1.0000
  C   C287      1.0  0.51189  0.99484  0.43001  1.0000
  H   H238      1.0  0.51166  0.98189  0.48904  1.0000
  H   H239      1.0  0.52503  0.03107  0.49127  1.0000
  C   C288      1.0  0.52795  0.07160  0.36070  1.0000
  H   H240      1.0  0.52099  0.09054  0.36460  1.0000
