data_image0
_chemical_formula_structural       C4HC6HOHOHC4HC6HOHOHC4HC6HOHOHC4HC6HOHOHCNCHNHCNCHNHCNCHNHCNCHNHCNCHNHCNCHNHCNCHNHCNCHNHC4HC6HOHOHC4HC6HOHOHC4HC6HOHOHC4HC6HOHOHC4HC6HOHOHC4HC6HOHOHC4HC6HOHOHC4HC6HOHOHCNCHNHCNCHNHCNCHNHCNCHNHCNCHNHCNCHNHCNCHNHCNCHNHCNCHNHCNCHNHCNCNCNCNCNCNCNCNCNCNCNCNCNCNCNCNCNCNCNCNCNCNCNCNCNCNCNCNCNCNCNCNCNCNCNCNCNCNCNCNCNCNCNCNCNCNCNCNCNCNCNCNCNCNCNCNCNCNCNCNCNCHNHCNCHNHCNCHNHCNCHNHC4HC6HOHOHC4HC6HOHOHC4HC6HOHOHC4HC6HOHOHC4HC6HOHOHC4HC6HOHOHC4HC6HOHOHC4HC6HOHOHCNCHNHCNCHNHCNCHNHCNCHNHCNCHNHCNCHNHCNCHNHCNCHNHC4HC6HOHOHC4HC6HOHOHC4HC6HOHOHC4HC6HOHOHC4HC6HOHOHC4HC6HOHOHC4HC6HOHOHC4HC6HOHOHC4HC6HOHOHC4HC6HOHOH
_chemical_formula_sum              "C420 H180 O60 N120"
_cell_length_a       65.3912
_cell_length_b       65.3912
_cell_length_c       14.9495
_cell_angle_alpha    90
_cell_angle_beta     90
_cell_angle_gamma    90

_space_group_name_H-M_alt    "P 1"
_space_group_IT_number       1

loop_
  _space_group_symop_operation_xyz
  'x, y, z'

loop_
  _atom_site_type_symbol
  _atom_site_label
  _atom_site_symmetry_multiplicity
  _atom_site_fract_x
  _atom_site_fract_y
  _atom_site_fract_z
  _atom_site_occupancy
  C   C1        1.0  0.28778  0.03390  0.32334  1.0000
  C   C2        1.0  0.32990  0.04328  0.32219  1.0000
  C   C3        1.0  0.32361  0.02308  0.30083  1.0000
  C   C4        1.0  0.30243  0.01870  0.30194  1.0000
  H   H1        1.0  0.29762  0.00421  0.28705  1.0000
  C   C5        1.0  0.35082  0.04839  0.32410  1.0000
  C   C6        1.0  0.39248  0.05932  0.33327  1.0000
  C   C7        1.0  0.38661  0.03912  0.31053  1.0000
  C   C8        1.0  0.36582  0.03333  0.30507  1.0000
  C   C9        1.0  0.35958  0.01326  0.28202  1.0000
  C   C10       1.0  0.33858  0.00817  0.27980  1.0000
  H   H2        1.0  0.39763  0.02843  0.29722  1.0000
  O   O1        1.0  0.37358  0.99838  0.26437  1.0000
  H   H3        1.0  0.37625  0.99905  0.19970  1.0000
  O   O2        1.0  0.33315  0.98857  0.26010  1.0000
  H   H4        1.0  0.33110  0.98812  0.19495  1.0000
  C   C11       1.0  0.71605  0.97067  0.31576  1.0000
  C   C12       1.0  0.67397  0.96126  0.31501  1.0000
  C   C13       1.0  0.68021  0.98141  0.29273  1.0000
  C   C14       1.0  0.70139  0.98581  0.29364  1.0000
  H   H5        1.0  0.70619  0.00028  0.27829  1.0000
  C   C15       1.0  0.65306  0.95613  0.31766  1.0000
  C   C16       1.0  0.61146  0.94515  0.32946  1.0000
  C   C17       1.0  0.61722  0.96529  0.30511  1.0000
  C   C18       1.0  0.63799  0.97111  0.29838  1.0000
  C   C19       1.0  0.64419  0.99111  0.27414  1.0000
  C   C20       1.0  0.66519  0.99623  0.27124  1.0000
  H   H6        1.0  0.60613  0.97591  0.29196  1.0000
  O   O3        1.0  0.63014  0.00594  0.25618  1.0000
  H   H7        1.0  0.62738  0.00510  0.19162  1.0000
  O   O4        1.0  0.67057  0.01579  0.25061  1.0000
  H   H8        1.0  0.67260  0.01609  0.18544  1.0000
  C   C21       1.0  0.97000  0.28820  0.32383  1.0000
  C   C22       1.0  0.96056  0.33031  0.32237  1.0000
  C   C23       1.0  0.98076  0.32404  0.30089  1.0000
  C   C24       1.0  0.98516  0.30286  0.30217  1.0000
  H   H9        1.0  0.99966  0.29807  0.28723  1.0000
  C   C25       1.0  0.95542  0.35122  0.32414  1.0000
  C   C26       1.0  0.94444  0.39287  0.33313  1.0000
  C   C27       1.0  0.96464  0.38701  0.31023  1.0000
  C   C28       1.0  0.97045  0.36623  0.30485  1.0000
  C   C29       1.0  0.99052  0.36001  0.28168  1.0000
  C   C30       1.0  0.99563  0.33902  0.27960  1.0000
  H   H10       1.0  0.97531  0.39804  0.29677  1.0000
  O   O5        1.0  0.00538  0.37402  0.26380  1.0000
  H   H11       1.0  0.00467  0.37667  0.19911  1.0000
  O   O6        1.0  0.01523  0.33360  0.25978  1.0000
  H   H12       1.0  0.01566  0.33153  0.19465  1.0000
  C   C31       1.0  0.03324  0.71644  0.31513  1.0000
  C   C32       1.0  0.04260  0.67434  0.31465  1.0000
  C   C33       1.0  0.02244  0.68059  0.29249  1.0000
  C   C34       1.0  0.01808  0.70178  0.29327  1.0000
  H   H13       1.0  0.00360  0.70659  0.27804  1.0000
  C   C35       1.0  0.04770  0.65342  0.31744  1.0000
  C   C36       1.0  0.05864  0.61182  0.32946  1.0000
  C   C37       1.0  0.03850  0.61759  0.30525  1.0000
  C   C38       1.0  0.03270  0.63836  0.29842  1.0000
  C   C39       1.0  0.01269  0.64458  0.27431  1.0000
  C   C40       1.0  0.00760  0.66558  0.27130  1.0000
  H   H14       1.0  0.02785  0.60650  0.29228  1.0000
  O   O7        1.0  0.99784  0.63054  0.25660  1.0000
  H   H15       1.0  0.99864  0.62775  0.19205  1.0000
  O   O8        1.0  0.98803  0.67098  0.25078  1.0000
  H   H16       1.0  0.98771  0.67297  0.18559  1.0000
  C   C41       1.0  0.20826  0.55369  0.34217  1.0000
  N   N1        1.0  0.18799  0.55769  0.34485  1.0000
  C   C42       1.0  0.12703  0.57391  0.34245  1.0000
  H   H17       1.0  0.21780  0.56531  0.32360  1.0000
  N   N2        1.0  0.14685  0.56796  0.34520  1.0000
  H   H18       1.0  0.12393  0.58861  0.32357  1.0000
  C   C43       1.0  0.79526  0.45136  0.33255  1.0000
  N   N3        1.0  0.81557  0.44751  0.33472  1.0000
  C   C44       1.0  0.87654  0.43156  0.33301  1.0000
  H   H19       1.0  0.78578  0.43967  0.31410  1.0000
  N   N4        1.0  0.85671  0.43746  0.33510  1.0000
  H   H20       1.0  0.87967  0.41684  0.31457  1.0000
  C   C45       1.0  0.55318  0.79554  0.34178  1.0000
  N   N5        1.0  0.55721  0.81581  0.34453  1.0000
  C   C46       1.0  0.57351  0.87675  0.34223  1.0000
  H   H21       1.0  0.56477  0.78599  0.32299  1.0000
  N   N6        1.0  0.56754  0.85694  0.34499  1.0000
  H   H22       1.0  0.58821  0.87983  0.32326  1.0000
  C   C47       1.0  0.45081  0.20852  0.33317  1.0000
  N   N7        1.0  0.44699  0.18820  0.33522  1.0000
  C   C48       1.0  0.43112  0.12722  0.33329  1.0000
  H   H23       1.0  0.43911  0.21799  0.31495  1.0000
  N   N8        1.0  0.43700  0.14705  0.33542  1.0000
  H   H24       1.0  0.41640  0.12407  0.31500  1.0000
  C   C49       1.0  0.17076  0.14263  0.30891  1.0000
  N   N9        1.0  0.17845  0.12337  0.31556  1.0000
  C   C50       1.0  0.20279  0.06385  0.31291  1.0000
  H   H25       1.0  0.15904  0.14522  0.26511  1.0000
  N   N10       1.0  0.19484  0.08308  0.31749  1.0000
  H   H26       1.0  0.19717  0.05398  0.26594  1.0000
  C   C51       1.0  0.83269  0.86174  0.30618  1.0000
  N   N11       1.0  0.82506  0.88103  0.31245  1.0000
  C   C52       1.0  0.80099  0.94064  0.30849  1.0000
  H   H27       1.0  0.84444  0.85907  0.26266  1.0000
  N   N12       1.0  0.80885  0.92138  0.31355  1.0000
  H   H28       1.0  0.80670  0.95046  0.26154  1.0000
  C   C53       1.0  0.86125  0.17139  0.30864  1.0000
  N   N13       1.0  0.88052  0.17905  0.31550  1.0000
  C   C54       1.0  0.94007  0.20326  0.31347  1.0000
  H   H29       1.0  0.85865  0.15973  0.26456  1.0000
  N   N14       1.0  0.92083  0.19534  0.31790  1.0000
  H   H30       1.0  0.94996  0.19765  0.26653  1.0000
  C   C55       1.0  0.14214  0.83334  0.30699  1.0000
  N   N15       1.0  0.12286  0.82566  0.31299  1.0000
  C   C56       1.0  0.06326  0.80147  0.30849  1.0000
  H   H31       1.0  0.14477  0.84519  0.26390  1.0000
  N   N16       1.0  0.08252  0.80935  0.31362  1.0000
  H   H32       1.0  0.05344  0.80722  0.26165  1.0000
  C   C57       1.0  0.32392  0.65897  0.33132  1.0000
  C   C58       1.0  0.30915  0.61839  0.31610  1.0000
  C   C59       1.0  0.29968  0.63425  0.26574  1.0000
  C   C60       1.0  0.30717  0.65442  0.27501  1.0000
  H   H33       1.0  0.30033  0.66604  0.24014  1.0000
  C   C61       1.0  0.30123  0.59824  0.31292  1.0000
  C   C62       1.0  0.28338  0.55877  0.31889  1.0000
  C   C63       1.0  0.27564  0.57405  0.26094  1.0000
  C   C64       1.0  0.28405  0.59391  0.25792  1.0000
  C   C65       1.0  0.27513  0.60958  0.20549  1.0000
  C   C66       1.0  0.28285  0.62969  0.20976  1.0000
  H   H34       1.0  0.26277  0.57100  0.22422  1.0000
  O   O9        1.0  0.25890  0.60573  0.15078  1.0000
  H   H35       1.0  0.24655  0.60835  0.18655  1.0000
  O   O10       1.0  0.27387  0.64441  0.15851  1.0000
  H   H36       1.0  0.26282  0.65028  0.19502  1.0000
  C   C67       1.0  0.67941  0.34549  0.32770  1.0000
  C   C68       1.0  0.69423  0.38603  0.31186  1.0000
  C   C69       1.0  0.70370  0.37011  0.26190  1.0000
  C   C70       1.0  0.69619  0.34996  0.27145  1.0000
  H   H37       1.0  0.70304  0.33830  0.23688  1.0000
  C   C71       1.0  0.70217  0.40618  0.30838  1.0000
  C   C72       1.0  0.72007  0.44563  0.31380  1.0000
  C   C73       1.0  0.72784  0.43027  0.25625  1.0000
  C   C74       1.0  0.71939  0.41042  0.25345  1.0000
  C   C75       1.0  0.72832  0.39469  0.20141  1.0000
  C   C76       1.0  0.72057  0.37460  0.20599  1.0000
  H   H38       1.0  0.74069  0.43328  0.21935  1.0000
  O   O11       1.0  0.74458  0.39846  0.14681  1.0000
  H   H39       1.0  0.75691  0.39587  0.18278  1.0000
  O   O12       1.0  0.72956  0.35982  0.15512  1.0000
  H   H40       1.0  0.74058  0.35397  0.19186  1.0000
  C   C77       1.0  0.65834  0.67996  0.32966  1.0000
  C   C78       1.0  0.61776  0.69470  0.31460  1.0000
  C   C79       1.0  0.63360  0.70416  0.26412  1.0000
  C   C80       1.0  0.65378  0.69669  0.27331  1.0000
  H   H41       1.0  0.66538  0.70354  0.23840  1.0000
  C   C81       1.0  0.59760  0.70259  0.31154  1.0000
  C   C82       1.0  0.55815  0.72045  0.31796  1.0000
  C   C83       1.0  0.57339  0.72819  0.25979  1.0000
  C   C84       1.0  0.59324  0.71976  0.25652  1.0000
  C   C85       1.0  0.60889  0.72869  0.20396  1.0000
  C   C86       1.0  0.62900  0.72099  0.20811  1.0000
  H   H42       1.0  0.57031  0.74105  0.22308  1.0000
  O   O13       1.0  0.60501  0.74491  0.14927  1.0000
  H   H43       1.0  0.60764  0.75727  0.18500  1.0000
  O   O14       1.0  0.64370  0.72997  0.15676  1.0000
  H   H44       1.0  0.64957  0.74103  0.19321  1.0000
  C   C87       1.0  0.34486  0.32444  0.32931  1.0000
  C   C88       1.0  0.38539  0.30958  0.31334  1.0000
  C   C89       1.0  0.36945  0.30011  0.26351  1.0000
  C   C90       1.0  0.34931  0.30764  0.27313  1.0000
  H   H45       1.0  0.33764  0.30080  0.23864  1.0000
  C   C91       1.0  0.40553  0.30163  0.30974  1.0000
  C   C92       1.0  0.44500  0.28373  0.31475  1.0000
  C   C93       1.0  0.42960  0.27596  0.25745  1.0000
  C   C94       1.0  0.40975  0.28441  0.25484  1.0000
  C   C95       1.0  0.39399  0.27546  0.20299  1.0000
  C   C96       1.0  0.37391  0.28322  0.20767  1.0000
  H   H46       1.0  0.43259  0.26309  0.22064  1.0000
  O   O15       1.0  0.39774  0.25918  0.14843  1.0000
  H   H47       1.0  0.39515  0.24686  0.18447  1.0000
  O   O16       1.0  0.35910  0.27423  0.15696  1.0000
  H   H48       1.0  0.35326  0.26322  0.19381  1.0000
  C   C97       1.0  0.20833  0.87887  0.32254  1.0000
  C   C98       1.0  0.21813  0.92114  0.31109  1.0000
  C   C99       1.0  0.23322  0.90631  0.28895  1.0000
  C   C100      1.0  0.22805  0.88536  0.29570  1.0000
  H   H49       1.0  0.23886  0.87460  0.28027  1.0000
  C   C101      1.0  0.22296  0.94226  0.30841  1.0000
  C   C102      1.0  0.23292  0.98464  0.31071  1.0000
  C   C103      1.0  0.24742  0.96969  0.28389  1.0000
  C   C104      1.0  0.24288  0.94857  0.28269  1.0000
  C   C105      1.0  0.25771  0.93379  0.25834  1.0000
  C   C106      1.0  0.25292  0.91277  0.26169  1.0000
  H   H50       1.0  0.26183  0.97418  0.26606  1.0000
  O   O17       1.0  0.27708  0.93935  0.23517  1.0000
  H   H51       1.0  0.27690  0.94148  0.17005  1.0000
  O   O18       1.0  0.26784  0.89898  0.24140  1.0000
  H   H52       1.0  0.26660  0.89628  0.17692  1.0000
  C   C107      1.0  0.79517  0.12574  0.32113  1.0000
  C   C108      1.0  0.78553  0.08347  0.30798  1.0000
  C   C109      1.0  0.77048  0.09829  0.28508  1.0000
  C   C110      1.0  0.77557  0.11925  0.29273  1.0000
  H   H53       1.0  0.76480  0.13000  0.27676  1.0000
  C   C111      1.0  0.78077  0.06235  0.30448  1.0000
  C   C112      1.0  0.77090  0.01995  0.30530  1.0000
  C   C113      1.0  0.75648  0.03489  0.27764  1.0000
  C   C114      1.0  0.76096  0.05602  0.27715  1.0000
  C   C115      1.0  0.74620  0.07079  0.25200  1.0000
  C   C116      1.0  0.75092  0.09181  0.25620  1.0000
  H   H54       1.0  0.74215  0.03037  0.25862  1.0000
  O   O19       1.0  0.72693  0.06520  0.22733  1.0000
  H   H55       1.0  0.72737  0.06313  0.16220  1.0000
  O   O20       1.0  0.73604  0.10558  0.23515  1.0000
  H   H56       1.0  0.73752  0.10838  0.17083  1.0000
  C   C117      1.0  0.12505  0.20878  0.32326  1.0000
  C   C118      1.0  0.08278  0.21856  0.31167  1.0000
  C   C119      1.0  0.09760  0.23363  0.28919  1.0000
  C   C120      1.0  0.11856  0.22847  0.29601  1.0000
  H   H57       1.0  0.12931  0.23927  0.28037  1.0000
  C   C121      1.0  0.06166  0.22338  0.30899  1.0000
  C   C122      1.0  0.01929  0.23335  0.31141  1.0000
  C   C123      1.0  0.03422  0.24782  0.28422  1.0000
  C   C124      1.0  0.05534  0.24328  0.28293  1.0000
  C   C125      1.0  0.07012  0.25808  0.25820  1.0000
  C   C126      1.0  0.09113  0.25329  0.26156  1.0000
  H   H58       1.0  0.02972  0.26222  0.26612  1.0000
  O   O21       1.0  0.06455  0.27743  0.23473  1.0000
  H   H59       1.0  0.06240  0.27719  0.16962  1.0000
  O   O22       1.0  0.10491  0.26820  0.24092  1.0000
  H   H60       1.0  0.10762  0.26688  0.17646  1.0000
  C   C127      1.0  0.87819  0.79562  0.32038  1.0000
  C   C128      1.0  0.92046  0.78593  0.30746  1.0000
  C   C129      1.0  0.90563  0.77088  0.28485  1.0000
  C   C130      1.0  0.88468  0.77599  0.29239  1.0000
  H   H61       1.0  0.87392  0.76521  0.27659  1.0000
  C   C131      1.0  0.94158  0.78117  0.30402  1.0000
  C   C132      1.0  0.98398  0.77130  0.30484  1.0000
  C   C133      1.0  0.96903  0.75685  0.27747  1.0000
  C   C134      1.0  0.94790  0.76134  0.27700  1.0000
  C   C135      1.0  0.93312  0.74656  0.25216  1.0000
  C   C136      1.0  0.91210  0.75128  0.25634  1.0000
  H   H62       1.0  0.97354  0.74250  0.25868  1.0000
  O   O23       1.0  0.93870  0.72726  0.22779  1.0000
  H   H63       1.0  0.94076  0.72764  0.16264  1.0000
  O   O24       1.0  0.89832  0.73639  0.23553  1.0000
  H   H64       1.0  0.89554  0.73781  0.17118  1.0000
  C   C137      1.0  0.30951  0.39458  0.34845  1.0000
  N   N17       1.0  0.30426  0.41466  0.35309  1.0000
  C   C138      1.0  0.29029  0.47738  0.35236  1.0000
  H   H65       1.0  0.32384  0.39103  0.32609  1.0000
  N   N18       1.0  0.29445  0.45698  0.35499  1.0000
  H   H66       1.0  0.30136  0.48706  0.32924  1.0000
  C   C139      1.0  0.69370  0.60989  0.34621  1.0000
  N   N19       1.0  0.69892  0.58980  0.35049  1.0000
  C   C140      1.0  0.71286  0.52709  0.34806  1.0000
  H   H67       1.0  0.67942  0.61349  0.32332  1.0000
  N   N20       1.0  0.70870  0.54748  0.35134  1.0000
  H   H68       1.0  0.70186  0.51746  0.32396  1.0000
  C   C141      1.0  0.39401  0.69434  0.34948  1.0000
  N   N21       1.0  0.41409  0.69960  0.35387  1.0000
  C   C142      1.0  0.47680  0.71357  0.35241  1.0000
  H   H69       1.0  0.39045  0.68002  0.32712  1.0000
  N   N22       1.0  0.45640  0.70941  0.35529  1.0000
  H   H70       1.0  0.48647  0.70249  0.32930  1.0000
  C   C143      1.0  0.60929  0.31015  0.34533  1.0000
  N   N23       1.0  0.58921  0.30493  0.34979  1.0000
  C   C144      1.0  0.52649  0.29097  0.34805  1.0000
  H   H71       1.0  0.61288  0.32442  0.32237  1.0000
  N   N24       1.0  0.54688  0.29514  0.35108  1.0000
  H   H72       1.0  0.51684  0.30196  0.32392  1.0000
  C   C145      1.0  0.21714  0.22708  0.33649  1.0000
  N   N25       1.0  0.23109  0.24245  0.33825  1.0000
  C   C146      1.0  0.27677  0.28695  0.33809  1.0000
  H   H73       1.0  0.22235  0.21257  0.32537  1.0000
  N   N26       1.0  0.26144  0.27294  0.33873  1.0000
  H   H74       1.0  0.29129  0.28177  0.32706  1.0000
  C   C147      1.0  0.78611  0.77733  0.33520  1.0000
  N   N27       1.0  0.77215  0.76197  0.33714  1.0000
  C   C148      1.0  0.72645  0.71749  0.33746  1.0000
  H   H75       1.0  0.78089  0.79184  0.32415  1.0000
  N   N28       1.0  0.74178  0.73148  0.33795  1.0000
  H   H76       1.0  0.71192  0.72267  0.32663  1.0000
  C   C149      1.0  0.77679  0.21780  0.33572  1.0000
  N   N29       1.0  0.76141  0.23174  0.33738  1.0000
  C   C150      1.0  0.71691  0.27741  0.33692  1.0000
  H   H77       1.0  0.79130  0.22302  0.32475  1.0000
  N   N30       1.0  0.73091  0.26209  0.33764  1.0000
  H   H78       1.0  0.72209  0.29194  0.32603  1.0000
  C   C151      1.0  0.22656  0.78676  0.33596  1.0000
  N   N31       1.0  0.24191  0.77280  0.33798  1.0000
  C   C152      1.0  0.28639  0.72708  0.33863  1.0000
  H   H79       1.0  0.21205  0.78155  0.32471  1.0000
  N   N32       1.0  0.27240  0.74242  0.33901  1.0000
  H   H80       1.0  0.28121  0.71256  0.32763  1.0000
  C   C153      1.0  0.54385  0.98457  0.34081  1.0000
  N   N33       1.0  0.52853  0.99850  0.34324  1.0000
  C   C154      1.0  0.48437  0.04383  0.34104  1.0000
  H   H81       1.0  0.55820  0.98960  0.32514  1.0000
  N   N34       1.0  0.49836  0.02858  0.34354  1.0000
  H   H82       1.0  0.48933  0.05822  0.32546  1.0000
  C   C155      1.0  0.01921  0.54421  0.34091  1.0000
  N   N35       1.0  0.00527  0.52890  0.34334  1.0000
  C   C156      1.0  0.95993  0.48475  0.34107  1.0000
  H   H83       1.0  0.01419  0.55857  0.32526  1.0000
  N   N36       1.0  0.97519  0.49874  0.34361  1.0000
  H   H84       1.0  0.94554  0.48971  0.32555  1.0000
  C   C157      1.0  0.23219  0.04105  0.34707  1.0000
  N   N37       1.0  0.22531  0.02149  0.33489  1.0000
  C   C158      1.0  0.23865  0.00572  0.31885  1.0000
  N   N38       1.0  0.25893  0.01040  0.31538  1.0000
  C   C159      1.0  0.26647  0.02953  0.32596  1.0000
  N   N39       1.0  0.25263  0.04441  0.34195  1.0000
  C   C160      1.0  0.77159  0.96354  0.34140  1.0000
  N   N40       1.0  0.77848  0.98310  0.32956  1.0000
  C   C161      1.0  0.76518  0.99886  0.31290  1.0000
  N   N41       1.0  0.74490  0.99418  0.30860  1.0000
  C   C162      1.0  0.73735  0.97506  0.31883  1.0000
  N   N42       1.0  0.75117  0.96018  0.33540  1.0000
  C   C163      1.0  0.96289  0.23262  0.34784  1.0000
  N   N43       1.0  0.98245  0.22575  0.33566  1.0000
  C   C164      1.0  0.99821  0.23909  0.31959  1.0000
  N   N44       1.0  0.99352  0.25937  0.31603  1.0000
  C   C165      1.0  0.97440  0.26690  0.32662  1.0000
  N   N45       1.0  0.95952  0.25306  0.34265  1.0000
  C   C166      1.0  0.04041  0.77198  0.34079  1.0000
  N   N46       1.0  0.02084  0.77887  0.32903  1.0000
  C   C167      1.0  0.00507  0.76557  0.31237  1.0000
  N   N47       1.0  0.00975  0.74529  0.30801  1.0000
  C   C168      1.0  0.02888  0.73774  0.31816  1.0000
  N   N48       1.0  0.04376  0.75155  0.33473  1.0000
  C   C169      1.0  0.27131  0.54114  0.33681  1.0000
  N   N49       1.0  0.27825  0.52163  0.35003  1.0000
  C   C170      1.0  0.26498  0.50587  0.36726  1.0000
  N   N50       1.0  0.24468  0.51049  0.37108  1.0000
  C   C171      1.0  0.23708  0.52956  0.35960  1.0000
  N   N51       1.0  0.25087  0.54443  0.34252  1.0000
  C   C172      1.0  0.73207  0.46335  0.33095  1.0000
  N   N52       1.0  0.72502  0.48278  0.34528  1.0000
  C   C173      1.0  0.73822  0.49862  0.36213  1.0000
  N   N53       1.0  0.75856  0.49417  0.36439  1.0000
  C   C174      1.0  0.76628  0.47520  0.35177  1.0000
  N   N54       1.0  0.75256  0.46024  0.33522  1.0000
  C   C175      1.0  0.54054  0.73252  0.33615  1.0000
  N   N55       1.0  0.52103  0.72560  0.34948  1.0000
  C   C176      1.0  0.50530  0.73889  0.36691  1.0000
  N   N56       1.0  0.50994  0.75918  0.37084  1.0000
  C   C177      1.0  0.52902  0.76675  0.35924  1.0000
  N   N57       1.0  0.54385  0.75296  0.34194  1.0000
  C   C178      1.0  0.46274  0.27173  0.33182  1.0000
  N   N58       1.0  0.48217  0.27880  0.34586  1.0000
  C   C179      1.0  0.49804  0.26561  0.36247  1.0000
  N   N59       1.0  0.49360  0.24526  0.36471  1.0000
  C   C180      1.0  0.47462  0.23753  0.35230  1.0000
  N   N60       1.0  0.45964  0.25123  0.33600  1.0000
  C   C181      1.0  0.17294  0.17945  0.34851  1.0000
  N   N61       1.0  0.15284  0.18422  0.33839  1.0000
  C   C182      1.0  0.14628  0.20394  0.33179  1.0000
  N   N62       1.0  0.16076  0.21895  0.33532  1.0000
  C   C183      1.0  0.18111  0.21506  0.34491  1.0000
  N   N63       1.0  0.18667  0.19507  0.35179  1.0000
  C   C184      1.0  0.83033  0.82495  0.34610  1.0000
  N   N64       1.0  0.85042  0.82016  0.33576  1.0000
  C   C185      1.0  0.85697  0.80044  0.32932  1.0000
  N   N65       1.0  0.84249  0.78543  0.33317  1.0000
  C   C186      1.0  0.82215  0.78934  0.34300  1.0000
  N   N66       1.0  0.81660  0.80933  0.34971  1.0000
  C   C187      1.0  0.82443  0.17362  0.34784  1.0000
  N   N67       1.0  0.81967  0.15352  0.33726  1.0000
  C   C188      1.0  0.79997  0.14696  0.33027  1.0000
  N   N68       1.0  0.78494  0.16143  0.33383  1.0000
  C   C189      1.0  0.78881  0.18177  0.34389  1.0000
  N   N69       1.0  0.80879  0.18734  0.35116  1.0000
  C   C190      1.0  0.17893  0.83099  0.34688  1.0000
  N   N70       1.0  0.18374  0.85109  0.33699  1.0000
  C   C191      1.0  0.20347  0.85764  0.33089  1.0000
  N   N71       1.0  0.21846  0.84315  0.33467  1.0000
  C   C192      1.0  0.21455  0.82280  0.34404  1.0000
  N   N72       1.0  0.19455  0.81725  0.35040  1.0000
  C   C193      1.0  0.33059  0.67947  0.34273  1.0000
  N   N73       1.0  0.35069  0.68418  0.35362  1.0000
  C   C194      1.0  0.35724  0.70381  0.36364  1.0000
  N   N74       1.0  0.34274  0.71882  0.36312  1.0000
  C   C195      1.0  0.32238  0.71504  0.35269  1.0000
  N   N75       1.0  0.31687  0.69512  0.34210  1.0000
  C   C196      1.0  0.67271  0.32500  0.33942  1.0000
  N   N76       1.0  0.65261  0.32032  0.35020  1.0000
  C   C197      1.0  0.64604  0.30070  0.36053  1.0000
  N   N77       1.0  0.66053  0.28568  0.36042  1.0000
  C   C198      1.0  0.68090  0.28943  0.35011  1.0000
  N   N78       1.0  0.68642  0.30934  0.33920  1.0000
  C   C199      1.0  0.67885  0.67329  0.34097  1.0000
  N   N79       1.0  0.68354  0.65319  0.35162  1.0000
  C   C200      1.0  0.70317  0.64662  0.36158  1.0000
  N   N80       1.0  0.71819  0.66112  0.36124  1.0000
  C   C201      1.0  0.71442  0.68148  0.35104  1.0000
  N   N81       1.0  0.69450  0.68701  0.34049  1.0000
  C   C202      1.0  0.32437  0.33115  0.34112  1.0000
  N   N82       1.0  0.31968  0.35124  0.35213  1.0000
  C   C203      1.0  0.30006  0.35780  0.36254  1.0000
  N   N83       1.0  0.28504  0.34330  0.36225  1.0000
  C   C204      1.0  0.28880  0.32294  0.35174  1.0000
  N   N84       1.0  0.30871  0.31743  0.34077  1.0000
  C   C205      1.0  0.43931  0.09054  0.35084  1.0000
  N   N85       1.0  0.45352  0.07540  0.35484  1.0000
  C   C206      1.0  0.44842  0.05529  0.35216  1.0000
  N   N86       1.0  0.42827  0.05057  0.34484  1.0000
  C   C207      1.0  0.41340  0.06501  0.34028  1.0000
  N   N87       1.0  0.41935  0.08491  0.34364  1.0000
  C   C208      1.0  0.56528  0.91350  0.35671  1.0000
  N   N88       1.0  0.55096  0.92847  0.36038  1.0000
  C   C209      1.0  0.55554  0.94866  0.35374  1.0000
  N   N89       1.0  0.57553  0.95369  0.34282  1.0000
  C   C210      1.0  0.59061  0.93940  0.33880  1.0000
  N   N90       1.0  0.58505  0.91942  0.34592  1.0000
  C   C211      1.0  0.91321  0.43969  0.35082  1.0000
  N   N91       1.0  0.92836  0.45390  0.35485  1.0000
  C   C212      1.0  0.94847  0.44880  0.35214  1.0000
  N   N92       1.0  0.95318  0.42866  0.34477  1.0000
  C   C213      1.0  0.93874  0.41378  0.34017  1.0000
  N   N93       1.0  0.91884  0.41973  0.34356  1.0000
  C   C214      1.0  0.09028  0.56563  0.35672  1.0000
  N   N94       1.0  0.07531  0.55131  0.36041  1.0000
  C   C215      1.0  0.05513  0.55589  0.35379  1.0000
  N   N95       1.0  0.05009  0.57589  0.34287  1.0000
  C   C216      1.0  0.06438  0.59096  0.33883  1.0000
  N   N96       1.0  0.08436  0.58539  0.34592  1.0000
  C   C217      1.0  0.29529  0.05369  0.34307  1.0000
  N   N97       1.0  0.31560  0.05760  0.34216  1.0000
  C   C218      1.0  0.37664  0.07353  0.34977  1.0000
  H   H85       1.0  0.28569  0.06545  0.35944  1.0000
  N   N98       1.0  0.35681  0.06768  0.34536  1.0000
  H   H86       1.0  0.37971  0.08833  0.36716  1.0000
  C   C219      1.0  0.70857  0.95090  0.33616  1.0000
  N   N99       1.0  0.68827  0.94699  0.33550  1.0000
  C   C220      1.0  0.62740  0.93103  0.34596  1.0000
  H   H87       1.0  0.71817  0.93920  0.35312  1.0000
  N   N100      1.0  0.64719  0.93691  0.34030  1.0000
  H   H88       1.0  0.62444  0.91629  0.36461  1.0000
  C   C221      1.0  0.95020  0.29570  0.34363  1.0000
  N   N101      1.0  0.94627  0.31600  0.34259  1.0000
  C   C222      1.0  0.93026  0.37702  0.34983  1.0000
  H   H89       1.0  0.93847  0.28610  0.36024  1.0000
  N   N102      1.0  0.93613  0.35719  0.34551  1.0000
  H   H90       1.0  0.91546  0.38009  0.36738  1.0000
  C   C223      1.0  0.05301  0.70894  0.33541  1.0000
  N   N103      1.0  0.05690  0.68863  0.33488  1.0000
  C   C224      1.0  0.07279  0.62775  0.34568  1.0000
  H   H91       1.0  0.06474  0.71853  0.35218  1.0000
  N   N104      1.0  0.06693  0.64754  0.33994  1.0000
  H   H92       1.0  0.08753  0.62478  0.36425  1.0000
  C   C225      1.0  0.21580  0.53398  0.36330  1.0000
  C   C226      1.0  0.17375  0.54355  0.36793  1.0000
  C   C227      1.0  0.18007  0.52344  0.39069  1.0000
  C   C228      1.0  0.20122  0.51896  0.38772  1.0000
  H   H93       1.0  0.20606  0.50454  0.40375  1.0000
  C   C229      1.0  0.15286  0.54878  0.36798  1.0000
  C   C230      1.0  0.11121  0.55991  0.36257  1.0000
  C   C231      1.0  0.11714  0.53982  0.38711  1.0000
  C   C232      1.0  0.13791  0.53392  0.39056  1.0000
  C   C233      1.0  0.14419  0.51395  0.41488  1.0000
  C   C234      1.0  0.16516  0.50874  0.41501  1.0000
  H   H94       1.0  0.10616  0.52926  0.40280  1.0000
  O   O25       1.0  0.13023  0.49924  0.43572  1.0000
  H   H95       1.0  0.12794  0.50029  0.50059  1.0000
  O   O26       1.0  0.17062  0.48922  0.43600  1.0000
  H   H96       1.0  0.17303  0.48907  0.50093  1.0000
  C   C235      1.0  0.78761  0.47098  0.35433  1.0000
  C   C236      1.0  0.82972  0.46174  0.35773  1.0000
  C   C237      1.0  0.82330  0.48178  0.38093  1.0000
  C   C238      1.0  0.80211  0.48610  0.37853  1.0000
  H   H97       1.0  0.79718  0.50046  0.39506  1.0000
  C   C239      1.0  0.85064  0.45663  0.35774  1.0000
  C   C240      1.0  0.89230  0.44556  0.35399  1.0000
  C   C241      1.0  0.88632  0.46566  0.37794  1.0000
  C   C242      1.0  0.86552  0.47152  0.38070  1.0000
  C   C243      1.0  0.85913  0.49145  0.40520  1.0000
  C   C244      1.0  0.83813  0.49654  0.40537  1.0000
  H   H98       1.0  0.89726  0.47620  0.39436  1.0000
  O   O27       1.0  0.87302  0.50619  0.42651  1.0000
  H   H99       1.0  0.87519  0.50516  0.49145  1.0000
  O   O28       1.0  0.83256  0.51601  0.42684  1.0000
  H   H100      1.0  0.83015  0.51606  0.49178  1.0000
  C   C245      1.0  0.53347  0.78803  0.36304  1.0000
  C   C246      1.0  0.54310  0.83006  0.36784  1.0000
  C   C247      1.0  0.52300  0.82376  0.39078  1.0000
  C   C248      1.0  0.51848  0.80262  0.38771  1.0000
  H   H101      1.0  0.50406  0.79780  0.40385  1.0000
  C   C249      1.0  0.54836  0.85094  0.36795  1.0000
  C   C250      1.0  0.55954  0.89258  0.36258  1.0000
  C   C251      1.0  0.53946  0.88667  0.38733  1.0000
  C   C252      1.0  0.53354  0.86590  0.39076  1.0000
  C   C253      1.0  0.51357  0.85965  0.41527  1.0000
  C   C254      1.0  0.50833  0.83868  0.41534  1.0000
  H   H102      1.0  0.52893  0.89765  0.40320  1.0000
  O   O29       1.0  0.49890  0.87363  0.43633  1.0000
  H   H103      1.0  0.49998  0.87590  0.50119  1.0000
  O   O30       1.0  0.48881  0.83325  0.43650  1.0000
  H   H104      1.0  0.48871  0.83081  0.50142  1.0000
  C   C255      1.0  0.47044  0.21619  0.35476  1.0000
  C   C256      1.0  0.46126  0.17406  0.35794  1.0000
  C   C257      1.0  0.48131  0.18051  0.38094  1.0000
  C   C258      1.0  0.48560  0.20170  0.37866  1.0000
  H   H105      1.0  0.49996  0.20664  0.39505  1.0000
  C   C259      1.0  0.45618  0.15313  0.35785  1.0000
  C   C260      1.0  0.44516  0.11146  0.35400  1.0000
  C   C261      1.0  0.46527  0.11746  0.37772  1.0000
  C   C262      1.0  0.47110  0.13826  0.38053  1.0000
  C   C263      1.0  0.49104  0.14467  0.40482  1.0000
  C   C264      1.0  0.49611  0.16568  0.40508  1.0000
  H   H106      1.0  0.47584  0.10653  0.39395  1.0000
  O   O31       1.0  0.50581  0.13080  0.42585  1.0000
  H   H107      1.0  0.50483  0.12861  0.49080  1.0000
  O   O32       1.0  0.51558  0.17127  0.42637  1.0000
  H   H108      1.0  0.51566  0.17365  0.49133  1.0000
  C   C265      1.0  0.17961  0.15889  0.35773  1.0000
  C   C266      1.0  0.19430  0.11823  0.37017  1.0000
  C   C267      1.0  0.20334  0.13376  0.42387  1.0000
  C   C268      1.0  0.19591  0.15399  0.41593  1.0000
  H   H109      1.0  0.20244  0.16537  0.45334  1.0000
  C   C269      1.0  0.20219  0.09805  0.37229  1.0000
  C   C270      1.0  0.22001  0.05859  0.36494  1.0000
  C   C271      1.0  0.22736  0.07354  0.42546  1.0000
  C   C272      1.0  0.21891  0.09338  0.42942  1.0000
  C   C273      1.0  0.22739  0.10872  0.48503  1.0000
  C   C274      1.0  0.21970  0.12884  0.48196  1.0000
  H   H110      1.0  0.23995  0.07025  0.46362  1.0000
  O   O33       1.0  0.24313  0.10451  0.54196  1.0000
  H   H111      1.0  0.25578  0.10736  0.50864  1.0000
  O   O34       1.0  0.22820  0.14322  0.53647  1.0000
  H   H112      1.0  0.23957  0.14932  0.50259  1.0000
  C   C275      1.0  0.82370  0.84554  0.35490  1.0000
  C   C276      1.0  0.80917  0.88626  0.36661  1.0000
  C   C277      1.0  0.79999  0.87079  0.42022  1.0000
  C   C278      1.0  0.80734  0.85053  0.41266  1.0000
  H   H113      1.0  0.80073  0.83920  0.45001  1.0000
  C   C279      1.0  0.80137  0.90647  0.36833  1.0000
  C   C280      1.0  0.78369  0.94598  0.35992  1.0000
  C   C281      1.0  0.77621  0.93111  0.42046  1.0000
  C   C282      1.0  0.78458  0.91125  0.42498  1.0000
  C   C283      1.0  0.77597  0.89597  0.48053  1.0000
  C   C284      1.0  0.78358  0.87581  0.47785  1.0000
  H   H114      1.0  0.76359  0.93448  0.45832  1.0000
  O   O35       1.0  0.76017  0.90027  0.53696  1.0000
  H   H115      1.0  0.74755  0.89746  0.50331  1.0000
  O   O36       1.0  0.77494  0.86150  0.53227  1.0000
  H   H116      1.0  0.76360  0.85543  0.49813  1.0000
  C   C285      1.0  0.84499  0.18027  0.35732  1.0000
  C   C286      1.0  0.88566  0.19486  0.37033  1.0000
  C   C287      1.0  0.87012  0.20390  0.42397  1.0000
  C   C288      1.0  0.84989  0.19652  0.41575  1.0000
  H   H117      1.0  0.83850  0.20305  0.45309  1.0000
  C   C289      1.0  0.90585  0.20269  0.37268  1.0000
  C   C290      1.0  0.94533  0.22046  0.36564  1.0000
  C   C291      1.0  0.93039  0.22780  0.42619  1.0000
  C   C292      1.0  0.91054  0.21938  0.43001  1.0000
  C   C293      1.0  0.89520  0.22786  0.48560  1.0000
  C   C294      1.0  0.87505  0.22021  0.48228  1.0000
  H   H118      1.0  0.93370  0.24036  0.46450  1.0000
  O   O37       1.0  0.89941  0.24356  0.54269  1.0000
  H   H119      1.0  0.89660  0.25624  0.50946  1.0000
  O   O38       1.0  0.86066  0.22872  0.53674  1.0000
  H   H120      1.0  0.85461  0.24012  0.50293  1.0000
  C   C295      1.0  0.15835  0.82431  0.35544  1.0000
  C   C296      1.0  0.11765  0.80966  0.36661  1.0000
  C   C297      1.0  0.13314  0.80043  0.41991  1.0000
  C   C298      1.0  0.15338  0.80785  0.41264  1.0000
  H   H121      1.0  0.16473  0.80119  0.44980  1.0000
  C   C299      1.0  0.09746  0.80181  0.36809  1.0000
  C   C300      1.0  0.05795  0.78409  0.35943  1.0000
  C   C301      1.0  0.07287  0.77653  0.41961  1.0000
  C   C302      1.0  0.09273  0.78492  0.42424  1.0000
  C   C303      1.0  0.10802  0.77624  0.47944  1.0000
  C   C304      1.0  0.12817  0.78390  0.47697  1.0000
  H   H122      1.0  0.06954  0.76385  0.45710  1.0000
  O   O39       1.0  0.10377  0.76033  0.53535  1.0000
  H   H123      1.0  0.10659  0.74778  0.50125  1.0000
  O   O40       1.0  0.14251  0.77519  0.53105  1.0000
  H   H124      1.0  0.14860  0.76393  0.49649  1.0000
  C   C305      1.0  0.33315  0.64241  0.37674  1.0000
  N   N105      1.0  0.32541  0.62319  0.36890  1.0000
  C   C306      1.0  0.30102  0.56372  0.36880  1.0000
  H   H125      1.0  0.34518  0.64472  0.41918  1.0000
  N   N106      1.0  0.30899  0.58296  0.36494  1.0000
  H   H126      1.0  0.30701  0.55358  0.41371  1.0000
  C   C307      1.0  0.67016  0.36211  0.37265  1.0000
  N   N107      1.0  0.67793  0.38130  0.36455  1.0000
  C   C308      1.0  0.70236  0.44076  0.36342  1.0000
  H   H127      1.0  0.65811  0.35985  0.41504  1.0000
  N   N108      1.0  0.69440  0.42153  0.35995  1.0000
  H   H128      1.0  0.69635  0.45096  0.40807  1.0000
  C   C309      1.0  0.64180  0.67070  0.37510  1.0000
  N   N109      1.0  0.62258  0.67844  0.36740  1.0000
  C   C310      1.0  0.56311  0.70278  0.36771  1.0000
  H   H129      1.0  0.64413  0.65870  0.41769  1.0000
  N   N110      1.0  0.58235  0.69484  0.36371  1.0000
  H   H130      1.0  0.55300  0.69683  0.41284  1.0000
  C   C311      1.0  0.36150  0.33368  0.37416  1.0000
  N   N111      1.0  0.38069  0.32591  0.36597  1.0000
  C   C312      1.0  0.44016  0.30145  0.36437  1.0000
  H   H131      1.0  0.35926  0.34576  0.41646  1.0000
  N   N112      1.0  0.42091  0.30941  0.36112  1.0000
  H   H132      1.0  0.45036  0.30745  0.40902  1.0000
  C   C313      1.0  0.19398  0.89448  0.34176  1.0000
  N   N113      1.0  0.19927  0.91454  0.33630  1.0000
  C   C314      1.0  0.21326  0.97727  0.33343  1.0000
  H   H133      1.0  0.17948  0.89101  0.36224  1.0000
  N   N114      1.0  0.20911  0.95686  0.33216  1.0000
  H   H134      1.0  0.20204  0.98705  0.35424  1.0000
  C   C315      1.0  0.80950  0.11015  0.34099  1.0000
  N   N115      1.0  0.80427  0.09008  0.33471  1.0000
  C   C316      1.0  0.79046  0.02734  0.32962  1.0000
  H   H135      1.0  0.82391  0.11363  0.36263  1.0000
  N   N116      1.0  0.79456  0.04776  0.32899  1.0000
  H   H136      1.0  0.80161  0.01757  0.35108  1.0000
  C   C317      1.0  0.10945  0.19444  0.34272  1.0000
  N   N117      1.0  0.08939  0.19973  0.33724  1.0000
  C   C318      1.0  0.02666  0.21371  0.33443  1.0000
  H   H137      1.0  0.11292  0.17997  0.36360  1.0000
  N   N118      1.0  0.04707  0.20956  0.33308  1.0000
  H   H138      1.0  0.01688  0.20251  0.35542  1.0000
  C   C319      1.0  0.89379  0.80995  0.34001  1.0000
  N   N119      1.0  0.91385  0.80471  0.33383  1.0000
  C   C320      1.0  0.97660  0.79087  0.32883  1.0000
  H   H139      1.0  0.89032  0.82439  0.36132  1.0000
  N   N120      1.0  0.95618  0.79497  0.32825  1.0000
  H   H140      1.0  0.98638  0.80204  0.35012  1.0000
  C   C321      1.0  0.29530  0.37906  0.37083  1.0000
  C   C322      1.0  0.28559  0.42137  0.38036  1.0000
  C   C323      1.0  0.27067  0.40665  0.40575  1.0000
  C   C324      1.0  0.27579  0.38566  0.39997  1.0000
  H   H141      1.0  0.26509  0.37498  0.41755  1.0000
  C   C325      1.0  0.28078  0.44250  0.38182  1.0000
  C   C326      1.0  0.27078  0.48485  0.37682  1.0000
  C   C327      1.0  0.25647  0.47004  0.40685  1.0000
  C   C328      1.0  0.26103  0.44893  0.40948  1.0000
  C   C329      1.0  0.24639  0.43427  0.43707  1.0000
  C   C330      1.0  0.25117  0.41324  0.43500  1.0000
  H   H142      1.0  0.24218  0.47463  0.42609  1.0000
  O   O41       1.0  0.22717  0.43994  0.46216  1.0000
  H   H143      1.0  0.22778  0.44238  0.52701  1.0000
  O   O42       1.0  0.23639  0.39955  0.45838  1.0000
  H   H144      1.0  0.23808  0.39711  0.52287  1.0000
  C   C331      1.0  0.70789  0.62536  0.36950  1.0000
  C   C332      1.0  0.71753  0.58303  0.37833  1.0000
  C   C333      1.0  0.73241  0.59771  0.40474  1.0000
  C   C334      1.0  0.72732  0.61870  0.39927  1.0000
  H   H145      1.0  0.73800  0.62936  0.41756  1.0000
  C   C335      1.0  0.72232  0.56190  0.37931  1.0000
  C   C336      1.0  0.73233  0.51959  0.37289  1.0000
  C   C337      1.0  0.74657  0.53432  0.40422  1.0000
  C   C338      1.0  0.74200  0.55542  0.40756  1.0000
  C   C339      1.0  0.75659  0.57002  0.43627  1.0000
  C   C340      1.0  0.75184  0.59106  0.43464  1.0000
  H   H146      1.0  0.76081  0.52969  0.42391  1.0000
  O   O43       1.0  0.77575  0.56430  0.46189  1.0000
  H   H147      1.0  0.77501  0.56171  0.52661  1.0000
  O   O44       1.0  0.76657  0.60470  0.45901  1.0000
  H   H148      1.0  0.76475  0.60704  0.52350  1.0000
  C   C341      1.0  0.37850  0.70857  0.37180  1.0000
  C   C342      1.0  0.42081  0.71828  0.38096  1.0000
  C   C343      1.0  0.40610  0.73321  0.40638  1.0000
  C   C344      1.0  0.38511  0.72809  0.40078  1.0000
  H   H149      1.0  0.37443  0.73880  0.41835  1.0000
  C   C345      1.0  0.44194  0.72309  0.38218  1.0000
  C   C346      1.0  0.48427  0.73309  0.37665  1.0000
  C   C347      1.0  0.46948  0.74741  0.40676  1.0000
  C   C348      1.0  0.44838  0.74285  0.40966  1.0000
  C   C349      1.0  0.43373  0.75750  0.43731  1.0000
  C   C350      1.0  0.41270  0.75272  0.43545  1.0000
  H   H150      1.0  0.47408  0.76171  0.42589  1.0000
  O   O45       1.0  0.43941  0.77673  0.46220  1.0000
  H   H151      1.0  0.44189  0.77614  0.52704  1.0000
  O   O46       1.0  0.39902  0.76750  0.45887  1.0000
  H   H152      1.0  0.39660  0.76582  0.52339  1.0000
  C   C351      1.0  0.62478  0.29598  0.36861  1.0000
  C   C352      1.0  0.58246  0.28633  0.37778  1.0000
  C   C353      1.0  0.59714  0.27146  0.40415  1.0000
  C   C354      1.0  0.61814  0.27654  0.39852  1.0000
  H   H153      1.0  0.62880  0.26588  0.41680  1.0000
  C   C355      1.0  0.56133  0.28153  0.37896  1.0000
  C   C356      1.0  0.51900  0.27150  0.37300  1.0000
  C   C357      1.0  0.53376  0.25728  0.40427  1.0000
  C   C358      1.0  0.55486  0.26185  0.40738  1.0000
  C   C359      1.0  0.56948  0.24727  0.43602  1.0000
  C   C360      1.0  0.59051  0.25203  0.43418  1.0000
  H   H154      1.0  0.52914  0.24304  0.42405  1.0000
  O   O47       1.0  0.56377  0.22812  0.46180  1.0000
  H   H155      1.0  0.56121  0.22888  0.52655  1.0000
  O   O48       1.0  0.60416  0.23731  0.45855  1.0000
  H   H156      1.0  0.60652  0.23915  0.52302  1.0000
  C   C361      1.0  0.19602  0.23110  0.34778  1.0000
  C   C362      1.0  0.22618  0.26241  0.35178  1.0000
  C   C363      1.0  0.20531  0.26767  0.36491  1.0000
  C   C364      1.0  0.19050  0.25182  0.36185  1.0000
  H   H157      1.0  0.17542  0.25542  0.37121  1.0000
  C   C365      1.0  0.24147  0.27774  0.35251  1.0000
  C   C366      1.0  0.27274  0.30800  0.35198  1.0000
  C   C367      1.0  0.25199  0.31337  0.36655  1.0000
  C   C368      1.0  0.23615  0.29854  0.36720  1.0000
  C   C369      1.0  0.21537  0.30368  0.38206  1.0000
  C   C370      1.0  0.20008  0.28838  0.38070  1.0000
  H   H158      1.0  0.24832  0.32838  0.37715  1.0000
  O   O49       1.0  0.20962  0.32347  0.39540  1.0000
  H   H159      1.0  0.21031  0.32579  0.46033  1.0000
  O   O50       1.0  0.18023  0.29407  0.39279  1.0000
  H   H160      1.0  0.17763  0.29315  0.45745  1.0000
  C   C371      1.0  0.80724  0.77330  0.34614  1.0000
  C   C372      1.0  0.77706  0.74200  0.35054  1.0000
  C   C373      1.0  0.79794  0.73674  0.36336  1.0000
  C   C374      1.0  0.81275  0.75257  0.36009  1.0000
  H   H161      1.0  0.82783  0.74896  0.36922  1.0000
  C   C375      1.0  0.76177  0.72667  0.35145  1.0000
  C   C376      1.0  0.73048  0.69643  0.35118  1.0000
  C   C377      1.0  0.75124  0.69105  0.36546  1.0000
  C   C378      1.0  0.76709  0.70587  0.36598  1.0000
  C   C379      1.0  0.78787  0.70073  0.38054  1.0000
  C   C380      1.0  0.80317  0.71601  0.37902  1.0000
  H   H162      1.0  0.75492  0.67604  0.37593  1.0000
  O   O51       1.0  0.79363  0.68093  0.39370  1.0000
  H   H163      1.0  0.79298  0.67859  0.45862  1.0000
  O   O52       1.0  0.82303  0.71032  0.39079  1.0000
  H   H164      1.0  0.82568  0.71122  0.45543  1.0000
  C   C381      1.0  0.77276  0.19667  0.34674  1.0000
  C   C382      1.0  0.74145  0.22682  0.35061  1.0000
  C   C383      1.0  0.73618  0.20594  0.36351  1.0000
  C   C384      1.0  0.75203  0.19114  0.36049  1.0000
  H   H165      1.0  0.74843  0.17606  0.36970  1.0000
  C   C385      1.0  0.72611  0.24211  0.35126  1.0000
  C   C386      1.0  0.69585  0.27337  0.35049  1.0000
  C   C387      1.0  0.69047  0.25262  0.36489  1.0000
  C   C388      1.0  0.70530  0.23678  0.36563  1.0000
  C   C389      1.0  0.70016  0.21599  0.38029  1.0000
  C   C390      1.0  0.71546  0.20071  0.37900  1.0000
  H   H166      1.0  0.67545  0.24894  0.37525  1.0000
  O   O53       1.0  0.68036  0.21023  0.39332  1.0000
  H   H167      1.0  0.67800  0.21089  0.45823  1.0000
  O   O54       1.0  0.70977  0.18085  0.39087  1.0000
  H   H168      1.0  0.71065  0.17822  0.45553  1.0000
  C   C391      1.0  0.23058  0.80788  0.34717  1.0000
  C   C392      1.0  0.26187  0.77770  0.35170  1.0000
  C   C393      1.0  0.26713  0.79857  0.36478  1.0000
  C   C394      1.0  0.25130  0.81339  0.36143  1.0000
  H   H169      1.0  0.25491  0.82846  0.37078  1.0000
  C   C395      1.0  0.27720  0.76240  0.35271  1.0000
  C   C396      1.0  0.30744  0.73111  0.35269  1.0000
  C   C397      1.0  0.31280  0.75186  0.36718  1.0000
  C   C398      1.0  0.29798  0.76771  0.36758  1.0000
  C   C399      1.0  0.30313  0.78849  0.38238  1.0000
  C   C400      1.0  0.28785  0.80379  0.38076  1.0000
  H   H170      1.0  0.32781  0.75553  0.37791  1.0000
  O   O55       1.0  0.32291  0.79423  0.39588  1.0000
  H   H171      1.0  0.32520  0.79355  0.46084  1.0000
  O   O56       1.0  0.29354  0.82364  0.39280  1.0000
  H   H172      1.0  0.29259  0.82626  0.45745  1.0000
  C   C401      1.0  0.53984  0.96368  0.35785  1.0000
  C   C402      1.0  0.50882  0.99364  0.36243  1.0000
  C   C403      1.0  0.50364  0.97301  0.38132  1.0000
  C   C404      1.0  0.51940  0.95828  0.37855  1.0000
  H   H173      1.0  0.51585  0.94334  0.39184  1.0000
  C   C405      1.0  0.49354  0.00883  0.36225  1.0000
  C   C406      1.0  0.46346  0.03968  0.35677  1.0000
  C   C407      1.0  0.45807  0.01921  0.37683  1.0000
  C   C408      1.0  0.47290  0.00355  0.38048  1.0000
  C   C409      1.0  0.46781  0.98303  0.40108  1.0000
  C   C410      1.0  0.48313  0.96783  0.40165  1.0000
  H   H174      1.0  0.44311  0.01565  0.38973  1.0000
  O   O57       1.0  0.44812  0.97742  0.41789  1.0000
  H   H175      1.0  0.44615  0.97896  0.48276  1.0000
  O   O58       1.0  0.47761  0.94813  0.41894  1.0000
  H   H176      1.0  0.47914  0.94626  0.48388  1.0000
  C   C411      1.0  0.04010  0.54020  0.35790  1.0000
  C   C412      1.0  0.01013  0.50918  0.36249  1.0000
  C   C413      1.0  0.03076  0.50399  0.38135  1.0000
  C   C414      1.0  0.04550  0.51975  0.37858  1.0000
  H   H177      1.0  0.06043  0.51620  0.39183  1.0000
  C   C415      1.0  0.99494  0.49391  0.36231  1.0000
  C   C416      1.0  0.96408  0.46383  0.35677  1.0000
  C   C417      1.0  0.98454  0.45844  0.37684  1.0000
  C   C418      1.0  0.00021  0.47327  0.38049  1.0000
  C   C419      1.0  0.02073  0.46817  0.40108  1.0000
  C   C420      1.0  0.03594  0.48348  0.40164  1.0000
  H   H178      1.0  0.98810  0.44348  0.38969  1.0000
  O   O59       1.0  0.02634  0.44848  0.41782  1.0000
  H   H179      1.0  0.02479  0.44649  0.48269  1.0000
  O   O60       1.0  0.05563  0.47796  0.41890  1.0000
  H   H180      1.0  0.05751  0.47947  0.48384  1.0000
