data_image0
_chemical_formula_structural       CNCOCH3CNCOCH3CNCOCH3CNCOCH3CNCOCH3CNCOCH3NC2OCH3NC2OCH3NC2OCH3NC2OCH3NC2OCH3NC2OCH3NC2OCH3NC2OCH3NC2OCH3NC2OCH3NC2OCH3NC2OCH3CNCOCH3CNCOCH3CNCOCH3CNCOCH3CNCOCH3CNCOCH3NC2OCH3NC2OCH3NC2OCH3NC2OCH3NC2OCH3NC2OCH3NC2OCH3NC2OCH3NC2OCH3NC2OCH3NC2OCH3NC2OCH3C6H3C6H3C6H3C6H3C6H3C6H3C6H3C6H3C6H3C6H3C6H3C6H3C6H3C6H3C6H3C6H3C6H3C6H3C6H3C6H3C6H3C6H3C6H3C6H3NC2OCH3NC2OCH3NC2OCH3NC2OCH3NC2OCH3NC2OCH3CNCOCH3CNCOCH3CNCOCH3CNCOCH3CNCOCH3CNCOCH3CNCOCH3CNCOCH3CNCOCH3CNCOCH3CNCOCH3CNCOCH3NC2OCH3NC2OCH3NC2OCH3NC2OCH3NC2OCH3NC2OCH3CNCOCH3CNCOCH3CNCOCH3CNCOCH3CNCOCH3CNCOCH3CNCOCH3CNCOCH3CNCOCH3CNCOCH3CNCOCH3CNCOCH3
_chemical_formula_sum              "C360 N72 O72 H288"
_cell_length_a       53.9615
_cell_length_b       53.9614
_cell_length_c       14.7945
_cell_angle_alpha    90
_cell_angle_beta     90
_cell_angle_gamma    120

_space_group_name_H-M_alt    "P 1"
_space_group_IT_number       1

loop_
  _space_group_symop_operation_xyz
  'x, y, z'

loop_
  _atom_site_type_symbol
  _atom_site_label
  _atom_site_symmetry_multiplicity
  _atom_site_fract_x
  _atom_site_fract_y
  _atom_site_fract_z
  _atom_site_occupancy
  C   C1        1.0  0.14380  0.46016  0.35101  1.0000
  N   N1        1.0  0.12173  0.41488  0.27601  1.0000
  C   C2        1.0  0.13440  0.44391  0.27040  1.0000
  O   O1        1.0  0.13892  0.45677  0.18748  1.0000
  C   C3        1.0  0.16111  0.45610  0.13549  1.0000
  H   H1        1.0  0.16339  0.46731  0.07203  1.0000
  H   H2        1.0  0.15565  0.43417  0.11966  1.0000
  H   H3        1.0  0.18166  0.46693  0.17068  1.0000
  C   C4        1.0  0.55716  0.68708  0.35135  1.0000
  N   N2        1.0  0.60250  0.71018  0.27668  1.0000
  C   C5        1.0  0.57347  0.69377  0.27091  1.0000
  O   O2        1.0  0.56068  0.68527  0.18796  1.0000
  C   C6        1.0  0.56127  0.70800  0.13543  1.0000
  H   H4        1.0  0.55014  0.69896  0.07196  1.0000
  H   H5        1.0  0.58319  0.72453  0.11965  1.0000
  H   H6        1.0  0.55034  0.71769  0.17017  1.0000
  C   C7        1.0  0.33028  0.87356  0.35139  1.0000
  N   N3        1.0  0.30707  0.89564  0.27641  1.0000
  C   C8        1.0  0.32345  0.88298  0.27079  1.0000
  O   O3        1.0  0.33180  0.87848  0.18787  1.0000
  C   C9        1.0  0.30896  0.85630  0.13582  1.0000
  H   H7        1.0  0.31790  0.85404  0.07236  1.0000
  H   H8        1.0  0.29248  0.86175  0.11998  1.0000
  H   H9        1.0  0.29924  0.83573  0.17095  1.0000
  C   C10       1.0  0.87702  0.55375  0.35137  1.0000
  N   N4        1.0  0.89924  0.59904  0.27664  1.0000
  C   C11       1.0  0.88660  0.57002  0.27088  1.0000
  O   O4        1.0  0.88225  0.55720  0.18795  1.0000
  C   C12       1.0  0.86010  0.55781  0.13556  1.0000
  H   H10       1.0  0.85796  0.54666  0.07209  1.0000
  H   H11       1.0  0.86551  0.57974  0.11976  1.0000
  H   H12       1.0  0.83949  0.54691  0.17041  1.0000
  C   C13       1.0  0.46358  0.32674  0.35114  1.0000
  N   N5        1.0  0.41833  0.30356  0.27614  1.0000
  C   C14       1.0  0.44736  0.31993  0.27051  1.0000
  O   O5        1.0  0.46023  0.32829  0.18762  1.0000
  C   C15       1.0  0.45957  0.30545  0.13558  1.0000
  H   H13       1.0  0.47078  0.31439  0.07213  1.0000
  H   H14       1.0  0.43764  0.28897  0.11971  1.0000
  H   H15       1.0  0.47040  0.29572  0.17074  1.0000
  C   C16       1.0  0.69063  0.14040  0.35105  1.0000
  N   N6        1.0  0.71371  0.11812  0.27635  1.0000
  C   C17       1.0  0.69732  0.13076  0.27065  1.0000
  O   O6        1.0  0.68880  0.13504  0.18771  1.0000
  C   C18       1.0  0.71152  0.15721  0.13523  1.0000
  H   H16       1.0  0.70248  0.15929  0.07175  1.0000
  H   H17       1.0  0.72807  0.15184  0.11943  1.0000
  H   H18       1.0  0.72119  0.17783  0.16999  1.0000
  N   N7        1.0  0.44990  0.13456  0.27071  1.0000
  C   C19       1.0  0.42086  0.12113  0.26391  1.0000
  C   C20       1.0  0.40464  0.11529  0.34413  1.0000
  O   O7        1.0  0.40820  0.11480  0.18051  1.0000
  C   C21       1.0  0.41119  0.13938  0.13280  1.0000
  H   H19       1.0  0.40005  0.13213  0.06838  1.0000
  H   H20       1.0  0.43364  0.15479  0.11887  1.0000
  H   H21       1.0  0.40159  0.14992  0.17032  1.0000
  N   N8        1.0  0.69835  0.56742  0.27119  1.0000
  C   C22       1.0  0.71395  0.59646  0.26448  1.0000
  C   C23       1.0  0.72461  0.61264  0.34465  1.0000
  O   O8        1.0  0.72006  0.60914  0.18111  1.0000
  C   C24       1.0  0.74171  0.60638  0.13293  1.0000
  H   H22       1.0  0.74540  0.61749  0.06853  1.0000
  H   H23       1.0  0.73485  0.58397  0.11898  1.0000
  H   H24       1.0  0.76192  0.61616  0.17013  1.0000
  N   N9        1.0  0.88322  0.31915  0.27164  1.0000
  C   C25       1.0  0.89670  0.30358  0.26500  1.0000
  C   C26       1.0  0.90208  0.29281  0.34515  1.0000
  O   O9        1.0  0.90340  0.29759  0.18165  1.0000
  C   C27       1.0  0.87908  0.27598  0.13306  1.0000
  H   H25       1.0  0.88660  0.27239  0.06871  1.0000
  H   H26       1.0  0.86352  0.28282  0.11900  1.0000
  H   H27       1.0  0.86862  0.25573  0.16999  1.0000
  N   N10       1.0  0.57099  0.87975  0.27162  1.0000
  C   C28       1.0  0.60004  0.89323  0.26502  1.0000
  C   C29       1.0  0.61618  0.89846  0.34517  1.0000
  O   O10       1.0  0.61275  0.90002  0.18170  1.0000
  C   C30       1.0  0.61014  0.87577  0.13297  1.0000
  H   H28       1.0  0.62124  0.88335  0.06862  1.0000
  H   H29       1.0  0.58776  0.86014  0.11889  1.0000
  H   H30       1.0  0.62001  0.86536  0.16981  1.0000
  N   N11       1.0  0.32240  0.44636  0.27116  1.0000
  C   C31       1.0  0.30680  0.41731  0.26445  1.0000
  C   C32       1.0  0.29624  0.40113  0.34465  1.0000
  O   O11       1.0  0.30063  0.40463  0.18107  1.0000
  C   C33       1.0  0.27906  0.40751  0.13289  1.0000
  H   H31       1.0  0.27530  0.39637  0.06852  1.0000
  H   H32       1.0  0.28602  0.42994  0.11887  1.0000
  H   H33       1.0  0.25886  0.39784  0.17011  1.0000
  N   N12       1.0  0.13797  0.69498  0.27096  1.0000
  C   C34       1.0  0.12453  0.71058  0.26428  1.0000
  C   C35       1.0  0.11884  0.72110  0.34449  1.0000
  O   O12       1.0  0.11806  0.71679  0.18090  1.0000
  C   C36       1.0  0.14253  0.73843  0.13295  1.0000
  H   H34       1.0  0.13519  0.74221  0.06855  1.0000
  H   H35       1.0  0.15804  0.73151  0.11900  1.0000
  H   H36       1.0  0.15300  0.75861  0.17031  1.0000
  N   N13       1.0  0.26439  0.54310  0.29553  1.0000
  C   C37       1.0  0.29035  0.54470  0.28981  1.0000
  C   C38       1.0  0.29742  0.53025  0.35575  1.0000
  O   O13       1.0  0.30759  0.55818  0.21718  1.0000
  C   C39       1.0  0.29970  0.54066  0.13732  1.0000
  H   H37       1.0  0.31442  0.55310  0.08331  1.0000
  H   H38       1.0  0.27801  0.53445  0.11541  1.0000
  H   H39       1.0  0.30133  0.52148  0.14806  1.0000
  N   N14       1.0  0.47419  0.72470  0.29518  1.0000
  C   C40       1.0  0.47258  0.74904  0.28946  1.0000
  C   C41       1.0  0.48702  0.77057  0.35542  1.0000
  O   O14       1.0  0.45911  0.75282  0.21683  1.0000
  C   C42       1.0  0.47663  0.76246  0.13699  1.0000
  H   H40       1.0  0.46419  0.76475  0.08299  1.0000
  H   H41       1.0  0.48286  0.74700  0.11505  1.0000
  H   H42       1.0  0.49581  0.78328  0.14777  1.0000
  N   N15       1.0  0.29264  0.75297  0.29556  1.0000
  C   C43       1.0  0.26831  0.72701  0.28980  1.0000
  C   C44       1.0  0.24678  0.71992  0.35573  1.0000
  O   O15       1.0  0.26455  0.70977  0.21717  1.0000
  C   C45       1.0  0.25492  0.71765  0.13731  1.0000
  H   H43       1.0  0.25265  0.70293  0.08331  1.0000
  H   H44       1.0  0.27038  0.73934  0.11539  1.0000
  H   H45       1.0  0.23410  0.71600  0.14805  1.0000
  N   N16       1.0  0.75644  0.47071  0.29535  1.0000
  C   C46       1.0  0.73047  0.46907  0.28961  1.0000
  C   C47       1.0  0.72337  0.48349  0.35556  1.0000
  O   O16       1.0  0.71323  0.45558  0.21699  1.0000
  C   C48       1.0  0.72110  0.47310  0.13713  1.0000
  H   H46       1.0  0.70637  0.46064  0.08314  1.0000
  H   H47       1.0  0.74279  0.47933  0.11520  1.0000
  H   H48       1.0  0.71944  0.49226  0.14789  1.0000
  N   N17       1.0  0.54656  0.28912  0.29558  1.0000
  C   C49       1.0  0.54819  0.26479  0.28979  1.0000
  C   C50       1.0  0.53372  0.24324  0.35564  1.0000
  O   O17       1.0  0.56169  0.26105  0.21717  1.0000
  C   C51       1.0  0.54420  0.25144  0.13726  1.0000
  H   H49       1.0  0.55666  0.24918  0.08327  1.0000
  H   H50       1.0  0.53798  0.26691  0.11537  1.0000
  H   H51       1.0  0.52502  0.23062  0.14793  1.0000
  N   N18       1.0  0.72826  0.26099  0.29530  1.0000
  C   C52       1.0  0.75261  0.28695  0.28965  1.0000
  C   C53       1.0  0.77412  0.29401  0.35562  1.0000
  O   O18       1.0  0.75638  0.30420  0.21705  1.0000
  C   C54       1.0  0.76602  0.29632  0.13718  1.0000
  H   H52       1.0  0.76831  0.31106  0.08320  1.0000
  H   H53       1.0  0.75055  0.27464  0.11522  1.0000
  H   H54       1.0  0.78683  0.29796  0.14794  1.0000
  C   C55       1.0  0.17876  0.61696  0.32461  1.0000
  N   N19       1.0  0.18926  0.58281  0.25960  1.0000
  C   C56       1.0  0.19035  0.60849  0.25313  1.0000
  O   O19       1.0  0.20156  0.62531  0.17782  1.0000
  C   C57       1.0  0.23007  0.63198  0.15389  1.0000
  H   H55       1.0  0.23696  0.64644  0.09616  1.0000
  H   H56       1.0  0.23064  0.61277  0.13427  1.0000
  H   H57       1.0  0.24509  0.64265  0.20934  1.0000
  C   C58       1.0  0.40038  0.56521  0.32470  1.0000
  N   N20       1.0  0.43451  0.60983  0.25950  1.0000
  C   C59       1.0  0.40884  0.58523  0.25310  1.0000
  O   O20       1.0  0.39200  0.57958  0.17780  1.0000
  C   C60       1.0  0.38534  0.60141  0.15373  1.0000
  H   H58       1.0  0.37087  0.59382  0.09601  1.0000
  H   H59       1.0  0.40455  0.62119  0.13404  1.0000
  H   H60       1.0  0.37467  0.60579  0.20913  1.0000
  C   C61       1.0  0.45210  0.83860  0.32454  1.0000
  N   N21       1.0  0.40743  0.82807  0.25965  1.0000
  C   C62       1.0  0.43203  0.82699  0.25310  1.0000
  O   O21       1.0  0.43762  0.81576  0.17780  1.0000
  C   C63       1.0  0.41575  0.78726  0.15386  1.0000
  H   H61       1.0  0.42331  0.78035  0.09616  1.0000
  H   H62       1.0  0.39598  0.78671  0.13420  1.0000
  H   H63       1.0  0.41137  0.77224  0.20933  1.0000
  C   C64       1.0  0.84215  0.39696  0.32469  1.0000
  N   N22       1.0  0.83165  0.43110  0.25965  1.0000
  C   C65       1.0  0.83057  0.40542  0.25317  1.0000
  O   O22       1.0  0.81934  0.38859  0.17788  1.0000
  C   C66       1.0  0.79085  0.38196  0.15388  1.0000
  H   H64       1.0  0.78395  0.36748  0.09618  1.0000
  H   H65       1.0  0.79030  0.40118  0.13421  1.0000
  H   H66       1.0  0.77582  0.37131  0.20933  1.0000
  C   C67       1.0  0.62041  0.44855  0.32456  1.0000
  N   N23       1.0  0.58625  0.40389  0.25963  1.0000
  C   C68       1.0  0.61194  0.42847  0.25312  1.0000
  O   O23       1.0  0.62877  0.43405  0.17784  1.0000
  C   C69       1.0  0.63540  0.41218  0.15401  1.0000
  H   H67       1.0  0.64988  0.41972  0.09631  1.0000
  H   H68       1.0  0.61618  0.39240  0.13437  1.0000
  H   H69       1.0  0.64604  0.40781  0.20952  1.0000
  C   C70       1.0  0.56876  0.17531  0.32455  1.0000
  N   N24       1.0  0.61341  0.18584  0.25946  1.0000
  C   C71       1.0  0.58881  0.18692  0.25305  1.0000
  O   O24       1.0  0.58320  0.19815  0.17777  1.0000
  C   C72       1.0  0.60504  0.22666  0.15387  1.0000
  H   H70       1.0  0.59746  0.23356  0.09618  1.0000
  H   H71       1.0  0.62483  0.22724  0.13423  1.0000
  H   H72       1.0  0.60939  0.24167  0.20936  1.0000
  N   N25       1.0  0.99491  0.28150  0.26556  1.0000
  C   C73       1.0  0.02405  0.29542  0.26043  1.0000
  C   C74       1.0  0.04013  0.30032  0.34075  1.0000
  O   O25       1.0  0.03688  0.30732  0.17984  1.0000
  C   C75       1.0  0.04106  0.28794  0.12391  1.0000
  H   H73       1.0  0.05142  0.29906  0.06158  1.0000
  H   H74       1.0  0.02068  0.26905  0.10626  1.0000
  H   H75       1.0  0.05494  0.28128  0.15679  1.0000
  N   N26       1.0  0.73420  0.71518  0.26584  1.0000
  C   C76       1.0  0.72019  0.73029  0.26052  1.0000
  C   C77       1.0  0.71689  0.74310  0.33974  1.0000
  O   O26       1.0  0.70687  0.72975  0.18133  1.0000
  C   C78       1.0  0.72503  0.75262  0.12121  1.0000
  H   H76       1.0  0.71287  0.75068  0.06021  1.0000
  H   H77       1.0  0.74390  0.75134  0.10172  1.0000
  H   H78       1.0  0.73175  0.77355  0.15138  1.0000
  N   N27       1.0  0.29993  0.02242  0.26599  1.0000
  C   C79       1.0  0.28466  0.99328  0.26099  1.0000
  C   C80       1.0  0.27414  0.97723  0.34167  1.0000
  O   O27       1.0  0.28313  0.98040  0.18000  1.0000
  C   C81       1.0  0.25932  0.97642  0.12577  1.0000
  H   H79       1.0  0.25960  0.96599  0.06302  1.0000
  H   H80       1.0  0.26090  0.99688  0.10874  1.0000
  H   H81       1.0  0.23894  0.96269  0.15974  1.0000
  N   N28       1.0  0.02591  0.73186  0.26577  1.0000
  C   C82       1.0  0.99677  0.71794  0.26068  1.0000
  C   C83       1.0  0.98073  0.71350  0.34082  1.0000
  O   O28       1.0  0.98392  0.70564  0.18049  1.0000
  C   C84       1.0  0.97957  0.72470  0.12346  1.0000
  H   H82       1.0  0.96923  0.71330  0.06150  1.0000
  H   H83       1.0  0.99989  0.74359  0.10525  1.0000
  H   H84       1.0  0.96562  0.73138  0.15569  1.0000
  N   N29       1.0  0.28400  0.29600  0.26588  1.0000
  C   C85       1.0  0.29784  0.28070  0.26094  1.0000
  C   C86       1.0  0.30377  0.27059  0.34178  1.0000
  O   O29       1.0  0.30885  0.27881  0.17969  1.0000
  C   C87       1.0  0.28873  0.25488  0.12647  1.0000
  H   H85       1.0  0.29918  0.25486  0.06348  1.0000
  H   H86       1.0  0.26988  0.25655  0.10982  1.0000
  H   H87       1.0  0.28207  0.23459  0.16106  1.0000
  N   N30       1.0  0.71859  0.99141  0.26553  1.0000
  C   C88       1.0  0.73368  0.02053  0.26011  1.0000
  C   C89       1.0  0.74660  0.03662  0.33924  1.0000
  O   O30       1.0  0.73300  0.03329  0.18106  1.0000
  C   C90       1.0  0.75580  0.03804  0.12054  1.0000
  H   H88       1.0  0.75374  0.04824  0.05968  1.0000
  H   H89       1.0  0.75451  0.01789  0.10090  1.0000
  H   H90       1.0  0.77675  0.05226  0.15043  1.0000
  N   N31       1.0  0.18176  0.32429  0.27429  1.0000
  C   C91       1.0  0.15582  0.32291  0.26960  1.0000
  C   C92       1.0  0.14317  0.32552  0.35028  1.0000
  O   O31       1.0  0.14535  0.32423  0.18669  1.0000
  C   C93       1.0  0.12929  0.29672  0.14420  1.0000
  H   H91       1.0  0.12159  0.29971  0.07933  1.0000
  H   H92       1.0  0.11073  0.28214  0.18485  1.0000
  H   H93       1.0  0.14262  0.28710  0.13168  1.0000
  N   N32       1.0  0.69415  0.86147  0.27793  1.0000
  C   C94       1.0  0.69563  0.83695  0.27338  1.0000
  C   C95       1.0  0.69197  0.82112  0.35358  1.0000
  O   O32       1.0  0.69530  0.82567  0.19035  1.0000
  C   C96       1.0  0.72323  0.83763  0.15054  1.0000
  H   H94       1.0  0.72100  0.82731  0.08538  1.0000
  H   H95       1.0  0.73757  0.83367  0.19255  1.0000
  H   H96       1.0  0.73272  0.86062  0.13900  1.0000
  N   N33       1.0  0.15640  0.83557  0.27495  1.0000
  C   C97       1.0  0.18096  0.86152  0.27019  1.0000
  C   C98       1.0  0.19626  0.87422  0.35077  1.0000
  O   O33       1.0  0.19270  0.87197  0.18722  1.0000
  C   C99       1.0  0.18122  0.88802  0.14483  1.0000
  H   H97       1.0  0.19188  0.89572  0.07991  1.0000
  H   H98       1.0  0.18521  0.90658  0.18549  1.0000
  H   H99       1.0  0.15826  0.87468  0.13239  1.0000
  N   N34       1.0  0.83915  0.68978  0.27610  1.0000
  C   C100      1.0  0.86513  0.69123  0.27143  1.0000
  C   C101      1.0  0.87775  0.68847  0.35197  1.0000
  O   O34       1.0  0.87568  0.69013  0.18845  1.0000
  C   C102      1.0  0.89170  0.71773  0.14651  1.0000
  H   H100      1.0  0.89947  0.71491  0.08154  1.0000
  H   H101      1.0  0.91021  0.73228  0.18741  1.0000
  H   H102      1.0  0.87832  0.72732  0.13426  1.0000
  N   N35       1.0  0.32836  0.15322  0.27334  1.0000
  C   C103      1.0  0.32701  0.17780  0.26864  1.0000
  C   C104      1.0  0.32896  0.19274  0.34949  1.0000
  O   O35       1.0  0.32884  0.18983  0.18583  1.0000
  C   C105      1.0  0.30158  0.17864  0.14188  1.0000
  H   H103      1.0  0.30496  0.18952  0.07719  1.0000
  H   H104      1.0  0.28685  0.18260  0.18176  1.0000
  H   H105      1.0  0.29192  0.15570  0.12882  1.0000
  N   N36       1.0  0.86487  0.17787  0.27662  1.0000
  C   C106      1.0  0.84036  0.15185  0.27214  1.0000
  C   C107      1.0  0.82467  0.13960  0.35248  1.0000
  O   O36       1.0  0.82898  0.14096  0.18916  1.0000
  C   C108      1.0  0.84086  0.12497  0.14893  1.0000
  H   H106      1.0  0.83046  0.11693  0.08383  1.0000
  H   H107      1.0  0.83690  0.10663  0.19074  1.0000
  H   H108      1.0  0.86384  0.13844  0.13718  1.0000
  C   C109      1.0  0.21689  0.52412  0.35452  1.0000
  C   C110      1.0  0.19381  0.49575  0.35658  1.0000
  C   C111      1.0  0.16517  0.48944  0.34953  1.0000
  C   C112      1.0  0.15956  0.51228  0.34069  1.0000
  C   C113      1.0  0.18239  0.54097  0.33641  1.0000
  C   C114      1.0  0.21094  0.54653  0.34159  1.0000
  H   H109      1.0  0.13884  0.50797  0.33648  1.0000
  H   H110      1.0  0.22759  0.56722  0.34056  1.0000
  H   H111      1.0  0.19798  0.47921  0.36169  1.0000
  C   C115      1.0  0.49317  0.69617  0.35417  1.0000
  C   C116      1.0  0.52155  0.70148  0.35634  1.0000
  C   C117      1.0  0.52788  0.67916  0.34949  1.0000
  C   C118      1.0  0.50504  0.65070  0.34073  1.0000
  C   C119      1.0  0.47634  0.64482  0.33627  1.0000
  C   C120      1.0  0.47078  0.66782  0.34129  1.0000
  H   H112      1.0  0.50936  0.63429  0.33666  1.0000
  H   H113      1.0  0.45008  0.66377  0.34021  1.0000
  H   H114      1.0  0.53808  0.72220  0.36143  1.0000
  C   C121      1.0  0.32115  0.80047  0.35469  1.0000
  C   C122      1.0  0.31586  0.82355  0.35690  1.0000
  C   C123      1.0  0.33819  0.85219  0.34986  1.0000
  C   C124      1.0  0.36664  0.85780  0.34100  1.0000
  C   C125      1.0  0.37250  0.83497  0.33662  1.0000
  C   C126      1.0  0.34950  0.80642  0.34170  1.0000
  H   H115      1.0  0.38305  0.87852  0.33675  1.0000
  H   H116      1.0  0.35354  0.78976  0.34056  1.0000
  H   H117      1.0  0.29515  0.81938  0.36195  1.0000
  C   C127      1.0  0.80395  0.48973  0.35444  1.0000
  C   C128      1.0  0.82701  0.51811  0.35665  1.0000
  C   C129      1.0  0.85566  0.52446  0.34973  1.0000
  C   C130      1.0  0.86130  0.50163  0.34089  1.0000
  C   C131      1.0  0.83849  0.47293  0.33650  1.0000
  C   C132      1.0  0.80993  0.46735  0.34159  1.0000
  H   H118      1.0  0.88203  0.50596  0.33673  1.0000
  H   H119      1.0  0.79328  0.44665  0.34039  1.0000
  H   H120      1.0  0.82281  0.53464  0.36166  1.0000
  C   C133      1.0  0.52755  0.31761  0.35470  1.0000
  C   C134      1.0  0.49918  0.31232  0.35686  1.0000
  C   C135      1.0  0.49286  0.33464  0.34978  1.0000
  C   C136      1.0  0.51570  0.36309  0.34086  1.0000
  C   C137      1.0  0.54440  0.36896  0.33652  1.0000
  C   C138      1.0  0.54995  0.34596  0.34175  1.0000
  H   H121      1.0  0.51139  0.37951  0.33654  1.0000
  H   H122      1.0  0.57064  0.35000  0.34056  1.0000
  H   H123      1.0  0.48264  0.29161  0.36189  1.0000
  C   C139      1.0  0.69974  0.21348  0.35427  1.0000
  C   C140      1.0  0.70504  0.19041  0.35636  1.0000
  C   C141      1.0  0.68272  0.16176  0.34940  1.0000
  C   C142      1.0  0.65426  0.15614  0.34054  1.0000
  C   C143      1.0  0.64839  0.17896  0.33621  1.0000
  C   C144      1.0  0.67138  0.20752  0.34140  1.0000
  H   H124      1.0  0.63786  0.13542  0.33637  1.0000
  H   H125      1.0  0.66734  0.22417  0.34028  1.0000
  H   H126      1.0  0.72576  0.19459  0.36141  1.0000
  C   C145      1.0  0.52868  0.21494  0.34809  1.0000
  C   C146      1.0  0.50027  0.19198  0.35179  1.0000
  C   C147      1.0  0.49381  0.16324  0.34759  1.0000
  C   C148      1.0  0.51656  0.15746  0.33830  1.0000
  C   C149      1.0  0.54529  0.18016  0.33208  1.0000
  C   C150      1.0  0.55098  0.20875  0.33747  1.0000
  H   H127      1.0  0.51214  0.13670  0.33483  1.0000
  H   H128      1.0  0.57169  0.22532  0.33686  1.0000
  H   H129      1.0  0.48384  0.19633  0.35660  1.0000
  C   C151      1.0  0.70013  0.48856  0.34799  1.0000
  C   C152      1.0  0.70561  0.51698  0.35177  1.0000
  C   C153      1.0  0.68334  0.52347  0.34768  1.0000
  C   C154      1.0  0.65481  0.50074  0.33835  1.0000
  C   C155      1.0  0.64874  0.47200  0.33203  1.0000
  C   C156      1.0  0.67163  0.46628  0.33739  1.0000
  H   H130      1.0  0.63847  0.50518  0.33500  1.0000
  H   H131      1.0  0.66747  0.44556  0.33669  1.0000
  H   H132      1.0  0.72639  0.53339  0.35660  1.0000
  C   C157      1.0  0.80244  0.31724  0.34816  1.0000
  C   C158      1.0  0.82537  0.31176  0.35208  1.0000
  C   C159      1.0  0.85413  0.33402  0.34812  1.0000
  C   C160      1.0  0.85995  0.36255  0.33866  1.0000
  C   C161      1.0  0.83727  0.36862  0.33220  1.0000
  C   C162      1.0  0.80867  0.34574  0.33744  1.0000
  H   H133      1.0  0.88072  0.37888  0.33535  1.0000
  H   H134      1.0  0.79212  0.34991  0.33675  1.0000
  H   H135      1.0  0.82100  0.29098  0.35694  1.0000
  C   C163      1.0  0.49211  0.79888  0.34793  1.0000
  C   C164      1.0  0.52052  0.82181  0.35184  1.0000
  C   C165      1.0  0.52702  0.85057  0.34793  1.0000
  C   C166      1.0  0.50431  0.85639  0.33853  1.0000
  C   C167      1.0  0.47556  0.83372  0.33203  1.0000
  C   C168      1.0  0.46984  0.80511  0.33722  1.0000
  H   H136      1.0  0.50875  0.87717  0.33523  1.0000
  H   H137      1.0  0.44912  0.78856  0.33654  1.0000
  H   H138      1.0  0.53693  0.81743  0.35669  1.0000
  C   C169      1.0  0.32067  0.52518  0.34826  1.0000
  C   C170      1.0  0.31519  0.49676  0.35209  1.0000
  C   C171      1.0  0.33746  0.49028  0.34797  1.0000
  C   C172      1.0  0.36599  0.51300  0.33863  1.0000
  C   C173      1.0  0.37205  0.54175  0.33231  1.0000
  C   C174      1.0  0.34916  0.54746  0.33756  1.0000
  H   H139      1.0  0.38232  0.50857  0.33514  1.0000
  H   H140      1.0  0.35332  0.56818  0.33691  1.0000
  H   H141      1.0  0.29441  0.48035  0.35689  1.0000
  C   C175      1.0  0.21846  0.69668  0.34818  1.0000
  C   C176      1.0  0.19553  0.70216  0.35193  1.0000
  C   C177      1.0  0.16677  0.67990  0.34776  1.0000
  C   C178      1.0  0.16096  0.65136  0.33843  1.0000
  C   C179      1.0  0.18364  0.64530  0.33219  1.0000
  C   C180      1.0  0.21224  0.66818  0.33753  1.0000
  H   H142      1.0  0.14019  0.63503  0.33496  1.0000
  H   H143      1.0  0.22880  0.66402  0.33689  1.0000
  H   H144      1.0  0.19989  0.72294  0.35675  1.0000
  C   C181      1.0  0.10845  0.37082  0.35191  1.0000
  C   C182      1.0  0.12900  0.36190  0.35339  1.0000
  C   C183      1.0  0.12093  0.33261  0.35033  1.0000
  C   C184      1.0  0.09128  0.31199  0.34623  1.0000
  C   C185      1.0  0.07011  0.32035  0.34493  1.0000
  C   C186      1.0  0.07917  0.34993  0.34714  1.0000
  H   H145      1.0  0.08506  0.29071  0.34396  1.0000
  H   H146      1.0  0.06424  0.35638  0.34623  1.0000
  H   H147      1.0  0.15031  0.37708  0.35554  1.0000
  C   C187      1.0  0.64650  0.74112  0.35278  1.0000
  C   C188      1.0  0.65551  0.77061  0.35559  1.0000
  C   C189      1.0  0.68482  0.79178  0.35275  1.0000
  C   C190      1.0  0.70537  0.78267  0.34776  1.0000
  C   C191      1.0  0.69693  0.75313  0.34502  1.0000
  C   C192      1.0  0.66733  0.73268  0.34677  1.0000
  H   H148      1.0  0.72667  0.79769  0.34568  1.0000
  H   H149      1.0  0.66081  0.71128  0.34495  1.0000
  H   H150      1.0  0.64037  0.77677  0.35834  1.0000
  C   C193      1.0  0.27627  0.90889  0.35238  1.0000
  C   C194      1.0  0.24680  0.88835  0.35374  1.0000
  C   C195      1.0  0.22559  0.89643  0.35070  1.0000
  C   C196      1.0  0.23464  0.92609  0.34666  1.0000
  C   C197      1.0  0.26417  0.94725  0.34557  1.0000
  C   C198      1.0  0.28468  0.93818  0.34780  1.0000
  H   H151      1.0  0.21959  0.93232  0.34446  1.0000
  H   H152      1.0  0.30607  0.95311  0.34699  1.0000
  H   H153      1.0  0.24067  0.86704  0.35585  1.0000
  C   C199      1.0  0.91235  0.64307  0.35267  1.0000
  C   C200      1.0  0.89184  0.65204  0.35467  1.0000
  C   C201      1.0  0.89995  0.68133  0.35172  1.0000
  C   C202      1.0  0.92961  0.70192  0.34731  1.0000
  C   C203      1.0  0.95074  0.69351  0.34545  1.0000
  C   C204      1.0  0.94163  0.66393  0.34744  1.0000
  H   H154      1.0  0.93586  0.72321  0.34511  1.0000
  H   H155      1.0  0.95654  0.65744  0.34613  1.0000
  H   H156      1.0  0.87053  0.63687  0.35704  1.0000
  C   C205      1.0  0.37426  0.27275  0.35202  1.0000
  C   C206      1.0  0.36535  0.24327  0.35291  1.0000
  C   C207      1.0  0.33606  0.22206  0.34981  1.0000
  C   C208      1.0  0.31544  0.23110  0.34608  1.0000
  C   C209      1.0  0.32380  0.26063  0.34542  1.0000
  C   C210      1.0  0.35336  0.28115  0.34780  1.0000
  H   H157      1.0  0.29416  0.21604  0.34380  1.0000
  H   H158      1.0  0.35981  0.30253  0.34728  1.0000
  H   H159      1.0  0.38054  0.23716  0.35483  1.0000
  C   C211      1.0  0.74468  0.10506  0.35229  1.0000
  C   C212      1.0  0.77416  0.12554  0.35488  1.0000
  C   C213      1.0  0.79533  0.11740  0.35195  1.0000
  C   C214      1.0  0.78622  0.08773  0.34712  1.0000
  C   C215      1.0  0.75667  0.06663  0.34453  1.0000
  C   C216      1.0  0.73623  0.07579  0.34636  1.0000
  H   H160      1.0  0.80124  0.08145  0.34492  1.0000
  H   H161      1.0  0.71483  0.06092  0.34469  1.0000
  H   H162      1.0  0.78033  0.14685  0.35756  1.0000
  C   C217      1.0  0.37504  0.10613  0.34404  1.0000
  C   C218      1.0  0.36608  0.12663  0.34805  1.0000
  C   C219      1.0  0.33675  0.11847  0.34873  1.0000
  C   C220      1.0  0.31616  0.08880  0.34719  1.0000
  C   C221      1.0  0.32456  0.06768  0.34350  1.0000
  C   C222      1.0  0.35414  0.07680  0.34118  1.0000
  H   H163      1.0  0.29485  0.08251  0.34864  1.0000
  H   H164      1.0  0.36062  0.06190  0.33919  1.0000
  H   H165      1.0  0.38125  0.14795  0.34988  1.0000
  C   C223      1.0  0.74504  0.64225  0.34455  1.0000
  C   C224      1.0  0.77449  0.65123  0.34999  1.0000
  C   C225      1.0  0.79565  0.68056  0.35078  1.0000
  C   C226      1.0  0.78655  0.70113  0.34832  1.0000
  C   C227      1.0  0.75704  0.69273  0.34320  1.0000
  C   C228      1.0  0.73662  0.66313  0.34032  1.0000
  H   H166      1.0  0.80156  0.72244  0.34972  1.0000
  H   H167      1.0  0.71524  0.65663  0.33732  1.0000
  H   H168      1.0  0.78064  0.63606  0.35247  1.0000
  C   C229      1.0  0.91124  0.27235  0.34492  1.0000
  C   C230      1.0  0.89073  0.24290  0.35012  1.0000
  C   C231      1.0  0.89885  0.22171  0.35059  1.0000
  C   C232      1.0  0.92852  0.23076  0.34788  1.0000
  C   C233      1.0  0.94965  0.26026  0.34323  1.0000
  C   C234      1.0  0.94054  0.28074  0.34083  1.0000
  H   H169      1.0  0.93478  0.21572  0.34939  1.0000
  H   H170      1.0  0.95545  0.30211  0.33817  1.0000
  H   H171      1.0  0.86943  0.23679  0.35270  1.0000
  C   C235      1.0  0.64580  0.90765  0.34497  1.0000
  C   C236      1.0  0.65478  0.88720  0.35097  1.0000
  C   C237      1.0  0.68411  0.89536  0.35164  1.0000
  C   C238      1.0  0.70468  0.92503  0.34855  1.0000
  C   C239      1.0  0.69628  0.94613  0.34298  1.0000
  C   C240      1.0  0.66668  0.93695  0.34011  1.0000
  H   H172      1.0  0.72599  0.93132  0.34999  1.0000
  H   H173      1.0  0.66017  0.95181  0.33682  1.0000
  H   H174      1.0  0.63961  0.86589  0.35388  1.0000
  C   C241      1.0  0.27581  0.37151  0.34444  1.0000
  C   C242      1.0  0.24635  0.36255  0.34865  1.0000
  C   C243      1.0  0.22517  0.33323  0.34912  1.0000
  C   C244      1.0  0.23425  0.31263  0.34715  1.0000
  C   C245      1.0  0.26377  0.32103  0.34340  1.0000
  C   C246      1.0  0.28423  0.35061  0.34129  1.0000
  H   H175      1.0  0.21922  0.29133  0.34861  1.0000
  H   H176      1.0  0.30561  0.35709  0.33925  1.0000
  H   H177      1.0  0.24020  0.37773  0.35074  1.0000
  C   C247      1.0  0.10966  0.74154  0.34434  1.0000
  C   C248      1.0  0.13015  0.77099  0.34911  1.0000
  C   C249      1.0  0.12199  0.79216  0.34982  1.0000
  C   C250      1.0  0.09231  0.78306  0.34772  1.0000
  C   C251      1.0  0.07120  0.75355  0.34329  1.0000
  C   C252      1.0  0.08035  0.73311  0.34075  1.0000
  H   H178      1.0  0.08602  0.79809  0.34916  1.0000
  H   H179      1.0  0.06546  0.71173  0.33820  1.0000
  H   H180      1.0  0.15147  0.77714  0.35134  1.0000
  N   N37       1.0  0.14052  0.44557  0.42921  1.0000
  C   C253      1.0  0.12761  0.41659  0.43528  1.0000
  C   C254      1.0  0.11753  0.40038  0.35496  1.0000
  O   O37       1.0  0.12505  0.40376  0.51734  1.0000
  C   C255      1.0  0.15187  0.41021  0.55772  1.0000
  H   H181      1.0  0.14733  0.39824  0.62070  1.0000
  H   H182      1.0  0.16488  0.43297  0.57356  1.0000
  H   H183      1.0  0.16400  0.40379  0.51391  1.0000
  N   N38       1.0  0.57168  0.69855  0.42952  1.0000
  C   C256      1.0  0.60065  0.71468  0.43579  1.0000
  C   C257      1.0  0.61691  0.72068  0.35564  1.0000
  O   O38       1.0  0.61343  0.72507  0.51785  1.0000
  C   C258      1.0  0.60668  0.74524  0.55819  1.0000
  H   H184      1.0  0.61868  0.75282  0.62108  1.0000
  H   H185      1.0  0.58392  0.73526  0.57417  1.0000
  H   H186      1.0  0.61286  0.76372  0.51429  1.0000
  N   N39       1.0  0.31896  0.87682  0.42958  1.0000
  C   C259      1.0  0.30288  0.88972  0.43569  1.0000
  C   C260      1.0  0.29674  0.89979  0.35536  1.0000
  O   O39       1.0  0.29259  0.89226  0.51775  1.0000
  C   C261      1.0  0.27222  0.86542  0.55804  1.0000
  H   H187      1.0  0.26477  0.86994  0.62103  1.0000
  H   H188      1.0  0.28196  0.85241  0.57385  1.0000
  H   H189      1.0  0.25368  0.85331  0.51420  1.0000
  N   N40       1.0  0.88010  0.56825  0.42958  1.0000
  C   C262      1.0  0.89297  0.59723  0.43577  1.0000
  C   C263      1.0  0.90323  0.61349  0.35560  1.0000
  O   O40       1.0  0.89536  0.61001  0.51781  1.0000
  C   C264      1.0  0.86846  0.60339  0.55795  1.0000
  H   H190      1.0  0.87288  0.61537  0.62088  1.0000
  H   H191      1.0  0.85556  0.58063  0.57383  1.0000
  H   H192      1.0  0.85626  0.60968  0.51396  1.0000
  N   N41       1.0  0.44902  0.31541  0.42936  1.0000
  C   C265      1.0  0.42003  0.29933  0.43538  1.0000
  C   C266      1.0  0.40383  0.29323  0.35507  1.0000
  O   O41       1.0  0.40720  0.28902  0.51741  1.0000
  C   C267      1.0  0.41362  0.26859  0.55754  1.0000
  H   H193      1.0  0.40165  0.26113  0.62053  1.0000
  H   H194      1.0  0.43637  0.27828  0.57333  1.0000
  H   H195      1.0  0.40716  0.25007  0.51360  1.0000
  N   N42       1.0  0.70216  0.13736  0.42914  1.0000
  C   C268      1.0  0.71829  0.12452  0.43538  1.0000
  C   C269      1.0  0.72423  0.11420  0.35526  1.0000
  O   O42       1.0  0.72873  0.12218  0.51740  1.0000
  C   C270      1.0  0.74891  0.14910  0.55761  1.0000
  H   H196      1.0  0.75652  0.14472  0.62049  1.0000
  H   H197      1.0  0.73894  0.16190  0.57359  1.0000
  H   H198      1.0  0.76737  0.16139  0.51362  1.0000
  C   C271      1.0  0.46449  0.14193  0.35031  1.0000
  N   N43       1.0  0.41917  0.12364  0.42361  1.0000
  C   C272      1.0  0.44819  0.13669  0.43034  1.0000
  O   O43       1.0  0.46127  0.14480  0.51310  1.0000
  C   C273      1.0  0.45682  0.16561  0.55998  1.0000
  H   H199      1.0  0.46898  0.17111  0.62278  1.0000
  H   H200      1.0  0.43428  0.15699  0.57691  1.0000
  H   H201      1.0  0.46438  0.18517  0.52033  1.0000
  C   C274      1.0  0.69138  0.55280  0.35072  1.0000
  N   N44       1.0  0.71865  0.59808  0.42401  1.0000
  C   C275      1.0  0.70267  0.56906  0.43070  1.0000
  O   O44       1.0  0.69791  0.55593  0.51334  1.0000
  C   C276      1.0  0.72328  0.56054  0.55982  1.0000
  H   H202      1.0  0.71676  0.54830  0.62248  1.0000
  H   H203      1.0  0.73707  0.58309  0.57698  1.0000
  H   H204      1.0  0.73537  0.55319  0.51977  1.0000
  C   C277      1.0  0.87542  0.32597  0.35116  1.0000
  N   N45       1.0  0.89333  0.29863  0.42445  1.0000
  C   C278      1.0  0.88027  0.31459  0.43115  1.0000
  O   O45       1.0  0.87178  0.31924  0.51373  1.0000
  C   C279      1.0  0.85105  0.29380  0.56000  1.0000
  H   H205      1.0  0.84520  0.30025  0.62260  1.0000
  H   H206      1.0  0.85988  0.28009  0.57727  1.0000
  H   H207      1.0  0.83165  0.28166  0.51974  1.0000
  C   C280      1.0  0.55636  0.87186  0.35110  1.0000
  N   N46       1.0  0.60159  0.88964  0.42443  1.0000
  C   C281      1.0  0.57257  0.87660  0.43109  1.0000
  O   O46       1.0  0.55940  0.86803  0.51360  1.0000
  C   C282      1.0  0.56415  0.84732  0.55979  1.0000
  H   H208      1.0  0.55183  0.84140  0.62231  1.0000
  H   H209      1.0  0.58670  0.85619  0.57717  1.0000
  H   H210      1.0  0.55697  0.82796  0.51940  1.0000
  C   C283      1.0  0.32942  0.46094  0.35074  1.0000
  N   N47       1.0  0.30227  0.41567  0.42408  1.0000
  C   C284      1.0  0.31824  0.44469  0.43079  1.0000
  O   O47       1.0  0.32308  0.45780  0.51347  1.0000
  C   C285      1.0  0.29775  0.45324  0.56012  1.0000
  H   H211      1.0  0.30433  0.46546  0.62283  1.0000
  H   H212      1.0  0.28391  0.43070  0.57720  1.0000
  H   H213      1.0  0.28569  0.46067  0.52023  1.0000
  C   C286      1.0  0.14547  0.68794  0.35061  1.0000
  N   N48       1.0  0.12733  0.71505  0.42391  1.0000
  C   C287      1.0  0.14038  0.69907  0.43068  1.0000
  O   O48       1.0  0.14863  0.69421  0.51336  1.0000
  C   C288      1.0  0.16939  0.71953  0.56007  1.0000
  H   H214      1.0  0.17502  0.71295  0.62278  1.0000
  H   H215      1.0  0.16068  0.73337  0.57715  1.0000
  H   H216      1.0  0.18889  0.73161  0.52022  1.0000
  C   C289      1.0  0.24519  0.52917  0.36287  1.0000
  N   N49       1.0  0.27826  0.51660  0.42316  1.0000
  C   C290      1.0  0.25310  0.51620  0.43154  1.0000
  O   O49       1.0  0.23529  0.50056  0.50068  1.0000
  C   C291      1.0  0.23892  0.51742  0.57997  1.0000
  H   H217      1.0  0.22419  0.50338  0.63161  1.0000
  H   H218      1.0  0.23388  0.53433  0.56628  1.0000
  H   H219      1.0  0.26068  0.52687  0.60660  1.0000
  C   C292      1.0  0.48811  0.71942  0.36252  1.0000
  N   N50       1.0  0.50067  0.76505  0.42285  1.0000
  C   C293      1.0  0.50107  0.74029  0.43123  1.0000
  O   O50       1.0  0.51671  0.73812  0.50037  1.0000
  C   C294      1.0  0.49985  0.72489  0.57965  1.0000
  H   H220      1.0  0.51390  0.72420  0.63129  1.0000
  H   H221      1.0  0.48295  0.70294  0.56597  1.0000
  H   H222      1.0  0.49039  0.73719  0.60629  1.0000
  C   C295      1.0  0.29790  0.77216  0.36290  1.0000
  N   N51       1.0  0.25226  0.73906  0.42318  1.0000
  C   C296      1.0  0.27702  0.76423  0.43160  1.0000
  O   O51       1.0  0.27917  0.78203  0.50078  1.0000
  C   C297      1.0  0.29242  0.77839  0.58004  1.0000
  H   H223      1.0  0.29309  0.79310  0.63171  1.0000
  H   H224      1.0  0.31437  0.78345  0.56633  1.0000
  H   H225      1.0  0.28012  0.75662  0.60662  1.0000
  C   C298      1.0  0.77563  0.48465  0.36269  1.0000
  N   N52       1.0  0.74252  0.49715  0.42301  1.0000
  C   C299      1.0  0.76769  0.49758  0.43141  1.0000
  O   O52       1.0  0.78548  0.51323  0.50058  1.0000
  C   C300      1.0  0.78186  0.49636  0.57985  1.0000
  H   H226      1.0  0.79657  0.51040  0.63152  1.0000
  H   H227      1.0  0.78692  0.47947  0.56616  1.0000
  H   H228      1.0  0.76009  0.48688  0.60644  1.0000
  C   C301      1.0  0.53260  0.29436  0.36290  1.0000
  N   N53       1.0  0.52006  0.24871  0.42312  1.0000
  C   C302      1.0  0.51964  0.27347  0.43157  1.0000
  O   O53       1.0  0.50401  0.27562  0.50075  1.0000
  C   C303      1.0  0.52088  0.28885  0.58003  1.0000
  H   H229      1.0  0.50684  0.28952  0.63171  1.0000
  H   H230      1.0  0.53778  0.31080  0.56634  1.0000
  H   H231      1.0  0.53035  0.27655  0.60659  1.0000
  C   C304      1.0  0.72299  0.24178  0.36261  1.0000
  N   N54       1.0  0.76860  0.27484  0.42303  1.0000
  C   C305      1.0  0.74384  0.24968  0.43138  1.0000
  O   O54       1.0  0.74166  0.23186  0.50049  1.0000
  C   C306      1.0  0.72842  0.23547  0.57978  1.0000
  H   H232      1.0  0.72772  0.22073  0.63138  1.0000
  H   H233      1.0  0.70647  0.23043  0.56606  1.0000
  H   H234      1.0  0.74072  0.25723  0.60645  1.0000
  N   N55       1.0  0.16775  0.59901  0.39665  1.0000
  C   C307      1.0  0.16655  0.57323  0.40260  1.0000
  C   C308      1.0  0.17768  0.56453  0.33048  1.0000
  O   O55       1.0  0.15630  0.55739  0.47993  1.0000
  C   C309      1.0  0.17708  0.56676  0.55162  1.0000
  H   H235      1.0  0.16716  0.55285  0.60975  1.0000
  H   H236      1.0  0.18388  0.58871  0.57210  1.0000
  H   H237      1.0  0.19582  0.56523  0.53218  1.0000
  N   N56       1.0  0.41835  0.57215  0.39671  1.0000
  C   C310      1.0  0.44413  0.59674  0.40256  1.0000
  C   C311      1.0  0.45278  0.61656  0.33041  1.0000
  O   O56       1.0  0.45999  0.60235  0.47985  1.0000
  C   C312      1.0  0.45063  0.61378  0.55154  1.0000
  H   H238      1.0  0.46456  0.61778  0.60963  1.0000
  H   H239      1.0  0.42869  0.59863  0.57208  1.0000
  H   H240      1.0  0.45216  0.63404  0.53206  1.0000
  N   N57       1.0  0.44522  0.84967  0.39655  1.0000
  C   C313      1.0  0.42064  0.85087  0.40254  1.0000
  C   C314      1.0  0.40076  0.83966  0.33056  1.0000
  O   O57       1.0  0.41509  0.86118  0.47983  1.0000
  C   C315      1.0  0.40371  0.84045  0.55165  1.0000
  H   H241      1.0  0.39976  0.85041  0.60973  1.0000
  H   H242      1.0  0.41887  0.83365  0.57214  1.0000
  H   H243      1.0  0.38343  0.82171  0.53236  1.0000
  N   N58       1.0  0.85318  0.41492  0.39670  1.0000
  C   C316      1.0  0.85437  0.44070  0.40261  1.0000
  C   C317      1.0  0.84322  0.44939  0.33050  1.0000
  O   O58       1.0  0.86463  0.45655  0.47993  1.0000
  C   C318      1.0  0.84385  0.44718  0.55164  1.0000
  H   H244      1.0  0.85378  0.46109  0.60975  1.0000
  H   H245      1.0  0.83706  0.42523  0.57213  1.0000
  H   H246      1.0  0.82512  0.44871  0.53222  1.0000
  N   N59       1.0  0.60244  0.44165  0.39655  1.0000
  C   C319      1.0  0.57665  0.41708  0.40249  1.0000
  C   C320      1.0  0.56795  0.39722  0.33045  1.0000
  O   O59       1.0  0.56080  0.41153  0.47978  1.0000
  C   C321      1.0  0.57014  0.40014  0.55158  1.0000
  H   H247      1.0  0.55622  0.39618  0.60966  1.0000
  H   H248      1.0  0.59209  0.41529  0.57208  1.0000
  H   H249      1.0  0.56860  0.37986  0.53226  1.0000
  N   N60       1.0  0.57570  0.16427  0.39652  1.0000
  C   C322      1.0  0.60029  0.16309  0.40239  1.0000
  C   C323      1.0  0.62013  0.17425  0.33027  1.0000
  O   O60       1.0  0.60588  0.15281  0.47967  1.0000
  C   C324      1.0  0.61729  0.17357  0.55141  1.0000
  H   H250      1.0  0.62128  0.16363  0.60949  1.0000
  H   H251      1.0  0.60214  0.18036  0.57196  1.0000
  H   H252      1.0  0.63756  0.19231  0.53201  1.0000
  C   C325      1.0  0.97966  0.27023  0.34288  1.0000
  N   N61       1.0  0.02489  0.29040  0.41882  1.0000
  C   C326      1.0  0.99571  0.27492  0.42318  1.0000
  O   O61       1.0  0.98276  0.26850  0.50607  1.0000
  C   C327      1.0  0.98124  0.24357  0.54649  1.0000
  H   H253      1.0  0.97035  0.23989  0.61128  1.0000
  H   H254      1.0  0.00258  0.24666  0.55887  1.0000
  H   H255      1.0  0.96900  0.22459  0.50445  1.0000
  C   C328      1.0  0.74701  0.71274  0.34194  1.0000
  N   N62       1.0  0.72849  0.73945  0.41692  1.0000
  C   C329      1.0  0.74408  0.72584  0.42103  1.0000
  O   O62       1.0  0.75211  0.72089  0.50367  1.0000
  C   C330      1.0  0.77724  0.74527  0.53926  1.0000
  H   H256      1.0  0.78224  0.73922  0.60407  1.0000
  H   H257      1.0  0.77367  0.76326  0.55055  1.0000
  H   H258      1.0  0.79564  0.75193  0.49451  1.0000
  C   C331      1.0  0.30454  0.03766  0.34367  1.0000
  N   N63       1.0  0.28005  0.99247  0.41995  1.0000
  C   C332      1.0  0.29380  0.02165  0.42433  1.0000
  O   O63       1.0  0.30086  0.03461  0.50717  1.0000
  C   C333      1.0  0.27780  0.03641  0.54911  1.0000
  H   H259      1.0  0.28540  0.04730  0.61373  1.0000
  H   H260      1.0  0.25948  0.01517  0.56204  1.0000
  H   H261      1.0  0.27102  0.04878  0.50785  1.0000
  C   C334      1.0  0.04118  0.74354  0.34278  1.0000
  N   N64       1.0  0.99598  0.72391  0.41865  1.0000
  C   C335      1.0  0.02517  0.73941  0.42285  1.0000
  O   O64       1.0  0.03816  0.74632  0.50565  1.0000
  C   C336      1.0  0.03948  0.77133  0.54461  1.0000
  H   H262      1.0  0.05046  0.77543  0.60939  1.0000
  H   H263      1.0  0.01809  0.76812  0.55675  1.0000
  H   H264      1.0  0.05156  0.79014  0.50169  1.0000
  C   C337      1.0  0.27374  0.30100  0.34374  1.0000
  N   N65       1.0  0.29486  0.27692  0.42014  1.0000
  C   C338      1.0  0.27946  0.29070  0.42457  1.0000
  O   O65       1.0  0.27396  0.29814  0.50738  1.0000
  C   C339      1.0  0.24919  0.27535  0.55051  1.0000
  H   H265      1.0  0.24623  0.28323  0.61508  1.0000
  H   H266      1.0  0.25200  0.25697  0.56374  1.0000
  H   H267      1.0  0.22990  0.26856  0.50996  1.0000
  C   C340      1.0  0.71629  0.97616  0.34154  1.0000
  N   N66       1.0  0.74317  0.02142  0.41636  1.0000
  C   C341      1.0  0.72958  0.99222  0.42045  1.0000
  O   O66       1.0  0.72479  0.97925  0.50307  1.0000
  C   C342      1.0  0.74927  0.97861  0.53823  1.0000
  H   H268      1.0  0.74335  0.96757  0.60306  1.0000
  H   H269      1.0  0.76722  0.00020  0.54938  1.0000
  H   H270      1.0  0.75593  0.96692  0.49326  1.0000
  C   C343      1.0  0.19581  0.32594  0.35262  1.0000
  N   N67       1.0  0.15803  0.32887  0.42808  1.0000
  C   C344      1.0  0.18293  0.32819  0.43330  1.0000
  O   O67       1.0  0.19681  0.33399  0.51452  1.0000
  C   C345      1.0  0.18820  0.30877  0.56811  1.0000
  H   H271      1.0  0.20027  0.31522  0.63108  1.0000
  H   H272      1.0  0.19289  0.29363  0.53381  1.0000
  H   H273      1.0  0.16542  0.29820  0.58474  1.0000
  C   C346      1.0  0.69142  0.87331  0.35599  1.0000
  N   N68       1.0  0.68755  0.83212  0.43082  1.0000
  C   C347      1.0  0.68812  0.85763  0.43624  1.0000
  O   O68       1.0  0.68129  0.86514  0.51677  1.0000
  C   C348      1.0  0.70590  0.88184  0.57276  1.0000
  H   H274      1.0  0.69866  0.88694  0.63510  1.0000
  H   H275      1.0  0.72110  0.90195  0.53996  1.0000
  H   H276      1.0  0.71668  0.86990  0.59039  1.0000
  C   C349      1.0  0.14405  0.82152  0.35331  1.0000
  N   N69       1.0  0.18478  0.85931  0.42854  1.0000
  C   C350      1.0  0.15922  0.83440  0.43390  1.0000
  O   O69       1.0  0.15121  0.82052  0.51514  1.0000
  C   C351      1.0  0.13453  0.82905  0.56878  1.0000
  H   H277      1.0  0.12899  0.81700  0.63179  1.0000
  H   H278      1.0  0.11466  0.82426  0.53457  1.0000
  H   H279      1.0  0.14667  0.85184  0.58534  1.0000
  C   C352      1.0  0.82501  0.68786  0.35445  1.0000
  N   N70       1.0  0.86275  0.68486  0.42968  1.0000
  C   C353      1.0  0.83781  0.68546  0.43506  1.0000
  O   O70       1.0  0.82385  0.67943  0.51618  1.0000
  C   C354      1.0  0.83221  0.70454  0.57008  1.0000
  H   H280      1.0  0.82012  0.69792  0.63300  1.0000
  H   H281      1.0  0.82733  0.71959  0.53600  1.0000
  H   H282      1.0  0.85499  0.71529  0.58678  1.0000
  C   C355      1.0  0.32946  0.14055  0.35175  1.0000
  N   N71       1.0  0.33177  0.18092  0.42745  1.0000
  C   C356      1.0  0.33109  0.15534  0.43263  1.0000
  O   O71       1.0  0.33637  0.14698  0.51418  1.0000
  C   C357      1.0  0.31083  0.13034  0.56636  1.0000
  H   H283      1.0  0.31687  0.12448  0.62967  1.0000
  H   H284      1.0  0.29580  0.11064  0.53122  1.0000
  H   H285      1.0  0.30029  0.14261  0.58242  1.0000
  C   C358      1.0  0.87676  0.19235  0.35475  1.0000
  N   N72       1.0  0.83576  0.15492  0.42985  1.0000
  C   C359      1.0  0.86126  0.17987  0.43519  1.0000
  O   O72       1.0  0.86890  0.19414  0.51583  1.0000
  C   C360      1.0  0.88557  0.18608  0.57139  1.0000
  H   H286      1.0  0.89080  0.19840  0.63382  1.0000
  H   H287      1.0  0.90561  0.19091  0.53827  1.0000
  H   H288      1.0  0.87356  0.16336  0.58889  1.0000
