data_image0
_chemical_formula_structural       C3HC4HN2H2O2C5H2NH2NO2C5H2NH2NO2C5H2NH2NO2C3HC4HN2H2O2C3HC4HN2H2O2C3HC4HN2H2O2C3HC4HN2H2O2C5H2NH2NO2C5H2NH2NO2C3HC4HN2H2O2C3HC4HN2H2O2C5H2NH2NO2C5H2NH2NO2C3HC4HN2H2O2C3HC4HN2H2O2C5H2NH2NO2C5H2NH2NO2C3HC4HN2H2O2C3HC4HN2H2O2C5H2NH2NO2C5H2NH2NO2C5H2NH2NO2C3HC4HN2H2O2CNCNCNCNCNCNCNCNCNCNCNCNCNCNCNCNCNCNCNCNCNCNCNCNCNCNCNCNCNCNCNCNCNCNCNCNCNCNCNCNCNCNCNCNCNCNCNCNC5H2NH2NO2C3HC4HN2H2O2C3HC4HN2H2O2C3HC4HN2H2O2C5H2NH2NO2C5H2NH2NO2C5H2NH2NO2C5H2NH2NO2C3HC4HN2H2O2C3HC4HN2H2O2C5H2NH2NO2C5H2NH2NO2C3HC4HN2H2O2C3HC4HN2H2O2C5H2NH2NO2C5H2NH2NO2C3HC4HN2H2O2C3HC4HN2H2O2C5H2NH2NO2C5H2NH2NO2C3HC4HN2H2O2C3HC4HN2H2O2C3HC4HN2H2O2C5H2NH2NO2
_chemical_formula_sum              "C336 H192 N144 O96"
_cell_length_a       82.062
_cell_length_b       42.3094
_cell_length_c       14.8188
_cell_angle_alpha    90
_cell_angle_beta     90
_cell_angle_gamma    90

_space_group_name_H-M_alt    "P 1"
_space_group_IT_number       1

loop_
  _space_group_symop_operation_xyz
  'x, y, z'

loop_
  _atom_site_type_symbol
  _atom_site_label
  _atom_site_symmetry_multiplicity
  _atom_site_fract_x
  _atom_site_fract_y
  _atom_site_fract_z
  _atom_site_occupancy
  C   C1        1.0  0.50942  0.52153  0.34277  1.0000
  C   C2        1.0  0.50280  0.54839  0.29791  1.0000
  C   C3        1.0  0.51163  0.57721  0.29910  1.0000
  H   H1        1.0  0.50670  0.59629  0.26638  1.0000
  C   C4        1.0  0.50135  0.49142  0.34455  1.0000
  C   C5        1.0  0.48449  0.43197  0.34667  1.0000
  C   C6        1.0  0.49117  0.44401  0.26507  1.0000
  C   C7        1.0  0.49938  0.47351  0.26500  1.0000
  H   H2        1.0  0.50405  0.48194  0.20559  1.0000
  N   N1        1.0  0.48947  0.42640  0.18425  1.0000
  N   N2        1.0  0.48805  0.54783  0.25568  1.0000
  H   H3        1.0  0.48362  0.56659  0.22664  1.0000
  H   H4        1.0  0.48114  0.52922  0.25609  1.0000
  O   O1        1.0  0.48158  0.44149  0.12570  1.0000
  O   O2        1.0  0.50309  0.41892  0.15199  1.0000
  C   C8        1.0  0.98534  0.08078  0.34808  1.0000
  C   C9        1.0  0.97884  0.05382  0.30368  1.0000
  C   C10       1.0  0.98762  0.02486  0.30414  1.0000
  C   C11       1.0  0.01732  0.97891  0.26574  1.0000
  C   C12       1.0  0.02571  0.94953  0.26300  1.0000
  H   H5        1.0  0.01598  0.99168  0.20745  1.0000
  H   H6        1.0  0.98271  0.00578  0.27134  1.0000
  N   N3        1.0  0.03136  0.93908  0.18188  1.0000
  H   H7        1.0  0.02978  0.95131  0.12690  1.0000
  H   H8        1.0  0.03711  0.91913  0.17577  1.0000
  N   N4        1.0  0.96395  0.05642  0.25609  1.0000
  O   O3        1.0  0.95339  0.03782  0.28685  1.0000
  O   O4        1.0  0.96579  0.05110  0.17327  1.0000
  C   C13       1.0  0.35329  0.31194  0.34186  1.0000
  C   C14       1.0  0.36583  0.29528  0.29568  1.0000
  C   C15       1.0  0.38207  0.30678  0.29733  1.0000
  C   C16       1.0  0.41133  0.35314  0.26445  1.0000
  C   C17       1.0  0.42805  0.36183  0.26263  1.0000
  H   H9        1.0  0.40475  0.35355  0.20569  1.0000
  H   H10       1.0  0.39087  0.29426  0.26373  1.0000
  N   N5        1.0  0.43478  0.37002  0.18190  1.0000
  H   H11       1.0  0.42835  0.37016  0.12665  1.0000
  H   H12       1.0  0.44615  0.37606  0.17638  1.0000
  N   N6        1.0  0.36196  0.26781  0.24543  1.0000
  O   O5        1.0  0.36951  0.24400  0.27415  1.0000
  O   O6        1.0  0.36500  0.27129  0.16290  1.0000
  C   C18       1.0  0.65894  0.69997  0.34303  1.0000
  C   C19       1.0  0.64637  0.71665  0.29720  1.0000
  C   C20       1.0  0.63013  0.70509  0.29894  1.0000
  C   C21       1.0  0.60091  0.65895  0.26538  1.0000
  C   C22       1.0  0.58417  0.65036  0.26331  1.0000
  H   H13       1.0  0.60747  0.65882  0.20654  1.0000
  H   H14       1.0  0.62131  0.71763  0.26557  1.0000
  N   N7        1.0  0.57742  0.64263  0.18227  1.0000
  H   H15       1.0  0.58384  0.64272  0.12700  1.0000
  H   H16       1.0  0.56604  0.63666  0.17657  1.0000
  N   N8        1.0  0.65019  0.74421  0.24717  1.0000
  O   O7        1.0  0.64263  0.76795  0.27624  1.0000
  O   O8        1.0  0.64712  0.74082  0.16465  1.0000
  C   C23       1.0  0.12571  0.83453  0.34651  1.0000
  C   C24       1.0  0.13819  0.85151  0.30044  1.0000
  C   C25       1.0  0.15445  0.84001  0.30320  1.0000
  H   H17       1.0  0.16328  0.85230  0.26916  1.0000
  C   C26       1.0  0.10887  0.84390  0.34638  1.0000
  C   C27       1.0  0.07500  0.86116  0.34665  1.0000
  C   C28       1.0  0.08279  0.85141  0.26555  1.0000
  C   C29       1.0  0.09954  0.84313  0.26641  1.0000
  H   H18       1.0  0.10494  0.83598  0.20752  1.0000
  N   N9        1.0  0.07367  0.85006  0.18439  1.0000
  N   N10       1.0  0.13519  0.87889  0.25509  1.0000
  H   H19       1.0  0.14389  0.89045  0.22502  1.0000
  H   H20       1.0  0.12445  0.88854  0.25408  1.0000
  O   O9        1.0  0.07937  0.86839  0.12562  1.0000
  O   O10       1.0  0.07329  0.82251  0.15279  1.0000
  C   C30       1.0  0.88649  0.17727  0.34522  1.0000
  C   C31       1.0  0.87397  0.16027  0.29951  1.0000
  C   C32       1.0  0.85772  0.17184  0.30232  1.0000
  H   H21       1.0  0.84887  0.15952  0.26854  1.0000
  C   C33       1.0  0.90332  0.16781  0.34518  1.0000
  C   C34       1.0  0.93721  0.15068  0.34591  1.0000
  C   C35       1.0  0.92938  0.15998  0.26448  1.0000
  C   C36       1.0  0.91262  0.16820  0.26510  1.0000
  H   H22       1.0  0.90721  0.17509  0.20601  1.0000
  N   N11       1.0  0.93849  0.16102  0.18324  1.0000
  N   N12       1.0  0.87692  0.13279  0.25454  1.0000
  H   H23       1.0  0.86820  0.12125  0.22459  1.0000
  H   H24       1.0  0.88764  0.12310  0.25346  1.0000
  O   O11       1.0  0.93281  0.14239  0.12518  1.0000
  O   O12       1.0  0.93883  0.18842  0.15060  1.0000
  C   C37       1.0  0.51214  0.26356  0.34410  1.0000
  C   C38       1.0  0.49674  0.26313  0.29988  1.0000
  C   C39       1.0  0.48694  0.29072  0.30229  1.0000
  H   H25       1.0  0.47593  0.29031  0.26973  1.0000
  C   C40       1.0  0.52276  0.23685  0.34650  1.0000
  C   C41       1.0  0.54259  0.18149  0.35060  1.0000
  C   C42       1.0  0.54004  0.19790  0.26813  1.0000
  C   C43       1.0  0.53032  0.22556  0.26737  1.0000
  H   H26       1.0  0.52833  0.23699  0.20745  1.0000
  N   N13       1.0  0.54676  0.18581  0.18703  1.0000
  N   N14       1.0  0.49080  0.23707  0.25710  1.0000
  H   H27       1.0  0.48012  0.23718  0.22849  1.0000
  H   H28       1.0  0.49666  0.21713  0.25662  1.0000
  O   O13       1.0  0.53584  0.17876  0.13104  1.0000
  O   O14       1.0  0.55634  0.20528  0.15121  1.0000
  C   C44       1.0  0.50051  0.74991  0.34325  1.0000
  C   C45       1.0  0.51604  0.75038  0.30048  1.0000
  C   C46       1.0  0.52579  0.72272  0.30303  1.0000
  H   H29       1.0  0.53690  0.72315  0.27152  1.0000
  C   C47       1.0  0.48992  0.77668  0.34559  1.0000
  C   C48       1.0  0.47003  0.83191  0.35004  1.0000
  C   C49       1.0  0.47286  0.81595  0.26715  1.0000
  C   C50       1.0  0.48262  0.78834  0.26619  1.0000
  H   H30       1.0  0.48480  0.77722  0.20601  1.0000
  N   N15       1.0  0.46638  0.82846  0.18595  1.0000
  N   N16       1.0  0.52215  0.77655  0.25898  1.0000
  H   H31       1.0  0.53290  0.77644  0.23117  1.0000
  H   H32       1.0  0.51631  0.79650  0.25831  1.0000
  O   O15       1.0  0.47748  0.83596  0.13151  1.0000
  O   O16       1.0  0.45698  0.80912  0.14820  1.0000
  C   C51       1.0  0.02041  0.81875  0.34404  1.0000
  C   C52       1.0  0.00506  0.81878  0.29959  1.0000
  C   C53       1.0  0.99520  0.79131  0.30153  1.0000
  C   C54       1.0  0.98660  0.72059  0.26302  1.0000
  C   C55       1.0  0.97694  0.69286  0.25947  1.0000
  H   H33       1.0  0.99213  0.72856  0.20532  1.0000
  H   H34       1.0  0.98420  0.79175  0.26875  1.0000
  N   N17       1.0  0.97515  0.67803  0.17846  1.0000
  H   H35       1.0  0.98019  0.68629  0.12385  1.0000
  H   H36       1.0  0.96836  0.65937  0.17155  1.0000
  N   N18       1.0  0.99991  0.84571  0.25049  1.0000
  O   O17       1.0  0.98677  0.85665  0.28087  1.0000
  O   O18       1.0  0.99818  0.83971  0.16798  1.0000
  C   C56       1.0  0.99151  0.19456  0.34463  1.0000
  C   C57       1.0  0.00701  0.19447  0.30172  1.0000
  C   C58       1.0  0.01680  0.22202  0.30372  1.0000
  C   C59       1.0  0.02545  0.29249  0.26350  1.0000
  C   C60       1.0  0.03514  0.32017  0.25974  1.0000
  H   H37       1.0  0.02008  0.28425  0.20561  1.0000
  H   H38       1.0  0.02790  0.22154  0.27204  1.0000
  N   N19       1.0  0.03718  0.33460  0.17832  1.0000
  H   H39       1.0  0.03231  0.32608  0.12358  1.0000
  H   H40       1.0  0.04400  0.35322  0.17130  1.0000
  N   N20       1.0  0.01239  0.16739  0.25406  1.0000
  O   O19       1.0  0.02544  0.15667  0.28622  1.0000
  O   O20       1.0  0.01440  0.17307  0.17155  1.0000
  C   C61       1.0  0.31022  0.12423  0.33768  1.0000
  C   C62       1.0  0.32233  0.10591  0.29289  1.0000
  C   C63       1.0  0.32104  0.07246  0.29375  1.0000
  H   H41       1.0  0.32990  0.05971  0.26132  1.0000
  C   C64       1.0  0.31081  0.15820  0.34163  1.0000
  C   C65       1.0  0.31430  0.22586  0.34752  1.0000
  C   C66       1.0  0.31070  0.21019  0.26499  1.0000
  C   C67       1.0  0.30895  0.17681  0.26323  1.0000
  H   H42       1.0  0.30662  0.16587  0.20294  1.0000
  N   N21       1.0  0.30934  0.22813  0.18457  1.0000
  N   N22       1.0  0.33549  0.11911  0.25136  1.0000
  H   H43       1.0  0.34379  0.10612  0.22247  1.0000
  H   H44       1.0  0.33747  0.14173  0.25212  1.0000
  O   O21       1.0  0.31995  0.22021  0.12768  1.0000
  O   O22       1.0  0.29548  0.22516  0.14955  1.0000
  C   C68       1.0  0.70200  0.88777  0.33808  1.0000
  C   C69       1.0  0.68988  0.90608  0.29328  1.0000
  C   C70       1.0  0.69117  0.93953  0.29413  1.0000
  H   H45       1.0  0.68231  0.95227  0.26171  1.0000
  C   C71       1.0  0.70140  0.85380  0.34211  1.0000
  C   C72       1.0  0.69789  0.78614  0.34811  1.0000
  C   C73       1.0  0.70158  0.80178  0.26564  1.0000
  C   C74       1.0  0.70333  0.83516  0.26382  1.0000
  H   H46       1.0  0.70571  0.84608  0.20355  1.0000
  N   N23       1.0  0.70301  0.78381  0.18531  1.0000
  N   N24       1.0  0.67673  0.89286  0.25170  1.0000
  H   H47       1.0  0.66845  0.90583  0.22262  1.0000
  H   H48       1.0  0.67479  0.87023  0.25223  1.0000
  O   O23       1.0  0.69246  0.79172  0.12810  1.0000
  O   O24       1.0  0.71690  0.78676  0.15067  1.0000
  C   C75       1.0  0.20397  0.55592  0.35341  1.0000
  C   C76       1.0  0.21605  0.57444  0.30958  1.0000
  C   C77       1.0  0.21487  0.60799  0.30985  1.0000
  C   C78       1.0  0.19802  0.67413  0.26784  1.0000
  C   C79       1.0  0.19613  0.70749  0.26337  1.0000
  H   H49       1.0  0.19644  0.66095  0.21049  1.0000
  H   H50       1.0  0.22364  0.62078  0.27684  1.0000
  N   N25       1.0  0.19261  0.72074  0.18188  1.0000
  H   H51       1.0  0.19148  0.70789  0.12772  1.0000
  H   H52       1.0  0.19140  0.74343  0.17437  1.0000
  N   N26       1.0  0.22881  0.55911  0.26259  1.0000
  O   O25       1.0  0.24250  0.56654  0.29407  1.0000
  O   O26       1.0  0.22854  0.56550  0.17979  1.0000
  C   C80       1.0  0.80828  0.45609  0.35298  1.0000
  C   C81       1.0  0.79618  0.43758  0.30923  1.0000
  C   C82       1.0  0.79736  0.40403  0.30948  1.0000
  C   C83       1.0  0.81429  0.33791  0.26740  1.0000
  C   C84       1.0  0.81619  0.30455  0.26290  1.0000
  H   H53       1.0  0.81594  0.35112  0.21016  1.0000
  H   H54       1.0  0.78859  0.39125  0.27649  1.0000
  N   N27       1.0  0.81979  0.29133  0.18147  1.0000
  H   H55       1.0  0.82095  0.30420  0.12737  1.0000
  H   H56       1.0  0.82099  0.26864  0.17389  1.0000
  N   N28       1.0  0.78342  0.45292  0.26232  1.0000
  O   O27       1.0  0.76973  0.44550  0.29388  1.0000
  O   O28       1.0  0.78368  0.44653  0.17951  1.0000
  C   C85       1.0  0.25581  0.40301  0.34242  1.0000
  C   C86       1.0  0.24076  0.39618  0.29866  1.0000
  C   C87       1.0  0.22812  0.41910  0.30004  1.0000
  H   H57       1.0  0.21740  0.41369  0.26817  1.0000
  C   C88       1.0  0.26921  0.38104  0.34485  1.0000
  C   C89       1.0  0.29513  0.33512  0.34813  1.0000
  C   C90       1.0  0.29076  0.35063  0.26647  1.0000
  C   C91       1.0  0.27792  0.37314  0.26587  1.0000
  H   H58       1.0  0.27483  0.38381  0.20623  1.0000
  N   N29       1.0  0.29913  0.34294  0.18576  1.0000
  N   N30       1.0  0.23780  0.36801  0.25725  1.0000
  H   H59       1.0  0.22735  0.36356  0.22883  1.0000
  H   H60       1.0  0.24572  0.35097  0.25724  1.0000
  O   O29       1.0  0.28966  0.33152  0.12762  1.0000
  O   O30       1.0  0.30612  0.36671  0.15279  1.0000
  C   C92       1.0  0.75644  0.60902  0.34244  1.0000
  C   C93       1.0  0.77149  0.61587  0.29868  1.0000
  C   C94       1.0  0.78413  0.59294  0.29995  1.0000
  H   H61       1.0  0.79485  0.59836  0.26808  1.0000
  C   C95       1.0  0.74304  0.63099  0.34497  1.0000
  C   C96       1.0  0.71711  0.67690  0.34850  1.0000
  C   C97       1.0  0.72149  0.66145  0.26674  1.0000
  C   C98       1.0  0.73433  0.63895  0.26603  1.0000
  H   H62       1.0  0.73742  0.62833  0.20633  1.0000
  N   N31       1.0  0.71312  0.66920  0.18609  1.0000
  N   N32       1.0  0.77445  0.64405  0.25736  1.0000
  H   H63       1.0  0.78489  0.64850  0.22881  1.0000
  H   H64       1.0  0.76652  0.66108  0.25730  1.0000
  O   O31       1.0  0.72258  0.68066  0.12801  1.0000
  O   O32       1.0  0.70613  0.64545  0.15298  1.0000
  C   C99       1.0  0.28262  0.94896  0.34808  1.0000
  C   C100      1.0  0.26750  0.95558  0.30513  1.0000
  C   C101      1.0  0.25479  0.93271  0.30561  1.0000
  C   C102      1.0  0.23839  0.86578  0.26541  1.0000
  C   C103      1.0  0.22568  0.84295  0.26219  1.0000
  H   H65       1.0  0.24464  0.87111  0.20752  1.0000
  H   H66       1.0  0.24408  0.93802  0.27352  1.0000
  N   N33       1.0  0.22208  0.82946  0.18113  1.0000
  H   H67       1.0  0.22799  0.83517  0.12654  1.0000
  H   H68       1.0  0.21342  0.81398  0.17450  1.0000
  N   N34       1.0  0.26548  0.98458  0.25890  1.0000
  O   O33       1.0  0.25394  0.00044  0.29146  1.0000
  O   O34       1.0  0.26294  0.98038  0.17613  1.0000
  C   C104      1.0  0.72958  0.06306  0.34827  1.0000
  C   C105      1.0  0.74469  0.05643  0.30529  1.0000
  C   C106      1.0  0.75740  0.07930  0.30567  1.0000
  C   C107      1.0  0.77382  0.14619  0.26520  1.0000
  C   C108      1.0  0.78653  0.16902  0.26186  1.0000
  H   H69       1.0  0.76756  0.14083  0.20734  1.0000
  H   H70       1.0  0.76811  0.07398  0.27359  1.0000
  N   N35       1.0  0.79012  0.18245  0.18073  1.0000
  H   H71       1.0  0.78421  0.17670  0.12616  1.0000
  H   H72       1.0  0.79878  0.19793  0.17402  1.0000
  N   N36       1.0  0.74672  0.02741  0.25915  1.0000
  O   O35       1.0  0.75826  0.01157  0.29173  1.0000
  O   O36       1.0  0.74925  0.03158  0.17636  1.0000
  C   C109      1.0  0.13799  0.43805  0.34236  1.0000
  C   C110      1.0  0.14159  0.46749  0.30033  1.0000
  C   C111      1.0  0.15784  0.47880  0.30250  1.0000
  H   H73       1.0  0.16034  0.49996  0.27182  1.0000
  C   C112      1.0  0.12193  0.42518  0.34542  1.0000
  C   C113      1.0  0.08907  0.40319  0.35017  1.0000
  C   C114      1.0  0.09794  0.40304  0.26780  1.0000
  C   C115      1.0  0.11428  0.41382  0.26665  1.0000
  H   H74       1.0  0.12050  0.41419  0.20673  1.0000
  N   N37       1.0  0.09016  0.39319  0.18712  1.0000
  N   N38       1.0  0.13000  0.48568  0.25991  1.0000
  H   H75       1.0  0.13271  0.50595  0.23263  1.0000
  H   H76       1.0  0.11859  0.47967  0.25925  1.0000
  O   O37       1.0  0.08956  0.41514  0.13005  1.0000
  O   O38       1.0  0.09731  0.36990  0.15251  1.0000
  C   C116      1.0  0.87427  0.57397  0.34203  1.0000
  C   C117      1.0  0.87069  0.54442  0.30058  1.0000
  C   C118      1.0  0.85444  0.53312  0.30266  1.0000
  H   H77       1.0  0.85196  0.51188  0.27238  1.0000
  C   C119      1.0  0.89033  0.58691  0.34500  1.0000
  C   C120      1.0  0.92310  0.60936  0.35007  1.0000
  C   C121      1.0  0.91440  0.60863  0.26719  1.0000
  C   C122      1.0  0.89809  0.59766  0.26589  1.0000
  H   H78       1.0  0.89199  0.59671  0.20566  1.0000
  N   N39       1.0  0.92231  0.61782  0.18626  1.0000
  N   N40       1.0  0.88230  0.52610  0.26085  1.0000
  H   H79       1.0  0.87960  0.50577  0.23389  1.0000
  H   H80       1.0  0.89372  0.53207  0.26037  1.0000
  O   O39       1.0  0.92309  0.59534  0.13096  1.0000
  O   O40       1.0  0.91516  0.64068  0.14944  1.0000
  C   C123      1.0  0.34151  0.96205  0.34640  1.0000
  C   C124      1.0  0.34527  0.93268  0.30472  1.0000
  C   C125      1.0  0.36150  0.92124  0.30617  1.0000
  C   C126      1.0  0.39918  0.92475  0.26419  1.0000
  C   C127      1.0  0.41556  0.91421  0.26032  1.0000
  H   H81       1.0  0.39374  0.93324  0.20683  1.0000
  H   H82       1.0  0.36401  0.90016  0.27502  1.0000
  N   N41       1.0  0.42341  0.91524  0.17936  1.0000
  H   H83       1.0  0.41797  0.92273  0.12504  1.0000
  H   H84       1.0  0.43452  0.90770  0.17221  1.0000
  N   N42       1.0  0.33297  0.91562  0.25867  1.0000
  O   O41       1.0  0.33095  0.88862  0.29218  1.0000
  O   O42       1.0  0.33615  0.91279  0.17608  1.0000
  C   C128      1.0  0.67068  0.04995  0.34674  1.0000
  C   C129      1.0  0.66695  0.07942  0.30558  1.0000
  C   C130      1.0  0.65072  0.09087  0.30704  1.0000
  C   C131      1.0  0.61318  0.08817  0.26414  1.0000
  C   C132      1.0  0.59684  0.09894  0.26008  1.0000
  H   H85       1.0  0.61869  0.08010  0.20652  1.0000
  H   H86       1.0  0.64823  0.11204  0.27633  1.0000
  N   N43       1.0  0.58913  0.09869  0.17864  1.0000
  H   H87       1.0  0.59466  0.09162  0.12412  1.0000
  H   H88       1.0  0.57806  0.10643  0.17138  1.0000
  N   N44       1.0  0.67926  0.09660  0.26003  1.0000
  O   O43       1.0  0.68127  0.12351  0.29410  1.0000
  O   O44       1.0  0.67612  0.09963  0.17746  1.0000
  C   C133      1.0  0.97799  0.56991  0.34713  1.0000
  C   C134      1.0  0.97475  0.54126  0.30058  1.0000
  C   C135      1.0  0.98647  0.51678  0.30228  1.0000
  C   C136      1.0  0.02105  0.48701  0.26845  1.0000
  C   C137      1.0  0.03225  0.46161  0.26524  1.0000
  H   H89       1.0  0.01921  0.50055  0.21198  1.0000
  H   H90       1.0  0.98405  0.49624  0.26809  1.0000
  N   N45       1.0  0.04005  0.45565  0.18587  1.0000
  H   H91       1.0  0.03806  0.46846  0.13241  1.0000
  H   H92       1.0  0.04765  0.43822  0.17919  1.0000
  N   N46       1.0  0.96022  0.53774  0.24993  1.0000
  O   O45       1.0  0.95178  0.51502  0.27818  1.0000
  O   O46       1.0  0.96311  0.53374  0.16743  1.0000
  C   C138      1.0  0.51091  0.02006  0.34157  1.0000
  C   C139      1.0  0.50752  0.04862  0.29468  1.0000
  C   C140      1.0  0.51928  0.07302  0.29710  1.0000
  H   H93       1.0  0.51688  0.09356  0.26292  1.0000
  C   C141      1.0  0.49985  0.99435  0.34326  1.0000
  C   C142      1.0  0.47759  0.94320  0.34639  1.0000
  C   C143      1.0  0.48637  0.95014  0.26618  1.0000
  C   C144      1.0  0.49742  0.97575  0.26565  1.0000
  H   H94       1.0  0.50372  0.98083  0.20774  1.0000
  N   N47       1.0  0.48383  0.93175  0.18739  1.0000
  N   N48       1.0  0.49334  0.05372  0.24912  1.0000
  H   H95       1.0  0.49125  0.07363  0.21830  1.0000
  H   H96       1.0  0.48468  0.03811  0.24756  1.0000
  O   O47       1.0  0.47845  0.94826  0.12348  1.0000
  O   O48       1.0  0.49672  0.91836  0.16232  1.0000
  C   C145      1.0  0.45432  0.36706  0.34514  1.0000
  N   N49       1.0  0.46075  0.39682  0.34568  1.0000
  C   C146      1.0  0.47721  0.40139  0.34660  1.0000
  N   N50       1.0  0.48711  0.37564  0.34685  1.0000
  C   C147      1.0  0.48119  0.34559  0.34685  1.0000
  N   N51       1.0  0.46469  0.34199  0.34574  1.0000
  C   C148      1.0  0.55787  0.64527  0.34543  1.0000
  N   N52       1.0  0.55115  0.61574  0.34454  1.0000
  C   C149      1.0  0.53463  0.61129  0.34403  1.0000
  N   N53       1.0  0.52516  0.63771  0.34466  1.0000
  C   C150      1.0  0.53124  0.66759  0.34609  1.0000
  N   N54       1.0  0.54774  0.67069  0.34603  1.0000
  C   C151      1.0  0.05789  0.86706  0.34596  1.0000
  N   N55       1.0  0.05147  0.89682  0.34543  1.0000
  C   C152      1.0  0.03501  0.90138  0.34452  1.0000
  N   N56       1.0  0.02511  0.87563  0.34428  1.0000
  C   C153      1.0  0.03103  0.84558  0.34427  1.0000
  N   N57       1.0  0.04753  0.84199  0.34537  1.0000
  C   C154      1.0  0.95436  0.14527  0.34568  1.0000
  N   N58       1.0  0.96108  0.11574  0.34655  1.0000
  C   C155      1.0  0.97759  0.11129  0.34705  1.0000
  N   N59       1.0  0.98707  0.13772  0.34642  1.0000
  C   C156      1.0  0.98099  0.16759  0.34499  1.0000
  N   N60       1.0  0.96448  0.17069  0.34508  1.0000
  C   C157      1.0  0.31728  0.25914  0.34721  1.0000
  N   N61       1.0  0.30495  0.28075  0.34817  1.0000
  C   C158      1.0  0.30806  0.31244  0.34761  1.0000
  N   N62       1.0  0.32390  0.32214  0.34539  1.0000
  C   C159      1.0  0.33664  0.30135  0.34371  1.0000
  N   N63       1.0  0.33289  0.26995  0.34502  1.0000
  C   C160      1.0  0.69493  0.75286  0.34785  1.0000
  N   N64       1.0  0.70727  0.73127  0.34860  1.0000
  C   C161      1.0  0.70417  0.69957  0.34812  1.0000
  N   N65       1.0  0.68834  0.68984  0.34615  1.0000
  C   C162      1.0  0.67559  0.71061  0.34468  1.0000
  N   N66       1.0  0.67933  0.74201  0.34593  1.0000
  C   C163      1.0  0.19494  0.75915  0.34391  1.0000
  N   N67       1.0  0.20727  0.78075  0.34294  1.0000
  C   C164      1.0  0.20416  0.81244  0.34350  1.0000
  N   N68       1.0  0.18832  0.82215  0.34572  1.0000
  C   C165      1.0  0.17558  0.80136  0.34740  1.0000
  N   N69       1.0  0.17933  0.76996  0.34609  1.0000
  C   C166      1.0  0.81729  0.25286  0.34327  1.0000
  N   N70       1.0  0.80495  0.23126  0.34251  1.0000
  C   C167      1.0  0.80805  0.19957  0.34299  1.0000
  N   N71       1.0  0.82389  0.18984  0.34495  1.0000
  C   C168      1.0  0.83663  0.21060  0.34643  1.0000
  N   N72       1.0  0.83290  0.24201  0.34518  1.0000
  C   C169      1.0  0.04951  0.36220  0.34301  1.0000
  N   N73       1.0  0.06594  0.36689  0.34567  1.0000
  C   C170      1.0  0.07213  0.39680  0.34808  1.0000
  N   N74       1.0  0.06176  0.42182  0.34736  1.0000
  C   C171      1.0  0.04542  0.41733  0.34476  1.0000
  N   N75       1.0  0.03940  0.38754  0.34292  1.0000
  C   C172      1.0  0.96242  0.65111  0.34320  1.0000
  N   N76       1.0  0.94602  0.64615  0.34554  1.0000
  C   C173      1.0  0.94001  0.61614  0.34868  1.0000
  N   N77       1.0  0.95054  0.59140  0.34903  1.0000
  C   C174      1.0  0.96693  0.59575  0.34663  1.0000
  N   N78       1.0  0.97260  0.62588  0.34401  1.0000
  C   C175      1.0  0.46272  0.86220  0.34808  1.0000
  N   N79       1.0  0.44628  0.86689  0.34545  1.0000
  C   C176      1.0  0.44010  0.89680  0.34305  1.0000
  N   N80       1.0  0.45047  0.92183  0.34377  1.0000
  C   C177      1.0  0.46681  0.91733  0.34634  1.0000
  N   N81       1.0  0.47283  0.88754  0.34817  1.0000
  C   C178      1.0  0.54981  0.15112  0.34793  1.0000
  N   N82       1.0  0.56621  0.14616  0.34559  1.0000
  C   C179      1.0  0.57222  0.11615  0.34244  1.0000
  N   N83       1.0  0.56168  0.09141  0.34209  1.0000
  C   C180      1.0  0.54529  0.09576  0.34449  1.0000
  N   N84       1.0  0.53963  0.12589  0.34713  1.0000
  C   C181      1.0  0.20355  0.52185  0.35034  1.0000
  N   N85       1.0  0.21694  0.50251  0.34800  1.0000
  C   C182      1.0  0.21582  0.47017  0.34471  1.0000
  N   N86       1.0  0.20049  0.45773  0.34384  1.0000
  C   C183      1.0  0.18671  0.47555  0.34583  1.0000
  N   N87       1.0  0.18874  0.50737  0.34882  1.0000
  C   C184      1.0  0.80870  0.49016  0.34997  1.0000
  N   N88       1.0  0.79531  0.50951  0.34769  1.0000
  C   C185      1.0  0.79643  0.54184  0.34444  1.0000
  N   N89       1.0  0.81176  0.55428  0.34353  1.0000
  C   C186      1.0  0.82554  0.53646  0.34547  1.0000
  N   N90       1.0  0.82350  0.50464  0.34844  1.0000
  C   C187      1.0  0.30868  0.02184  0.34078  1.0000
  N   N91       1.0  0.29529  0.00250  0.34310  1.0000
  C   C188      1.0  0.29641  0.97016  0.34637  1.0000
  N   N92       1.0  0.31174  0.95772  0.34725  1.0000
  C   C189      1.0  0.32551  0.97554  0.34528  1.0000
  N   N93       1.0  0.32348  0.00736  0.34231  1.0000
  C   C190      1.0  0.70352  0.99016  0.34113  1.0000
  N   N94       1.0  0.71692  0.00951  0.34340  1.0000
  C   C191      1.0  0.71579  0.04184  0.34666  1.0000
  N   N95       1.0  0.70046  0.05428  0.34757  1.0000
  C   C192      1.0  0.68668  0.03646  0.34564  1.0000
  N   N96       1.0  0.68872  0.00464  0.34266  1.0000
  C   C193      1.0  0.52689  0.58078  0.34297  1.0000
  C   C194      1.0  0.53338  0.55382  0.38746  1.0000
  C   C195      1.0  0.52460  0.52487  0.38701  1.0000
  C   C196      1.0  0.49492  0.47890  0.42539  1.0000
  C   C197      1.0  0.48653  0.44952  0.42814  1.0000
  H   H97       1.0  0.49628  0.49165  0.48369  1.0000
  H   H98       1.0  0.52951  0.50579  0.41984  1.0000
  N   N97       1.0  0.48090  0.43905  0.50928  1.0000
  H   H99       1.0  0.48249  0.45127  0.56427  1.0000
  H   H100      1.0  0.47514  0.41910  0.51539  1.0000
  N   N98       1.0  0.54827  0.55643  0.43510  1.0000
  O   O49       1.0  0.55883  0.53782  0.40441  1.0000
  O   O50       1.0  0.54642  0.55113  0.51792  1.0000
  C   C198      1.0  0.00281  0.02153  0.34832  1.0000
  C   C199      1.0  0.00944  0.04839  0.39314  1.0000
  C   C200      1.0  0.00060  0.07722  0.39193  1.0000
  H   H101      1.0  0.00554  0.09630  0.42462  1.0000
  C   C201      1.0  0.01088  0.99142  0.34656  1.0000
  C   C202      1.0  0.02773  0.93196  0.34445  1.0000
  C   C203      1.0  0.02104  0.94400  0.42604  1.0000
  C   C204      1.0  0.01282  0.97349  0.42610  1.0000
  H   H102      1.0  0.00815  0.98192  0.48549  1.0000
  N   N99       1.0  0.02273  0.92637  0.50685  1.0000
  N   N100      1.0  0.02418  0.04783  0.43535  1.0000
  H   H103      1.0  0.02860  0.06658  0.46452  1.0000
  H   H104      1.0  0.03108  0.02919  0.43513  1.0000
  O   O51       1.0  0.03060  0.94145  0.56544  1.0000
  O   O52       1.0  0.00909  0.91890  0.53904  1.0000
  C   C205      1.0  0.38652  0.33452  0.34459  1.0000
  C   C206      1.0  0.37403  0.35150  0.39066  1.0000
  C   C207      1.0  0.35777  0.33999  0.38790  1.0000
  H   H105      1.0  0.34894  0.35229  0.42194  1.0000
  C   C208      1.0  0.40335  0.34389  0.34472  1.0000
  C   C209      1.0  0.43722  0.36116  0.34445  1.0000
  C   C210      1.0  0.42943  0.35141  0.42554  1.0000
  C   C211      1.0  0.41268  0.34312  0.42470  1.0000
  H   H106      1.0  0.40728  0.33597  0.48358  1.0000
  N   N101      1.0  0.43855  0.35006  0.50670  1.0000
  N   N102      1.0  0.37704  0.37888  0.43600  1.0000
  H   H107      1.0  0.36833  0.39044  0.46606  1.0000
  H   H108      1.0  0.38777  0.38853  0.43700  1.0000
  O   O53       1.0  0.43284  0.36839  0.56548  1.0000
  O   O54       1.0  0.43893  0.32251  0.53831  1.0000
  C   C212      1.0  0.62574  0.67727  0.34588  1.0000
  C   C213      1.0  0.63826  0.66027  0.39160  1.0000
  C   C214      1.0  0.65451  0.67184  0.38880  1.0000
  H   H109      1.0  0.66336  0.65952  0.42258  1.0000
  C   C215      1.0  0.60891  0.66781  0.34592  1.0000
  C   C216      1.0  0.57502  0.65069  0.34520  1.0000
  C   C217      1.0  0.58284  0.65999  0.42663  1.0000
  C   C218      1.0  0.59961  0.66821  0.42600  1.0000
  H   H110      1.0  0.60502  0.67510  0.48509  1.0000
  N   N103      1.0  0.57373  0.66103  0.50785  1.0000
  N   N104      1.0  0.63530  0.63279  0.43658  1.0000
  H   H111      1.0  0.64403  0.62125  0.46654  1.0000
  H   H112      1.0  0.62458  0.62311  0.43767  1.0000
  O   O55       1.0  0.57942  0.64241  0.56592  1.0000
  O   O56       1.0  0.57340  0.68844  0.54049  1.0000
  C   C219      1.0  0.15893  0.81196  0.34924  1.0000
  C   C220      1.0  0.14639  0.79530  0.39544  1.0000
  C   C221      1.0  0.13015  0.80680  0.39378  1.0000
  C   C222      1.0  0.10089  0.85316  0.42664  1.0000
  C   C223      1.0  0.08417  0.86184  0.42847  1.0000
  H   H113      1.0  0.10747  0.85358  0.48540  1.0000
  H   H114      1.0  0.12135  0.79428  0.42738  1.0000
  N   N105      1.0  0.07744  0.87004  0.50919  1.0000
  H   H115      1.0  0.08387  0.87019  0.56444  1.0000
  H   H116      1.0  0.06607  0.87607  0.51470  1.0000
  N   N106      1.0  0.15026  0.76782  0.44569  1.0000
  O   O57       1.0  0.14271  0.74402  0.41697  1.0000
  O   O58       1.0  0.14722  0.77131  0.52822  1.0000
  C   C224      1.0  0.85328  0.19997  0.34808  1.0000
  C   C225      1.0  0.86586  0.21665  0.39391  1.0000
  C   C226      1.0  0.88209  0.20509  0.39216  1.0000
  C   C227      1.0  0.91132  0.15896  0.42573  1.0000
  C   C228      1.0  0.92805  0.15036  0.42779  1.0000
  H   H117      1.0  0.90476  0.15883  0.48457  1.0000
  H   H118      1.0  0.89092  0.21763  0.42553  1.0000
  N   N107      1.0  0.93480  0.14265  0.50883  1.0000
  H   H119      1.0  0.92839  0.14274  0.56411  1.0000
  H   H120      1.0  0.94619  0.13667  0.51454  1.0000
  N   N108      1.0  0.86204  0.24421  0.44393  1.0000
  O   O59       1.0  0.86960  0.26795  0.41484  1.0000
  O   O60       1.0  0.86511  0.24083  0.52645  1.0000
  C   C229      1.0  0.49181  0.31876  0.34709  1.0000
  C   C230      1.0  0.50716  0.31879  0.39154  1.0000
  C   C231      1.0  0.51702  0.29132  0.38961  1.0000
  C   C232      1.0  0.52562  0.22060  0.42812  1.0000
  C   C233      1.0  0.53528  0.19288  0.43167  1.0000
  H   H121      1.0  0.52009  0.22857  0.48581  1.0000
  H   H122      1.0  0.52802  0.29176  0.42239  1.0000
  N   N109      1.0  0.53708  0.17804  0.51269  1.0000
  H   H123      1.0  0.53203  0.18631  0.56729  1.0000
  H   H124      1.0  0.54387  0.15938  0.51960  1.0000
  N   N110      1.0  0.51231  0.34572  0.44064  1.0000
  O   O61       1.0  0.52545  0.35666  0.41026  1.0000
  O   O62       1.0  0.51404  0.33972  0.52315  1.0000
  C   C234      1.0  0.52072  0.69456  0.34647  1.0000
  C   C235      1.0  0.50522  0.69447  0.38937  1.0000
  C   C236      1.0  0.49542  0.72202  0.38737  1.0000
  C   C237      1.0  0.48677  0.79248  0.42760  1.0000
  C   C238      1.0  0.47708  0.82016  0.43135  1.0000
  H   H125      1.0  0.49213  0.78424  0.48548  1.0000
  H   H126      1.0  0.48432  0.72153  0.41904  1.0000
  N   N111      1.0  0.47504  0.83459  0.51277  1.0000
  H   H127      1.0  0.47991  0.82607  0.56752  1.0000
  H   H128      1.0  0.46822  0.85321  0.51980  1.0000
  N   N112      1.0  0.49983  0.66738  0.43702  1.0000
  O   O63       1.0  0.48678  0.65666  0.40485  1.0000
  O   O64       1.0  0.49782  0.67306  0.51952  1.0000
  C   C239      1.0  0.00008  0.76355  0.34703  1.0000
  C   C240      1.0  0.01548  0.76313  0.39126  1.0000
  C   C241      1.0  0.02528  0.79071  0.38883  1.0000
  H   H129      1.0  0.03629  0.79030  0.42140  1.0000
  C   C242      1.0  0.98946  0.73684  0.34464  1.0000
  C   C243      1.0  0.96964  0.68148  0.34056  1.0000
  C   C244      1.0  0.97218  0.69790  0.42302  1.0000
  C   C245      1.0  0.98190  0.72555  0.42377  1.0000
  H   H130      1.0  0.98389  0.73700  0.48369  1.0000
  N   N113      1.0  0.96545  0.68580  0.50412  1.0000
  N   N114      1.0  0.02142  0.73706  0.43404  1.0000
  H   H131      1.0  0.03210  0.73717  0.46265  1.0000
  H   H132      1.0  0.01556  0.71712  0.43452  1.0000
  O   O65       1.0  0.97637  0.67876  0.56012  1.0000
  O   O66       1.0  0.95588  0.70528  0.53991  1.0000
  C   C246      1.0  0.01172  0.24992  0.34785  1.0000
  C   C247      1.0  0.99618  0.25038  0.39063  1.0000
  C   C248      1.0  0.98644  0.22272  0.38807  1.0000
  H   H133      1.0  0.97533  0.22315  0.41959  1.0000
  C   C249      1.0  0.02230  0.27668  0.34551  1.0000
  C   C250      1.0  0.04220  0.33192  0.34106  1.0000
  C   C251      1.0  0.03937  0.31595  0.42394  1.0000
  C   C252      1.0  0.02961  0.28835  0.42490  1.0000
  H   H134      1.0  0.02742  0.27721  0.48509  1.0000
  N   N115      1.0  0.04585  0.32846  0.50513  1.0000
  N   N116      1.0  0.99008  0.27655  0.43213  1.0000
  H   H135      1.0  0.97933  0.27644  0.45996  1.0000
  H   H136      1.0  0.99591  0.29650  0.43281  1.0000
  O   O67       1.0  0.03475  0.33595  0.55960  1.0000
  O   O68       1.0  0.05525  0.30911  0.54288  1.0000
  C   C253      1.0  0.30825  0.05591  0.33772  1.0000
  C   C254      1.0  0.29617  0.07443  0.38152  1.0000
  C   C255      1.0  0.29735  0.10798  0.38125  1.0000
  C   C256      1.0  0.31421  0.17412  0.42327  1.0000
  C   C257      1.0  0.31609  0.20749  0.42775  1.0000
  H   H137      1.0  0.31579  0.16094  0.48062  1.0000
  H   H138      1.0  0.28858  0.12077  0.41424  1.0000
  N   N117      1.0  0.31961  0.22074  0.50923  1.0000
  H   H139      1.0  0.32074  0.20788  0.56338  1.0000
  H   H140      1.0  0.32082  0.24343  0.51674  1.0000
  N   N118      1.0  0.28341  0.05910  0.42849  1.0000
  O   O69       1.0  0.26972  0.06653  0.39698  1.0000
  O   O70       1.0  0.28368  0.06549  0.51130  1.0000
  C   C258      1.0  0.70395  0.95609  0.33812  1.0000
  C   C259      1.0  0.71604  0.93758  0.38188  1.0000
  C   C260      1.0  0.71486  0.90403  0.38164  1.0000
  C   C261      1.0  0.69793  0.83791  0.42370  1.0000
  C   C262      1.0  0.69603  0.80455  0.42822  1.0000
  H   H141      1.0  0.69629  0.85112  0.48095  1.0000
  H   H142      1.0  0.72363  0.89125  0.41464  1.0000
  N   N119      1.0  0.69244  0.79134  0.50965  1.0000
  H   H143      1.0  0.69128  0.80421  0.56375  1.0000
  H   H144      1.0  0.69124  0.76865  0.51722  1.0000
  N   N120      1.0  0.72881  0.95292  0.42881  1.0000
  O   O71       1.0  0.74249  0.94550  0.39726  1.0000
  O   O72       1.0  0.72854  0.94654  0.51161  1.0000
  C   C263      1.0  0.20200  0.62424  0.35344  1.0000
  C   C264      1.0  0.18989  0.60592  0.39824  1.0000
  C   C265      1.0  0.19119  0.57247  0.39739  1.0000
  H   H145      1.0  0.18233  0.55972  0.42982  1.0000
  C   C266      1.0  0.20141  0.65821  0.34948  1.0000
  C   C267      1.0  0.19791  0.72587  0.34360  1.0000
  C   C268      1.0  0.20152  0.71020  0.42613  1.0000
  C   C269      1.0  0.20327  0.67682  0.42788  1.0000
  H   H146      1.0  0.20560  0.66588  0.48818  1.0000
  N   N121      1.0  0.20288  0.72814  0.50654  1.0000
  N   N122      1.0  0.17673  0.61912  0.43978  1.0000
  H   H147      1.0  0.16844  0.60613  0.46868  1.0000
  H   H148      1.0  0.17476  0.64173  0.43902  1.0000
  O   O73       1.0  0.19228  0.72021  0.56345  1.0000
  O   O74       1.0  0.21674  0.72518  0.54153  1.0000
  C   C270      1.0  0.81023  0.38777  0.35302  1.0000
  C   C271      1.0  0.82235  0.40608  0.39782  1.0000
  C   C272      1.0  0.82106  0.43953  0.39696  1.0000
  H   H149      1.0  0.82992  0.45227  0.42938  1.0000
  C   C273      1.0  0.81082  0.35380  0.34900  1.0000
  C   C274      1.0  0.81433  0.28614  0.34301  1.0000
  C   C275      1.0  0.81064  0.30178  0.42548  1.0000
  C   C276      1.0  0.80889  0.33516  0.42729  1.0000
  H   H150      1.0  0.80651  0.34608  0.48756  1.0000
  N   N123      1.0  0.80922  0.28381  0.50581  1.0000
  N   N124      1.0  0.83550  0.39286  0.43939  1.0000
  H   H151      1.0  0.84378  0.40583  0.46847  1.0000
  H   H152      1.0  0.83744  0.37023  0.43887  1.0000
  O   O75       1.0  0.81977  0.29172  0.56301  1.0000
  O   O76       1.0  0.79533  0.28676  0.54045  1.0000
  C   C277      1.0  0.22961  0.44897  0.34298  1.0000
  C   C278      1.0  0.24472  0.45558  0.38599  1.0000
  C   C279      1.0  0.25743  0.43271  0.38552  1.0000
  C   C280      1.0  0.27383  0.36578  0.42569  1.0000
  C   C281      1.0  0.28654  0.34294  0.42892  1.0000
  H   H153      1.0  0.26758  0.37111  0.48359  1.0000
  H   H154      1.0  0.26814  0.43802  0.41762  1.0000
  N   N125      1.0  0.29014  0.32946  0.50998  1.0000
  H   H155      1.0  0.28423  0.33517  0.56457  1.0000
  H   H156      1.0  0.29880  0.31398  0.51661  1.0000
  N   N126      1.0  0.24675  0.48458  0.43223  1.0000
  O   O77       1.0  0.25828  0.50044  0.39971  1.0000
  O   O78       1.0  0.24928  0.48037  0.51501  1.0000
  C   C282      1.0  0.78264  0.56305  0.34281  1.0000
  C   C283      1.0  0.76753  0.55643  0.38582  1.0000
  C   C284      1.0  0.75482  0.57931  0.38544  1.0000
  C   C285      1.0  0.73841  0.64619  0.42590  1.0000
  C   C286      1.0  0.72570  0.66903  0.42925  1.0000
  H   H157      1.0  0.74466  0.64083  0.48376  1.0000
  H   H158      1.0  0.74411  0.57399  0.41755  1.0000
  N   N127      1.0  0.72210  0.68246  0.51038  1.0000
  H   H159      1.0  0.72801  0.67670  0.56494  1.0000
  H   H160      1.0  0.71344  0.69793  0.51709  1.0000
  N   N128      1.0  0.76551  0.52742  0.43198  1.0000
  O   O79       1.0  0.75397  0.51157  0.39944  1.0000
  O   O80       1.0  0.76298  0.53159  0.51478  1.0000
  C   C287      1.0  0.25641  0.90301  0.34868  1.0000
  C   C288      1.0  0.27147  0.89617  0.39243  1.0000
  C   C289      1.0  0.28411  0.91909  0.39104  1.0000
  H   H161      1.0  0.29483  0.91368  0.42289  1.0000
  C   C290      1.0  0.24302  0.88104  0.34626  1.0000
  C   C291      1.0  0.21709  0.83513  0.34298  1.0000
  C   C292      1.0  0.22146  0.85063  0.42465  1.0000
  C   C293      1.0  0.23431  0.87314  0.42524  1.0000
  H   H162      1.0  0.23739  0.88381  0.48488  1.0000
  N   N129      1.0  0.21309  0.84294  0.50535  1.0000
  N   N130      1.0  0.27442  0.86800  0.43383  1.0000
  H   H163      1.0  0.28487  0.86355  0.46223  1.0000
  H   H164      1.0  0.26650  0.85096  0.43384  1.0000
  O   O81       1.0  0.22256  0.83152  0.56349  1.0000
  O   O82       1.0  0.20611  0.86671  0.53832  1.0000
  C   C294      1.0  0.75578  0.10902  0.34866  1.0000
  C   C295      1.0  0.74073  0.11587  0.39241  1.0000
  C   C296      1.0  0.72809  0.09294  0.39112  1.0000
  H   H165      1.0  0.71737  0.09837  0.42299  1.0000
  C   C297      1.0  0.76918  0.13099  0.34613  1.0000
  C   C298      1.0  0.79511  0.17690  0.34261  1.0000
  C   C299      1.0  0.79073  0.16145  0.42437  1.0000
  C   C300      1.0  0.77789  0.13895  0.42507  1.0000
  H   H166      1.0  0.77480  0.12832  0.48478  1.0000
  N   N131      1.0  0.79911  0.16920  0.50503  1.0000
  N   N132      1.0  0.73777  0.14406  0.43372  1.0000
  H   H167      1.0  0.72733  0.14850  0.46226  1.0000
  H   H168      1.0  0.74570  0.16108  0.43379  1.0000
  O   O83       1.0  0.78964  0.18066  0.56309  1.0000
  O   O84       1.0  0.80609  0.14545  0.53813  1.0000
  C   C301      1.0  0.17072  0.46206  0.34472  1.0000
  C   C302      1.0  0.16696  0.43269  0.38639  1.0000
  C   C303      1.0  0.15073  0.42124  0.38494  1.0000
  C   C304      1.0  0.11305  0.42475  0.42695  1.0000
  C   C305      1.0  0.09667  0.41421  0.43082  1.0000
  H   H169      1.0  0.11850  0.43323  0.48430  1.0000
  H   H170      1.0  0.14822  0.40016  0.41608  1.0000
  N   N133      1.0  0.08882  0.41523  0.51178  1.0000
  H   H171      1.0  0.09427  0.42272  0.56610  1.0000
  H   H172      1.0  0.07771  0.40769  0.51893  1.0000
  N   N134      1.0  0.17926  0.41563  0.43244  1.0000
  O   O85       1.0  0.18128  0.38863  0.39891  1.0000
  O   O86       1.0  0.17608  0.41279  0.51501  1.0000
  C   C306      1.0  0.84154  0.54995  0.34437  1.0000
  C   C307      1.0  0.84528  0.57942  0.38552  1.0000
  C   C308      1.0  0.86151  0.59087  0.38407  1.0000
  C   C309      1.0  0.89905  0.58817  0.42697  1.0000
  C   C310      1.0  0.91539  0.59894  0.43103  1.0000
  H   H173      1.0  0.89353  0.58011  0.48459  1.0000
  H   H174      1.0  0.86400  0.61204  0.41477  1.0000
  N   N135      1.0  0.92309  0.59870  0.51248  1.0000
  H   H175      1.0  0.91756  0.59163  0.56700  1.0000
  H   H176      1.0  0.93416  0.60643  0.51973  1.0000
  N   N136      1.0  0.83296  0.59660  0.43107  1.0000
  O   O87       1.0  0.83095  0.62351  0.39700  1.0000
  O   O88       1.0  0.83610  0.59963  0.51364  1.0000
  C   C311      1.0  0.37423  0.93804  0.34876  1.0000
  C   C312      1.0  0.37063  0.96748  0.39079  1.0000
  C   C313      1.0  0.35438  0.97879  0.38863  1.0000
  H   H177      1.0  0.35189  0.99995  0.41931  1.0000
  C   C314      1.0  0.39030  0.92517  0.34571  1.0000
  C   C315      1.0  0.42316  0.90319  0.34098  1.0000
  C   C316      1.0  0.41429  0.90303  0.42334  1.0000
  C   C317      1.0  0.39795  0.91381  0.42448  1.0000
  H   H178      1.0  0.39172  0.91417  0.48440  1.0000
  N   N137      1.0  0.42207  0.89318  0.50401  1.0000
  N   N138      1.0  0.38222  0.98567  0.43122  1.0000
  H   H179      1.0  0.37951  0.00593  0.45851  1.0000
  H   H180      1.0  0.39364  0.97966  0.43189  1.0000
  O   O89       1.0  0.42266  0.91512  0.56110  1.0000
  O   O90       1.0  0.41492  0.86989  0.53861  1.0000
  C   C318      1.0  0.63795  0.07397  0.34908  1.0000
  C   C319      1.0  0.64153  0.04442  0.39053  1.0000
  C   C320      1.0  0.65779  0.03312  0.38845  1.0000
  H   H181      1.0  0.66026  0.01188  0.41873  1.0000
  C   C321      1.0  0.62189  0.08691  0.34611  1.0000
  C   C322      1.0  0.58912  0.10936  0.34105  1.0000
  C   C323      1.0  0.59782  0.10863  0.42392  1.0000
  C   C324      1.0  0.61413  0.09767  0.42522  1.0000
  H   H182      1.0  0.62024  0.09672  0.48545  1.0000
  N   N139      1.0  0.58992  0.11783  0.50484  1.0000
  N   N140      1.0  0.62992  0.02610  0.43027  1.0000
  H   H183      1.0  0.63262  0.00577  0.45723  1.0000
  H   H184      1.0  0.61850  0.03207  0.43076  1.0000
  O   O91       1.0  0.58914  0.09535  0.56017  1.0000
  O   O92       1.0  0.59707  0.14070  0.54166  1.0000
  C   C325      1.0  0.00131  0.52005  0.34953  1.0000
  C   C326      1.0  0.00471  0.54861  0.39645  1.0000
  C   C327      1.0  0.99294  0.57301  0.39405  1.0000
  H   H185      1.0  0.99534  0.59355  0.42825  1.0000
  C   C328      1.0  0.01238  0.49435  0.34784  1.0000
  C   C329      1.0  0.03464  0.44321  0.34472  1.0000
  C   C330      1.0  0.02587  0.45016  0.42494  1.0000
  C   C331      1.0  0.01482  0.47576  0.42547  1.0000
  H   H186      1.0  0.00852  0.48085  0.48339  1.0000
  N   N141      1.0  0.02842  0.43179  0.50375  1.0000
  N   N142      1.0  0.01888  0.55371  0.44201  1.0000
  H   H187      1.0  0.02098  0.57364  0.47274  1.0000
  H   H188      1.0  0.02756  0.53813  0.44344  1.0000
  O   O93       1.0  0.03381  0.44831  0.56762  1.0000
  O   O94       1.0  0.01553  0.41839  0.52887  1.0000
  C   C332      1.0  0.53423  0.06992  0.34401  1.0000
  C   C333      1.0  0.53748  0.04127  0.39052  1.0000
  C   C334      1.0  0.52576  0.01678  0.38880  1.0000
  C   C335      1.0  0.49117  0.98703  0.42262  1.0000
  C   C336      1.0  0.47997  0.96163  0.42583  1.0000
  H   H189      1.0  0.49300  0.00058  0.47908  1.0000
  H   H190      1.0  0.52818  0.99624  0.42298  1.0000
  N   N143      1.0  0.47217  0.95568  0.50520  1.0000
  H   H191      1.0  0.47415  0.96849  0.55865  1.0000
  H   H192      1.0  0.46457  0.93823  0.51190  1.0000
  N   N144      1.0  0.55201  0.03774  0.44116  1.0000
  O   O95       1.0  0.56045  0.01502  0.41287  1.0000
  O   O96       1.0  0.54912  0.03373  0.52365  1.0000
