data_image0
_chemical_formula_structural       CNC2NC4NC18H14C2NC16H12C3NC2NC5NC4NC18H14CNC16H12C11H11CNCNC4NC16H13CNC2H2CO2HCNC2H2CO2HCNC2H2CO2HCNC2H2CO2HCNC2H2CO2HCNC2H2CO2HCNC2H2CO2HCNC2H2CO2HCNC2H2CO2HCNC2H2CO2HCNC2H2CO2HCNC2H2CO2HC7NC12H12C2NC3NC3NC18H14C12H12C3NC3NC3NC18H14C3NC3NC2NC5NC20H15C8NC14H13C4HC3NHCO2HC4HC3NHCO2HC4HC3NHCO2HC4HC3NHCO2HC4HC3NHCO2HC4HC3NHCO2HC4HC3NHCO2HC4HC3NHCO2HC4HC3NHCO2HC4HC3NHCO2HC4HC3NHCO2HC4HC3NHCO2H
_chemical_formula_sum              "C408 N48 H228 O48"
_cell_length_a       68.546
_cell_length_b       68.546
_cell_length_c       14.9786
_cell_angle_alpha    90.0014
_cell_angle_beta     89.9712
_cell_angle_gamma    120

_space_group_name_H-M_alt    "P 1"
_space_group_IT_number       1

loop_
  _space_group_symop_operation_xyz
  'x, y, z'

loop_
  _atom_site_type_symbol
  _atom_site_label
  _atom_site_symmetry_multiplicity
  _atom_site_fract_x
  _atom_site_fract_y
  _atom_site_fract_z
  _atom_site_occupancy
  C   C1        1.0  0.27529  0.51240  0.31431  1.0000
  N   N1        1.0  0.26801  0.47780  0.33768  1.0000
  C   C2        1.0  0.29070  0.49033  0.32899  1.0000
  C   C3        1.0  0.30718  0.48363  0.33717  1.0000
  N   N2        1.0  0.28184  0.44213  0.33715  1.0000
  C   C4        1.0  0.28338  0.42331  0.34517  1.0000
  C   C5        1.0  0.30617  0.43061  0.35903  1.0000
  C   C6        1.0  0.31781  0.45385  0.35800  1.0000
  C   C7        1.0  0.26571  0.40057  0.33805  1.0000
  N   N3        1.0  0.23242  0.40657  0.33885  1.0000
  C   C8        1.0  0.20969  0.39409  0.33088  1.0000
  C   C9        1.0  0.22508  0.37200  0.31439  1.0000
  C   C10       1.0  0.21712  0.46124  0.34761  1.0000
  C   C11       1.0  0.23482  0.48392  0.34114  1.0000
  C   C12       1.0  0.22917  0.50133  0.34573  1.0000
  C   C13       1.0  0.21825  0.50530  0.27400  1.0000
  C   C14       1.0  0.21399  0.52336  0.27708  1.0000
  C   C15       1.0  0.22074  0.53820  0.35120  1.0000
  C   C16       1.0  0.15858  0.37686  0.25504  1.0000
  C   C17       1.0  0.13519  0.36189  0.25313  1.0000
  C   C18       1.0  0.27188  0.38351  0.33621  1.0000
  C   C19       1.0  0.28777  0.35199  0.33875  1.0000
  C   C20       1.0  0.29199  0.36653  0.26493  1.0000
  C   C21       1.0  0.28404  0.38188  0.26321  1.0000
  C   C22       1.0  0.33023  0.50087  0.33876  1.0000
  C   C23       1.0  0.34215  0.51005  0.25854  1.0000
  C   C24       1.0  0.36433  0.52837  0.26054  1.0000
  C   C25       1.0  0.37526  0.53800  0.34249  1.0000
  H   H1        1.0  0.37209  0.53518  0.20102  1.0000
  H   H2        1.0  0.33451  0.50394  0.19819  1.0000
  H   H3        1.0  0.27394  0.52646  0.30541  1.0000
  H   H4        1.0  0.26024  0.46221  0.35519  1.0000
  H   H5        1.0  0.24022  0.42213  0.35695  1.0000
  H   H6        1.0  0.33484  0.46369  0.36585  1.0000
  H   H7        1.0  0.31345  0.42088  0.36802  1.0000
  H   H8        1.0  0.28795  0.39250  0.20971  1.0000
  H   H9        1.0  0.30177  0.36685  0.21274  1.0000
  H   H10       1.0  0.22644  0.35797  0.30474  1.0000
  H   H11       1.0  0.16705  0.38301  0.19613  1.0000
  H   H12       1.0  0.12740  0.35728  0.19231  1.0000
  H   H13       1.0  0.20589  0.52557  0.22405  1.0000
  H   H14       1.0  0.21357  0.49523  0.21856  1.0000
  C   C26       1.0  0.54534  0.76328  0.31275  1.0000
  C   C27       1.0  0.56738  0.80075  0.32821  1.0000
  N   N4        1.0  0.61552  0.84007  0.33757  1.0000
  C   C28       1.0  0.63433  0.86042  0.34579  1.0000
  C   C29       1.0  0.62702  0.87590  0.36003  1.0000
  C   C30       1.0  0.60378  0.86428  0.35913  1.0000
  C   C31       1.0  0.65706  0.86549  0.33845  1.0000
  C   C32       1.0  0.66358  0.81598  0.33141  1.0000
  C   C33       1.0  0.68565  0.85345  0.31481  1.0000
  C   C34       1.0  0.59642  0.75626  0.34793  1.0000
  C   C35       1.0  0.55241  0.71330  0.27441  1.0000
  C   C36       1.0  0.53434  0.69098  0.27754  1.0000
  C   C37       1.0  0.68079  0.78207  0.25550  1.0000
  C   C38       1.0  0.69578  0.77367  0.25358  1.0000
  C   C39       1.0  0.67412  0.88873  0.33659  1.0000
  C   C40       1.0  0.69107  0.92581  0.26525  1.0000
  C   C41       1.0  0.67572  0.90251  0.26362  1.0000
  C   C42       1.0  0.54764  0.83247  0.25888  1.0000
  C   C43       1.0  0.52932  0.83635  0.26090  1.0000
  H   H15       1.0  0.52257  0.83735  0.20137  1.0000
  H   H16       1.0  0.55380  0.83101  0.19853  1.0000
  H   H17       1.0  0.53126  0.74786  0.30441  1.0000
  H   H18       1.0  0.59393  0.87146  0.36711  1.0000
  H   H19       1.0  0.63674  0.89289  0.36917  1.0000
  H   H20       1.0  0.66508  0.89581  0.21024  1.0000
  H   H21       1.0  0.69071  0.93527  0.21318  1.0000
  H   H22       1.0  0.69969  0.86884  0.30528  1.0000
  H   H23       1.0  0.67465  0.78438  0.19659  1.0000
  H   H24       1.0  0.70039  0.77048  0.19274  1.0000
  H   H25       1.0  0.53219  0.68064  0.22469  1.0000
  H   H26       1.0  0.56254  0.71865  0.21908  1.0000
  C   C44       1.0  0.27428  0.76230  0.31278  1.0000
  C   C45       1.0  0.29441  0.78240  0.31327  1.0000
  C   C46       1.0  0.28981  0.79975  0.33027  1.0000
  N   N5        1.0  0.26708  0.78967  0.33683  1.0000
  C   C47       1.0  0.25692  0.76698  0.32817  1.0000
  C   C48       1.0  0.23376  0.75050  0.33674  1.0000
  N   N6        1.0  0.21759  0.77582  0.33687  1.0000
  C   C49       1.0  0.19723  0.77429  0.34493  1.0000
  C   C50       1.0  0.18173  0.75149  0.35869  1.0000
  C   C51       1.0  0.19334  0.73986  0.35774  1.0000
  C   C52       1.0  0.19217  0.79196  0.33769  1.0000
  C   C53       1.0  0.20873  0.81516  0.33043  1.0000
  N   N7        1.0  0.23144  0.82527  0.33898  1.0000
  C   C54       1.0  0.24169  0.84800  0.33093  1.0000
  C   C55       1.0  0.22438  0.85273  0.31556  1.0000
  C   C56       1.0  0.20421  0.83261  0.31474  1.0000
  C   C57       1.0  0.26490  0.86441  0.33896  1.0000
  N   N8        1.0  0.28106  0.83903  0.33901  1.0000
  C   C58       1.0  0.30142  0.84055  0.34705  1.0000
  C   C59       1.0  0.30640  0.82284  0.34073  1.0000
  C   C60       1.0  0.32944  0.82847  0.34545  1.0000
  C   C61       1.0  0.34439  0.83945  0.27387  1.0000
  C   C62       1.0  0.36671  0.84370  0.27710  1.0000
  C   C63       1.0  0.37474  0.83689  0.35123  1.0000
  C   C64       1.0  0.27115  0.88760  0.33695  1.0000
  C   C65       1.0  0.27562  0.89913  0.25476  1.0000
  C   C66       1.0  0.28400  0.92251  0.25288  1.0000
  C   C67       1.0  0.28840  0.93511  0.33281  1.0000
  C   C68       1.0  0.16893  0.78579  0.33583  1.0000
  C   C69       1.0  0.12151  0.76986  0.33834  1.0000
  C   C70       1.0  0.13187  0.76570  0.26444  1.0000
  C   C71       1.0  0.15517  0.77365  0.26279  1.0000
  C   C72       1.0  0.22795  0.72744  0.33836  1.0000
  C   C73       1.0  0.22522  0.71554  0.25814  1.0000
  C   C74       1.0  0.22138  0.69336  0.26015  1.0000
  C   C75       1.0  0.22004  0.68241  0.34211  1.0000
  H   H27       1.0  0.22043  0.68561  0.20064  1.0000
  H   H28       1.0  0.22678  0.72319  0.19779  1.0000
  H   H29       1.0  0.30983  0.78374  0.30479  1.0000
  H   H30       1.0  0.25929  0.79742  0.35524  1.0000
  H   H31       1.0  0.23924  0.81742  0.35565  1.0000
  H   H32       1.0  0.18615  0.72282  0.36547  1.0000
  H   H33       1.0  0.16473  0.74420  0.36758  1.0000
  H   H34       1.0  0.16189  0.76976  0.20929  1.0000
  H   H35       1.0  0.12243  0.75591  0.21230  1.0000
  H   H36       1.0  0.18882  0.83126  0.30517  1.0000
  H   H37       1.0  0.27332  0.89068  0.19583  1.0000
  H   H38       1.0  0.28721  0.93031  0.19207  1.0000
  H   H39       1.0  0.37705  0.85184  0.22419  1.0000
  H   H40       1.0  0.33904  0.84417  0.21842  1.0000
  C   C76       1.0  0.78593  0.54837  0.32958  1.0000
  N   N9        1.0  0.79479  0.59657  0.33784  1.0000
  C   C77       1.0  0.79326  0.61539  0.34575  1.0000
  C   C78       1.0  0.77045  0.60809  0.35941  1.0000
  C   C79       1.0  0.75881  0.58485  0.35844  1.0000
  C   C80       1.0  0.81093  0.63812  0.33862  1.0000
  C   C81       1.0  0.86696  0.64462  0.33174  1.0000
  C   C82       1.0  0.85159  0.66673  0.31577  1.0000
  C   C83       1.0  0.85952  0.57744  0.34782  1.0000
  C   C84       1.0  0.85837  0.53336  0.27445  1.0000
  C   C85       1.0  0.86262  0.51530  0.27755  1.0000
  C   C86       1.0  0.91805  0.66183  0.25533  1.0000
  C   C87       1.0  0.94144  0.67682  0.25328  1.0000
  C   C88       1.0  0.80476  0.65519  0.33674  1.0000
  C   C89       1.0  0.78469  0.67218  0.26533  1.0000
  C   C90       1.0  0.79268  0.65686  0.26361  1.0000
  C   C91       1.0  0.73451  0.52865  0.25916  1.0000
  C   C92       1.0  0.71232  0.51033  0.26115  1.0000
  H   H41       1.0  0.70460  0.50352  0.20164  1.0000
  H   H42       1.0  0.74218  0.53475  0.19882  1.0000
  H   H43       1.0  0.80267  0.51220  0.30649  1.0000
  H   H44       1.0  0.74177  0.57501  0.36613  1.0000
  H   H45       1.0  0.76317  0.61782  0.36820  1.0000
  H   H46       1.0  0.78876  0.64623  0.21015  1.0000
  H   H47       1.0  0.77494  0.67186  0.21311  1.0000
  H   H48       1.0  0.85024  0.68078  0.30626  1.0000
  H   H49       1.0  0.90958  0.65568  0.19647  1.0000
  H   H50       1.0  0.94922  0.68142  0.19240  1.0000
  H   H51       1.0  0.87072  0.51309  0.22451  1.0000
  H   H52       1.0  0.86303  0.54341  0.21895  1.0000
  C   C93       1.0  0.44228  0.17825  0.34600  1.0000
  C   C94       1.0  0.44958  0.16275  0.35985  1.0000
  C   C95       1.0  0.47282  0.17435  0.35891  1.0000
  C   C96       1.0  0.52428  0.32538  0.27499  1.0000
  C   C97       1.0  0.54234  0.34770  0.27806  1.0000
  C   C98       1.0  0.39585  0.25660  0.25565  1.0000
  C   C99       1.0  0.38087  0.26501  0.25365  1.0000
  C   C100      1.0  0.38554  0.11291  0.26534  1.0000
  C   C101      1.0  0.40089  0.13620  0.26376  1.0000
  C   C102      1.0  0.52902  0.20621  0.25952  1.0000
  C   C103      1.0  0.54734  0.20235  0.26148  1.0000
  H   H53       1.0  0.55414  0.20140  0.20195  1.0000
  H   H54       1.0  0.52290  0.20775  0.19918  1.0000
  H   H55       1.0  0.54544  0.29085  0.30648  1.0000
  H   H56       1.0  0.48266  0.16716  0.36678  1.0000
  H   H57       1.0  0.41153  0.14293  0.21032  1.0000
  H   H58       1.0  0.38588  0.10347  0.21311  1.0000
  H   H59       1.0  0.37696  0.16986  0.30534  1.0000
  H   H60       1.0  0.40201  0.25428  0.19677  1.0000
  H   H61       1.0  0.37627  0.26818  0.19280  1.0000
  H   H62       1.0  0.54455  0.35800  0.22502  1.0000
  H   H63       1.0  0.51422  0.31999  0.21953  1.0000
  C   C104      1.0  0.78225  0.25625  0.31276  1.0000
  N   N10       1.0  0.80957  0.24898  0.33675  1.0000
  C   C105      1.0  0.81972  0.27168  0.32811  1.0000
  N   N11       1.0  0.85904  0.26286  0.33740  1.0000
  C   C106      1.0  0.87939  0.26439  0.34561  1.0000
  C   C107      1.0  0.89487  0.28718  0.35983  1.0000
  C   C108      1.0  0.88325  0.29881  0.35893  1.0000
  C   C109      1.0  0.88447  0.24674  0.33828  1.0000
  N   N12       1.0  0.84519  0.21343  0.33932  1.0000
  C   C110      1.0  0.83495  0.19071  0.33125  1.0000
  C   C111      1.0  0.87243  0.20611  0.31462  1.0000
  C   C112      1.0  0.77523  0.19815  0.34792  1.0000
  C   C113      1.0  0.77025  0.21584  0.34129  1.0000
  C   C114      1.0  0.73226  0.19919  0.27461  1.0000
  C   C115      1.0  0.70994  0.19495  0.27784  1.0000
  C   C116      1.0  0.70192  0.20182  0.35185  1.0000
  C   C117      1.0  0.80104  0.13959  0.25535  1.0000
  C   C118      1.0  0.79263  0.11621  0.25341  1.0000
  C   C119      1.0  0.90770  0.25292  0.33641  1.0000
  C   C120      1.0  0.95512  0.26883  0.33882  1.0000
  C   C121      1.0  0.94478  0.27305  0.26506  1.0000
  C   C122      1.0  0.92149  0.26510  0.26344  1.0000
  C   C123      1.0  0.84865  0.31122  0.33896  1.0000
  C   C124      1.0  0.85143  0.32315  0.25877  1.0000
  C   C125      1.0  0.85530  0.34534  0.26081  1.0000
  H   H64       1.0  0.85629  0.35310  0.20130  1.0000
  H   H65       1.0  0.84995  0.31553  0.19841  1.0000
  H   H66       1.0  0.76683  0.25491  0.30448  1.0000
  H   H67       1.0  0.81733  0.24131  0.35648  1.0000
  H   H68       1.0  0.89043  0.31583  0.36690  1.0000
  H   H69       1.0  0.91186  0.29445  0.36895  1.0000
  H   H70       1.0  0.91479  0.26905  0.21005  1.0000
  H   H71       1.0  0.95425  0.28288  0.21298  1.0000
  H   H72       1.0  0.88782  0.20747  0.30508  1.0000
  H   H73       1.0  0.80335  0.14806  0.19645  1.0000
  H   H74       1.0  0.78944  0.10842  0.19257  1.0000
  H   H75       1.0  0.69959  0.18677  0.22503  1.0000
  H   H76       1.0  0.73760  0.19443  0.21925  1.0000
  C   C126      1.0  0.22056  0.57031  0.27503  1.0000
  N   N13       1.0  0.21864  0.58902  0.27866  1.0000
  C   C127      1.0  0.20074  0.62158  0.28407  1.0000
  C   C128      1.0  0.20277  0.64319  0.28405  1.0000
  H   H77       1.0  0.19315  0.64636  0.24060  1.0000
  H   H78       1.0  0.22520  0.56650  0.21563  1.0000
  C   C129      1.0  0.18557  0.60488  0.22688  1.0000
  O   O1        1.0  0.18713  0.60917  0.14708  1.0000
  O   O2        1.0  0.16665  0.59043  0.25257  1.0000
  H   H79       1.0  0.16280  0.58676  0.30916  1.0000
  C   C130      1.0  0.48737  0.65063  0.27533  1.0000
  N   N14       1.0  0.46867  0.63000  0.27898  1.0000
  C   C131      1.0  0.43610  0.57955  0.28449  1.0000
  C   C132      1.0  0.41449  0.55996  0.28445  1.0000
  H   H80       1.0  0.41134  0.54717  0.24105  1.0000
  H   H81       1.0  0.49122  0.65905  0.21587  1.0000
  C   C133      1.0  0.45282  0.58108  0.22734  1.0000
  O   O3        1.0  0.44856  0.57834  0.14754  1.0000
  O   O4        1.0  0.46726  0.57661  0.25310  1.0000
  H   H82       1.0  0.47091  0.57644  0.30970  1.0000
  C   C134      1.0  0.40708  0.83712  0.27527  1.0000
  N   N15       1.0  0.42771  0.83905  0.27903  1.0000
  C   C135      1.0  0.47817  0.85697  0.28481  1.0000
  C   C136      1.0  0.49775  0.85493  0.28486  1.0000
  H   H83       1.0  0.51057  0.86459  0.24153  1.0000
  H   H84       1.0  0.39869  0.83253  0.21579  1.0000
  C   C137      1.0  0.47667  0.87217  0.22770  1.0000
  O   O5        1.0  0.47946  0.87067  0.14790  1.0000
  O   O6        1.0  0.48113  0.89107  0.25353  1.0000
  H   H85       1.0  0.48127  0.89488  0.31014  1.0000
  C   C138      1.0  0.85606  0.46835  0.27563  1.0000
  N   N16       1.0  0.85798  0.44965  0.27929  1.0000
  C   C139      1.0  0.87591  0.41710  0.28480  1.0000
  C   C140      1.0  0.87388  0.39549  0.28479  1.0000
  H   H86       1.0  0.88353  0.39233  0.24139  1.0000
  H   H87       1.0  0.85144  0.47216  0.21623  1.0000
  C   C141      1.0  0.89111  0.43381  0.22764  1.0000
  O   O7        1.0  0.88959  0.42954  0.14784  1.0000
  O   O8        1.0  0.91002  0.44826  0.25340  1.0000
  H   H88       1.0  0.91384  0.45192  0.31000  1.0000
  C   C142      1.0  0.58929  0.38807  0.27602  1.0000
  N   N17       1.0  0.60800  0.40870  0.27965  1.0000
  C   C143      1.0  0.64055  0.45917  0.28502  1.0000
  C   C144      1.0  0.66215  0.47875  0.28500  1.0000
  H   H89       1.0  0.66533  0.49155  0.24154  1.0000
  H   H90       1.0  0.58549  0.37964  0.21662  1.0000
  C   C145      1.0  0.62385  0.45763  0.22781  1.0000
  O   O9        1.0  0.62815  0.46038  0.14801  1.0000
  O   O10       1.0  0.60940  0.46210  0.25349  1.0000
  H   H91       1.0  0.60572  0.46227  0.31007  1.0000
  C   C146      1.0  0.66959  0.20156  0.27582  1.0000
  N   N18       1.0  0.64896  0.19964  0.27957  1.0000
  C   C147      1.0  0.59851  0.18175  0.28529  1.0000
  C   C148      1.0  0.57893  0.18377  0.28533  1.0000
  H   H92       1.0  0.56612  0.17413  0.24197  1.0000
  H   H93       1.0  0.67799  0.20613  0.21632  1.0000
  C   C149      1.0  0.60003  0.16657  0.22816  1.0000
  O   O11       1.0  0.59728  0.16808  0.14836  1.0000
  O   O12       1.0  0.59557  0.14766  0.25395  1.0000
  H   H94       1.0  0.59541  0.14383  0.31055  1.0000
  C   C150      1.0  0.99197  0.28087  0.26514  1.0000
  N   N19       1.0  0.01476  0.29225  0.26827  1.0000
  C   C151      1.0  0.06164  0.33246  0.27211  1.0000
  C   C152      1.0  0.08547  0.34513  0.27228  1.0000
  H   H95       1.0  0.09340  0.35886  0.23106  1.0000
  H   H96       1.0  0.98446  0.27470  0.20482  1.0000
  C   C153      1.0  0.04957  0.33909  0.21751  1.0000
  O   O13       1.0  0.05332  0.34036  0.13728  1.0000
  O   O14       1.0  0.04247  0.35133  0.24572  1.0000
  H   H97       1.0  0.04042  0.35313  0.30285  1.0000
  C   C154      1.0  0.77685  0.71154  0.26557  1.0000
  N   N20       1.0  0.76548  0.72295  0.26870  1.0000
  C   C155      1.0  0.72523  0.72958  0.27254  1.0000
  C   C156      1.0  0.71255  0.74072  0.27270  1.0000
  H   H98       1.0  0.69883  0.73492  0.23152  1.0000
  H   H99       1.0  0.78307  0.71023  0.20527  1.0000
  C   C157      1.0  0.71861  0.71087  0.21793  1.0000
  O   O15       1.0  0.71736  0.71335  0.13770  1.0000
  O   O16       1.0  0.70637  0.69154  0.24616  1.0000
  H   H100      1.0  0.70455  0.68769  0.30329  1.0000
  C   C158      1.0  0.34615  0.06573  0.26529  1.0000
  N   N21       1.0  0.33474  0.04294  0.26833  1.0000
  C   C159      1.0  0.32808  0.99605  0.27199  1.0000
  C   C160      1.0  0.31695  0.97223  0.27209  1.0000
  H   H101      1.0  0.32276  0.96432  0.23086  1.0000
  H   H102      1.0  0.34749  0.07326  0.20501  1.0000
  C   C161      1.0  0.34680  0.00815  0.21739  1.0000
  O   O17       1.0  0.34434  0.00444  0.13716  1.0000
  O   O18       1.0  0.36613  0.01524  0.24558  1.0000
  H   H103      1.0  0.36997  0.01726  0.30272  1.0000
  C   C162      1.0  0.08467  0.75785  0.26475  1.0000
  N   N22       1.0  0.06189  0.74648  0.26792  1.0000
  C   C163      1.0  0.01500  0.70626  0.27183  1.0000
  C   C164      1.0  0.99117  0.69358  0.27209  1.0000
  H   H104      1.0  0.98324  0.67986  0.23088  1.0000
  H   H105      1.0  0.09219  0.76406  0.20444  1.0000
  C   C165      1.0  0.02707  0.69963  0.21712  1.0000
  O   O19       1.0  0.02333  0.69839  0.13691  1.0000
  O   O20       1.0  0.03416  0.68739  0.24524  1.0000
  H   H106      1.0  0.03620  0.68557  0.30236  1.0000
  C   C166      1.0  0.29980  0.32715  0.26520  1.0000
  N   N23       1.0  0.31117  0.31575  0.26838  1.0000
  C   C167      1.0  0.35140  0.30909  0.27232  1.0000
  C   C168      1.0  0.36409  0.29795  0.27257  1.0000
  H   H107      1.0  0.37782  0.30376  0.23137  1.0000
  H   H108      1.0  0.29362  0.32848  0.20487  1.0000
  C   C169      1.0  0.35804  0.32779  0.21764  1.0000
  O   O21       1.0  0.35930  0.32531  0.13743  1.0000
  O   O22       1.0  0.37027  0.34713  0.24578  1.0000
  H   H109      1.0  0.37207  0.35099  0.30291  1.0000
  C   C170      1.0  0.73045  0.97299  0.26533  1.0000
  N   N24       1.0  0.74186  0.99578  0.26846  1.0000
  C   C171      1.0  0.74853  0.04266  0.27236  1.0000
  C   C172      1.0  0.75968  0.06649  0.27254  1.0000
  H   H110      1.0  0.75388  0.07441  0.23138  1.0000
  H   H111      1.0  0.72912  0.96548  0.20501  1.0000
  C   C173      1.0  0.72982  0.03059  0.21778  1.0000
  O   O23       1.0  0.73230  0.03433  0.13756  1.0000
  O   O24       1.0  0.71049  0.02349  0.24603  1.0000
  H   H112      1.0  0.70664  0.02145  0.30317  1.0000
  C   C174      1.0  0.29538  0.51237  0.31371  1.0000
  C   C175      1.0  0.25792  0.49044  0.33097  1.0000
  C   C176      1.0  0.30220  0.46098  0.34471  1.0000
  C   C177      1.0  0.24252  0.39396  0.33050  1.0000
  C   C178      1.0  0.20497  0.37206  0.31506  1.0000
  C   C179      1.0  0.19327  0.40086  0.33930  1.0000
  C   C180      1.0  0.19829  0.42355  0.34686  1.0000
  N   N25       1.0  0.21864  0.44240  0.33957  1.0000
  C   C181      1.0  0.19434  0.45402  0.36083  1.0000
  C   C182      1.0  0.18270  0.43078  0.35945  1.0000
  C   C183      1.0  0.23154  0.53391  0.42302  1.0000
  C   C184      1.0  0.23559  0.51573  0.42067  1.0000
  C   C185      1.0  0.17008  0.38392  0.33725  1.0000
  C   C186      1.0  0.12256  0.35369  0.33305  1.0000
  C   C187      1.0  0.13441  0.36051  0.41509  1.0000
  C   C188      1.0  0.15783  0.37540  0.41731  1.0000
  C   C189      1.0  0.26717  0.36882  0.40941  1.0000
  C   C190      1.0  0.27487  0.35325  0.41027  1.0000
  C   C191      1.0  0.34103  0.51006  0.42086  1.0000
  C   C192      1.0  0.36325  0.52828  0.42254  1.0000
  H   H113      1.0  0.37053  0.53447  0.48331  1.0000
  H   H114      1.0  0.33266  0.50379  0.47988  1.0000
  H   H115      1.0  0.31081  0.52640  0.30476  1.0000
  H   H116      1.0  0.25853  0.36972  0.46354  1.0000
  H   H117      1.0  0.27113  0.34296  0.46467  1.0000
  H   H118      1.0  0.18949  0.35807  0.30641  1.0000
  H   H119      1.0  0.18709  0.46380  0.36889  1.0000
  H   H120      1.0  0.16564  0.42101  0.36662  1.0000
  H   H121      1.0  0.16572  0.38068  0.47774  1.0000
  H   H122      1.0  0.12595  0.35554  0.47451  1.0000
  H   H123      1.0  0.24383  0.51346  0.47308  1.0000
  H   H124      1.0  0.23736  0.54448  0.47688  1.0000
  C   C193      1.0  0.54538  0.78341  0.31218  1.0000
  C   C194      1.0  0.56726  0.76787  0.33025  1.0000
  N   N26       1.0  0.57992  0.79060  0.33683  1.0000
  C   C195      1.0  0.57403  0.82389  0.33745  1.0000
  C   C196      1.0  0.59666  0.84155  0.34548  1.0000
  C   C197      1.0  0.66369  0.84893  0.33097  1.0000
  N   N27       1.0  0.65110  0.82622  0.33947  1.0000
  C   C198      1.0  0.68561  0.83329  0.31568  1.0000
  C   C199      1.0  0.65680  0.79278  0.33979  1.0000
  C   C200      1.0  0.63410  0.77511  0.34726  1.0000
  N   N28       1.0  0.61526  0.77662  0.33974  1.0000
  C   C201      1.0  0.60362  0.74071  0.36158  1.0000
  C   C202      1.0  0.62686  0.75230  0.36026  1.0000
  C   C203      1.0  0.57374  0.75128  0.34125  1.0000
  C   C204      1.0  0.55632  0.72824  0.34593  1.0000
  C   C205      1.0  0.51943  0.68295  0.35150  1.0000
  C   C206      1.0  0.52364  0.69809  0.42307  1.0000
  C   C207      1.0  0.54185  0.72030  0.42071  1.0000
  C   C208      1.0  0.67373  0.78652  0.33772  1.0000
  C   C209      1.0  0.70398  0.76926  0.33348  1.0000
  C   C210      1.0  0.69718  0.77433  0.41553  1.0000
  C   C211      1.0  0.68225  0.78281  0.41776  1.0000
  C   C212      1.0  0.68882  0.89872  0.40971  1.0000
  C   C213      1.0  0.70439  0.92200  0.41051  1.0000
  C   C214      1.0  0.70563  0.93615  0.33901  1.0000
  C   C215      1.0  0.55677  0.82968  0.33909  1.0000
  C   C216      1.0  0.54754  0.83124  0.42119  1.0000
  C   C217      1.0  0.51965  0.83760  0.34286  1.0000
  C   C218      1.0  0.52932  0.83525  0.42288  1.0000
  H   H125      1.0  0.52310  0.83631  0.48366  1.0000
  H   H126      1.0  0.55377  0.82911  0.48020  1.0000
  H   H127      1.0  0.53132  0.78478  0.30379  1.0000
  H   H128      1.0  0.59535  0.79835  0.35659  1.0000
  H   H129      1.0  0.63549  0.81845  0.35698  1.0000
  H   H130      1.0  0.68795  0.88918  0.46378  1.0000
  H   H131      1.0  0.71469  0.92856  0.46482  1.0000
  H   H132      1.0  0.69960  0.83180  0.30697  1.0000
  H   H133      1.0  0.59384  0.72369  0.37003  1.0000
  H   H134      1.0  0.63663  0.74503  0.36782  1.0000
  H   H135      1.0  0.67698  0.78545  0.47821  1.0000
  H   H136      1.0  0.70212  0.77081  0.47494  1.0000
  H   H137      1.0  0.54406  0.73086  0.47289  1.0000
  H   H138      1.0  0.51303  0.69336  0.47681  1.0000
  C   C219      1.0  0.21609  0.75547  0.34452  1.0000
  C   C220      1.0  0.28258  0.85939  0.34624  1.0000
  C   C221      1.0  0.31698  0.86332  0.36033  1.0000
  C   C222      1.0  0.30539  0.87497  0.35898  1.0000
  C   C223      1.0  0.35959  0.82602  0.42286  1.0000
  C   C224      1.0  0.33737  0.82200  0.42041  1.0000
  C   C225      1.0  0.28336  0.92324  0.41484  1.0000
  C   C226      1.0  0.27484  0.89982  0.41703  1.0000
  C   C227      1.0  0.15892  0.79043  0.40910  1.0000
  C   C228      1.0  0.13564  0.78273  0.40991  1.0000
  C   C229      1.0  0.22631  0.71663  0.42046  1.0000
  C   C230      1.0  0.22231  0.69440  0.42215  1.0000
  H   H139      1.0  0.22118  0.68711  0.48294  1.0000
  H   H140      1.0  0.22839  0.72498  0.47948  1.0000
  H   H141      1.0  0.27290  0.74688  0.30403  1.0000
  H   H142      1.0  0.16844  0.79907  0.46323  1.0000
  H   H143      1.0  0.12907  0.78643  0.46434  1.0000
  H   H144      1.0  0.22587  0.86821  0.30688  1.0000
  H   H145      1.0  0.33400  0.87055  0.36875  1.0000
  H   H146      1.0  0.31267  0.89202  0.36638  1.0000
  H   H147      1.0  0.27223  0.89191  0.47745  1.0000
  H   H148      1.0  0.28685  0.93169  0.47426  1.0000
  H   H149      1.0  0.32681  0.81372  0.47270  1.0000
  H   H150      1.0  0.36431  0.82019  0.47677  1.0000
  C   C231      1.0  0.78124  0.52632  0.31453  1.0000
  C   C232      1.0  0.80133  0.52627  0.31509  1.0000
  C   C233      1.0  0.81870  0.54824  0.33167  1.0000
  N   N29       1.0  0.80862  0.56088  0.33822  1.0000
  C   C234      1.0  0.76945  0.55507  0.33782  1.0000
  C   C235      1.0  0.77443  0.57771  0.34535  1.0000
  C   C236      1.0  0.83413  0.64476  0.33141  1.0000
  N   N30       1.0  0.84424  0.63216  0.33990  1.0000
  C   C237      1.0  0.87170  0.66667  0.31652  1.0000
  C   C238      1.0  0.88337  0.63782  0.33978  1.0000
  C   C239      1.0  0.87836  0.61513  0.34712  1.0000
  N   N31       1.0  0.85800  0.59628  0.33997  1.0000
  C   C240      1.0  0.88230  0.58465  0.36079  1.0000
  C   C241      1.0  0.89394  0.60789  0.35947  1.0000
  C   C242      1.0  0.84181  0.55475  0.34163  1.0000
  C   C243      1.0  0.84744  0.53734  0.34622  1.0000
  C   C244      1.0  0.85588  0.50047  0.35174  1.0000
  C   C245      1.0  0.84507  0.50476  0.42356  1.0000
  C   C246      1.0  0.84105  0.52296  0.42124  1.0000
  C   C247      1.0  0.90656  0.65475  0.33761  1.0000
  C   C248      1.0  0.95408  0.68501  0.33312  1.0000
  C   C249      1.0  0.94225  0.67817  0.41524  1.0000
  C   C250      1.0  0.91883  0.66326  0.41760  1.0000
  C   C251      1.0  0.80940  0.66984  0.41002  1.0000
  C   C252      1.0  0.80169  0.68541  0.41082  1.0000
  C   C253      1.0  0.78885  0.68669  0.33919  1.0000
  C   C254      1.0  0.74639  0.53783  0.33940  1.0000
  C   C255      1.0  0.73556  0.52866  0.42149  1.0000
  C   C256      1.0  0.70136  0.50070  0.34311  1.0000
  C   C257      1.0  0.71334  0.51043  0.42316  1.0000
  H   H151      1.0  0.70603  0.50425  0.48393  1.0000
  H   H152      1.0  0.74390  0.53492  0.48052  1.0000
  H   H153      1.0  0.76581  0.51227  0.30585  1.0000
  H   H154      1.0  0.81639  0.57648  0.35561  1.0000
  H   H155      1.0  0.83638  0.61650  0.35653  1.0000
  H   H156      1.0  0.81799  0.66891  0.46423  1.0000
  H   H157      1.0  0.80537  0.69566  0.46526  1.0000
  H   H158      1.0  0.88718  0.68066  0.30787  1.0000
  H   H159      1.0  0.88954  0.57487  0.36900  1.0000
  H   H160      1.0  0.91100  0.61766  0.36668  1.0000
  H   H161      1.0  0.91094  0.65798  0.47808  1.0000
  H   H162      1.0  0.95072  0.68313  0.47460  1.0000
  H   H163      1.0  0.83281  0.52524  0.47367  1.0000
  H   H164      1.0  0.83928  0.49421  0.47753  1.0000
  C   C258      1.0  0.53135  0.25531  0.31480  1.0000
  C   C259      1.0  0.53139  0.27544  0.31538  1.0000
  C   C260      1.0  0.50942  0.27084  0.33199  1.0000
  N   N32       1.0  0.49678  0.24811  0.33870  1.0000
  C   C261      1.0  0.50931  0.23795  0.33003  1.0000
  C   C262      1.0  0.50261  0.21477  0.33818  1.0000
  C   C263      1.0  0.47996  0.19710  0.34566  1.0000
  N   N33       1.0  0.46111  0.19861  0.33806  1.0000
  C   C264      1.0  0.41956  0.17319  0.33879  1.0000
  C   C265      1.0  0.41294  0.18976  0.33124  1.0000
  N   N34       1.0  0.42555  0.21247  0.33963  1.0000
  C   C266      1.0  0.41307  0.22271  0.33161  1.0000
  C   C267      1.0  0.39104  0.20542  0.31571  1.0000
  C   C268      1.0  0.39099  0.18524  0.31504  1.0000
  C   C269      1.0  0.41984  0.24591  0.34005  1.0000
  C   C270      1.0  0.44252  0.26358  0.34768  1.0000
  N   N35       1.0  0.46137  0.26207  0.34046  1.0000
  C   C271      1.0  0.48021  0.28244  0.34854  1.0000
  C   C272      1.0  0.47299  0.29799  0.36173  1.0000
  C   C273      1.0  0.44975  0.28640  0.36027  1.0000
  C   C274      1.0  0.50290  0.28742  0.34214  1.0000
  C   C275      1.0  0.52030  0.31047  0.34673  1.0000
  C   C276      1.0  0.55718  0.35578  0.35219  1.0000
  C   C277      1.0  0.55288  0.34068  0.42403  1.0000
  C   C278      1.0  0.53470  0.31846  0.42168  1.0000
  C   C279      1.0  0.40290  0.25216  0.33790  1.0000
  C   C280      1.0  0.37266  0.26943  0.33351  1.0000
  C   C281      1.0  0.37946  0.26441  0.41561  1.0000
  C   C282      1.0  0.39436  0.25589  0.41791  1.0000
  C   C283      1.0  0.40249  0.14995  0.33682  1.0000
  C   C284      1.0  0.38778  0.13994  0.40995  1.0000
  C   C285      1.0  0.37220  0.11666  0.41067  1.0000
  C   C286      1.0  0.37096  0.10254  0.33908  1.0000
  C   C287      1.0  0.51985  0.20896  0.33976  1.0000
  C   C288      1.0  0.52904  0.20735  0.42184  1.0000
  C   C289      1.0  0.55698  0.20105  0.34341  1.0000
  C   C290      1.0  0.54727  0.20335  0.42348  1.0000
  H   H165      1.0  0.55346  0.20225  0.48424  1.0000
  H   H166      1.0  0.52278  0.20944  0.48087  1.0000
  H   H167      1.0  0.54539  0.25392  0.30585  1.0000
  H   H168      1.0  0.48118  0.24028  0.35619  1.0000
  H   H169      1.0  0.44110  0.22022  0.35778  1.0000
  H   H170      1.0  0.43985  0.14575  0.36879  1.0000
  H   H171      1.0  0.38865  0.14945  0.46412  1.0000
  H   H172      1.0  0.36189  0.11009  0.46502  1.0000
  H   H173      1.0  0.37706  0.20690  0.30701  1.0000
  H   H174      1.0  0.48277  0.31502  0.36980  1.0000
  H   H175      1.0  0.43998  0.29368  0.36740  1.0000
  H   H176      1.0  0.39963  0.25327  0.47838  1.0000
  H   H177      1.0  0.37448  0.26790  0.47498  1.0000
  H   H178      1.0  0.53241  0.30793  0.47410  1.0000
  H   H179      1.0  0.56344  0.34543  0.47790  1.0000
  C   C291      1.0  0.80238  0.27634  0.31213  1.0000
  C   C292      1.0  0.78684  0.23892  0.33024  1.0000
  C   C293      1.0  0.84286  0.28817  0.33730  1.0000
  C   C294      1.0  0.86052  0.28320  0.34531  1.0000
  C   C295      1.0  0.86790  0.22354  0.33080  1.0000
  C   C296      1.0  0.85226  0.18599  0.31550  1.0000
  C   C297      1.0  0.81176  0.17429  0.33966  1.0000
  C   C298      1.0  0.79408  0.17931  0.34718  1.0000
  N   N36       1.0  0.79559  0.19966  0.33968  1.0000
  C   C299      1.0  0.75968  0.17539  0.36160  1.0000
  C   C300      1.0  0.77127  0.16374  0.36023  1.0000
  C   C301      1.0  0.74721  0.21023  0.34605  1.0000
  C   C302      1.0  0.71708  0.21275  0.42334  1.0000
  C   C303      1.0  0.73929  0.21676  0.42089  1.0000
  C   C304      1.0  0.80550  0.15110  0.33757  1.0000
  C   C305      1.0  0.78822  0.10358  0.33330  1.0000
  C   C306      1.0  0.79329  0.11544  0.41536  1.0000
  C   C307      1.0  0.80178  0.13885  0.41760  1.0000
  C   C308      1.0  0.91769  0.24820  0.40952  1.0000
  C   C309      1.0  0.94097  0.25592  0.41032  1.0000
  C   C310      1.0  0.85022  0.32200  0.42107  1.0000
  C   C311      1.0  0.85657  0.35626  0.34278  1.0000
  C   C312      1.0  0.85423  0.34423  0.42280  1.0000
  H   H180      1.0  0.85530  0.35150  0.48359  1.0000
  H   H181      1.0  0.84811  0.31363  0.48008  1.0000
  H   H182      1.0  0.80375  0.29177  0.30377  1.0000
  H   H183      1.0  0.83743  0.22127  0.35684  1.0000
  H   H184      1.0  0.90815  0.23953  0.46361  1.0000
  H   H185      1.0  0.94752  0.25216  0.46464  1.0000
  H   H186      1.0  0.85077  0.17051  0.30679  1.0000
  H   H187      1.0  0.74267  0.16816  0.37009  1.0000
  H   H188      1.0  0.76400  0.14669  0.36779  1.0000
  H   H189      1.0  0.80442  0.14675  0.47806  1.0000
  H   H190      1.0  0.78977  0.10697  0.47476  1.0000
  H   H191      1.0  0.74986  0.22511  0.47303  1.0000
  H   H192      1.0  0.71237  0.21864  0.47712  1.0000
  C   C313      1.0  0.21754  0.55733  0.35260  1.0000
  C   C314      1.0  0.21346  0.59651  0.35398  1.0000
  C   C315      1.0  0.21001  0.58424  0.43456  1.0000
  C   C316      1.0  0.21197  0.56466  0.43212  1.0000
  H   H193      1.0  0.20908  0.55542  0.48940  1.0000
  C   C317      1.0  0.21339  0.61714  0.34766  1.0000
  C   C318      1.0  0.21734  0.66031  0.34385  1.0000
  C   C319      1.0  0.22956  0.65470  0.40454  1.0000
  N   N37       1.0  0.22724  0.63390  0.40400  1.0000
  H   H194      1.0  0.24082  0.66629  0.44831  1.0000
  C   C320      1.0  0.20430  0.59011  0.51471  1.0000
  O   O25       1.0  0.21950  0.60027  0.56878  1.0000
  O   O26       1.0  0.18747  0.59231  0.51674  1.0000
  H   H195      1.0  0.18358  0.59761  0.56319  1.0000
  C   C321      1.0  0.50030  0.66063  0.35294  1.0000
  C   C322      1.0  0.46113  0.61735  0.35436  1.0000
  C   C323      1.0  0.47335  0.62621  0.43498  1.0000
  C   C324      1.0  0.49293  0.64776  0.43254  1.0000
  H   H196      1.0  0.50213  0.65413  0.48985  1.0000
  C   C325      1.0  0.44051  0.59665  0.34803  1.0000
  C   C326      1.0  0.39735  0.55741  0.34420  1.0000
  C   C327      1.0  0.40293  0.57525  0.40484  1.0000
  N   N38       1.0  0.42373  0.59374  0.40432  1.0000
  H   H197      1.0  0.39133  0.57492  0.44858  1.0000
  C   C328      1.0  0.46745  0.61466  0.51520  1.0000
  O   O27       1.0  0.45725  0.61970  0.56912  1.0000
  O   O28       1.0  0.46526  0.59563  0.51740  1.0000
  H   H198      1.0  0.45994  0.58645  0.56389  1.0000
  C   C329      1.0  0.39707  0.84010  0.35278  1.0000
  C   C330      1.0  0.44033  0.84418  0.35445  1.0000
  C   C331      1.0  0.43145  0.84758  0.43499  1.0000
  C   C332      1.0  0.40990  0.84561  0.43241  1.0000
  H   H199      1.0  0.40352  0.84846  0.48967  1.0000
  C   C333      1.0  0.46103  0.84426  0.34824  1.0000
  C   C334      1.0  0.50026  0.84031  0.34457  1.0000
  C   C335      1.0  0.48238  0.82804  0.40510  1.0000
  N   N39       1.0  0.46390  0.83036  0.40451  1.0000
  H   H200      1.0  0.48269  0.81676  0.44879  1.0000
  C   C336      1.0  0.44296  0.85323  0.51523  1.0000
  O   O29       1.0  0.43790  0.83800  0.56920  1.0000
  O   O30       1.0  0.46200  0.87007  0.51743  1.0000
  H   H201      1.0  0.47116  0.87394  0.56395  1.0000
  C   C337      1.0  0.85908  0.48134  0.35316  1.0000
  C   C338      1.0  0.86315  0.44215  0.35461  1.0000
  C   C339      1.0  0.86659  0.45443  0.43517  1.0000
  C   C340      1.0  0.86463  0.47401  0.43270  1.0000
  H   H202      1.0  0.86752  0.48325  0.48997  1.0000
  C   C341      1.0  0.86323  0.42153  0.34832  1.0000
  C   C342      1.0  0.85927  0.37835  0.34453  1.0000
  C   C343      1.0  0.84702  0.38396  0.40516  1.0000
  N   N40       1.0  0.84934  0.40475  0.40462  1.0000
  H   H203      1.0  0.83574  0.37236  0.44889  1.0000
  C   C344      1.0  0.87228  0.44856  0.51533  1.0000
  O   O31       1.0  0.85707  0.43839  0.56941  1.0000
  O   O32       1.0  0.88911  0.44635  0.51734  1.0000
  H   H204      1.0  0.89300  0.44105  0.56380  1.0000
  C   C345      1.0  0.57630  0.37810  0.35358  1.0000
  C   C346      1.0  0.61548  0.42137  0.35495  1.0000
  C   C347      1.0  0.60320  0.41254  0.43553  1.0000
  C   C348      1.0  0.58362  0.39099  0.43310  1.0000
  H   H205      1.0  0.57438  0.38465  0.49039  1.0000
  C   C349      1.0  0.63610  0.44207  0.34863  1.0000
  C   C350      1.0  0.67927  0.48130  0.34483  1.0000
  C   C351      1.0  0.67366  0.46346  0.40553  1.0000
  N   N41       1.0  0.65286  0.44498  0.40499  1.0000
  H   H206      1.0  0.68524  0.46380  0.44931  1.0000
  C   C352      1.0  0.60906  0.42410  0.51568  1.0000
  O   O33       1.0  0.61922  0.41907  0.56977  1.0000
  O   O34       1.0  0.61127  0.44314  0.51769  1.0000
  H   H207      1.0  0.61656  0.45233  0.56413  1.0000
  C   C353      1.0  0.67960  0.19863  0.35339  1.0000
  C   C354      1.0  0.63633  0.19453  0.35501  1.0000
  C   C355      1.0  0.64520  0.19117  0.43559  1.0000
  C   C356      1.0  0.66675  0.19314  0.43304  1.0000
  H   H208      1.0  0.67313  0.19031  0.49033  1.0000
  C   C357      1.0  0.61562  0.19444  0.34877  1.0000
  C   C358      1.0  0.57638  0.19837  0.34508  1.0000
  C   C359      1.0  0.59423  0.21062  0.40566  1.0000
  N   N42       1.0  0.61272  0.20831  0.40506  1.0000
  H   H209      1.0  0.59390  0.22189  0.44938  1.0000
  C   C360      1.0  0.63367  0.18552  0.51586  1.0000
  O   O35       1.0  0.63872  0.20076  0.56975  1.0000
  O   O36       1.0  0.61464  0.16868  0.51815  1.0000
  H   H210      1.0  0.60548  0.16482  0.56469  1.0000
  C   C361      1.0  0.97912  0.27842  0.34257  1.0000
  C   C362      1.0  0.02696  0.30139  0.34370  1.0000
  C   C363      1.0  0.01522  0.29859  0.42523  1.0000
  C   C364      1.0  0.99136  0.28732  0.42280  1.0000
  H   H211      1.0  0.98284  0.28663  0.48000  1.0000
  C   C365      1.0  0.05077  0.31450  0.33433  1.0000
  C   C366      1.0  0.09852  0.34010  0.33107  1.0000
  C   C367      1.0  0.08658  0.32182  0.39021  1.0000
  N   N43       1.0  0.06375  0.31007  0.38996  1.0000
  H   H212      1.0  0.09485  0.31713  0.43431  1.0000
  C   C368      1.0  0.02640  0.30809  0.50427  1.0000
  O   O37       1.0  0.02178  0.29601  0.57035  1.0000
  O   O38       1.0  0.03416  0.32857  0.51369  1.0000
  H   H213      1.0  0.04039  0.33600  0.56364  1.0000
  C   C369      1.0  0.77924  0.70109  0.34295  1.0000
  C   C370      1.0  0.75629  0.72597  0.34410  1.0000
  C   C371      1.0  0.75904  0.71700  0.42560  1.0000
  C   C372      1.0  0.77029  0.70440  0.42317  1.0000
  H   H214      1.0  0.77094  0.69655  0.48035  1.0000
  C   C373      1.0  0.74318  0.73668  0.33472  1.0000
  C   C374      1.0  0.71757  0.75881  0.33149  1.0000
  C   C375      1.0  0.73585  0.76517  0.39060  1.0000
  N   N44       1.0  0.74760  0.75408  0.39034  1.0000
  H   H215      1.0  0.74053  0.77813  0.43469  1.0000
  C   C376      1.0  0.74949  0.71866  0.50462  1.0000
  O   O39       1.0  0.76153  0.72609  0.57076  1.0000
  O   O40       1.0  0.72900  0.70594  0.51392  1.0000
  H   H216      1.0  0.72154  0.70472  0.56384  1.0000
  C   C377      1.0  0.35654  0.07854  0.34274  1.0000
  C   C378      1.0  0.33167  0.03071  0.34371  1.0000
  C   C379      1.0  0.34060  0.04241  0.42526  1.0000
  C   C380      1.0  0.35320  0.06627  0.42292  1.0000
  H   H217      1.0  0.36102  0.07476  0.48014  1.0000
  C   C381      1.0  0.32098  0.00690  0.33424  1.0000
  C   C382      1.0  0.29885  0.95915  0.33089  1.0000
  C   C383      1.0  0.29248  0.97106  0.39004  1.0000
  N   N45       1.0  0.30356  0.99390  0.38984  1.0000
  H   H218      1.0  0.27951  0.96277  0.43412  1.0000
  C   C384      1.0  0.33891  0.03119  0.50425  1.0000
  O   O41       1.0  0.33144  0.03578  0.57038  1.0000
  O   O42       1.0  0.35163  0.02342  0.51356  1.0000
  H   H219      1.0  0.35283  0.01717  0.56347  1.0000
  C   C385      1.0  0.09751  0.76026  0.34212  1.0000
  C   C386      1.0  0.04968  0.73731  0.34336  1.0000
  C   C387      1.0  0.06140  0.74007  0.42484  1.0000
  C   C388      1.0  0.08526  0.75133  0.42236  1.0000
  H   H220      1.0  0.09376  0.75199  0.47953  1.0000
  C   C389      1.0  0.02586  0.72421  0.33404  1.0000
  C   C390      1.0  0.97812  0.69861  0.33098  1.0000
  C   C391      1.0  0.99005  0.71688  0.39011  1.0000
  N   N46       1.0  0.01289  0.72863  0.38977  1.0000
  H   H221      1.0  0.98178  0.72156  0.43429  1.0000
  C   C392      1.0  0.05020  0.73054  0.50389  1.0000
  O   O43       1.0  0.05481  0.74260  0.57001  1.0000
  O   O44       1.0  0.04243  0.71005  0.51322  1.0000
  H   H222      1.0  0.03620  0.70261  0.56316  1.0000
  C   C393      1.0  0.29735  0.33757  0.34257  1.0000
  C   C394      1.0  0.32033  0.31271  0.34384  1.0000
  C   C395      1.0  0.31753  0.32166  0.42531  1.0000
  C   C396      1.0  0.30627  0.33425  0.42282  1.0000
  H   H223      1.0  0.30558  0.34209  0.47998  1.0000
  C   C397      1.0  0.33344  0.30201  0.33452  1.0000
  C   C398      1.0  0.35906  0.27987  0.33144  1.0000
  C   C399      1.0  0.34077  0.27353  0.39056  1.0000
  N   N47       1.0  0.32901  0.28461  0.39022  1.0000
  H   H224      1.0  0.33608  0.26057  0.43471  1.0000
  C   C400      1.0  0.32704  0.32000  0.50437  1.0000
  O   O45       1.0  0.31497  0.31254  0.57048  1.0000
  O   O46       1.0  0.34753  0.33272  0.51373  1.0000
  H   H225      1.0  0.35496  0.33393  0.56368  1.0000
  C   C401      1.0  0.72004  0.96014  0.34276  1.0000
  C   C402      1.0  0.74491  0.00798  0.34390  1.0000
  C   C403      1.0  0.73597  0.99625  0.42542  1.0000
  C   C404      1.0  0.72337  0.97239  0.42300  1.0000
  H   H226      1.0  0.71554  0.96388  0.48020  1.0000
  C   C405      1.0  0.75562  0.03179  0.33453  1.0000
  C   C406      1.0  0.77777  0.07954  0.33131  1.0000
  C   C407      1.0  0.78412  0.06761  0.39039  1.0000
  N   N48       1.0  0.77303  0.04477  0.39013  1.0000
  H   H227      1.0  0.79708  0.07588  0.43446  1.0000
  C   C408      1.0  0.73764  0.00744  0.50447  1.0000
  O   O47       1.0  0.74510  0.00282  0.57055  1.0000
  O   O48       1.0  0.72493  0.01521  0.51388  1.0000
  H   H228      1.0  0.72372  0.02144  0.56383  1.0000
