data_image0
_chemical_formula_structural       C2H2C4HNO2C4HNO2C4HNO2C2H2C2H2C2H2C2H2C4HNO2C4HNO2C2H2C4HNO2C4HNO2C4HNO2C2H2C2H2C2H2C2H2C4HNO2C4HNO2C2H2C2H2C4HNO2C4HNO2C2H2C2H2C4HNO2C4HNO2C2H2C2H2C4HNO2C4HNO2C2H2C2H2C4HNO2C4HNO2CNCNCNCNCNCNCNCNCNCNCNCNCNCNCNCNCNCNCNCNCNCNCNCNCNCNCNCNCNCNCNCNCNCNCNCNCNCNCNCNCNCNCNCNCNCNCNCNCNCNCNCNCNCNCNCNCNCNCNCNCNCNCNCNCNCNCNCNCNCNCNCNC4HNO2C2H2C2H2C2H2C4HNO2C4HNO2C4HNO2C4HNO2C2H2C2H2C4HNO2C2H2C2H2C2H2C4HNO2C4HNO2C4HNO2C4HNO2C2H2C2H2C4HNO2C4HNO2C2H2C2H2C4HNO2C4HNO2C2H2C2H2C4HNO2C4HNO2C2H2C2H2C4HNO2C4HNO2C2H2C2H2
_chemical_formula_sum              "C288 H108 N108 O72"
_cell_length_a       42.3936
_cell_length_b       53.9033
_cell_length_c       14.8874
_cell_angle_alpha    90
_cell_angle_beta     90
_cell_angle_gamma    90

_space_group_name_H-M_alt    "P 1"
_space_group_IT_number       1

loop_
  _space_group_symop_operation_xyz
  'x, y, z'

loop_
  _atom_site_type_symbol
  _atom_site_label
  _atom_site_symmetry_multiplicity
  _atom_site_fract_x
  _atom_site_fract_y
  _atom_site_fract_z
  _atom_site_occupancy
  C   C1        1.0  0.49132  0.98029  0.34060  1.0000
  C   C2        1.0  0.47242  0.00178  0.33963  1.0000
  H   H1        1.0  0.48072  0.96383  0.32434  1.0000
  H   H2        1.0  0.44911  0.99988  0.32322  1.0000
  C   C3        1.0  0.02241  0.52544  0.32305  1.0000
  C   C4        1.0  0.98989  0.52638  0.30181  1.0000
  C   C5        1.0  0.97053  0.50488  0.29996  1.0000
  C   C6        1.0  0.98358  0.48117  0.32090  1.0000
  H   H3        1.0  0.97975  0.54305  0.28614  1.0000
  N   N1        1.0  0.93842  0.50721  0.27480  1.0000
  O   O1        1.0  0.92336  0.52096  0.32778  1.0000
  O   O2        1.0  0.93541  0.51534  0.19615  1.0000
  C   C7        1.0  0.38245  0.06699  0.33327  1.0000
  C   C8        1.0  0.36814  0.08545  0.27952  1.0000
  C   C9        1.0  0.33504  0.08861  0.27599  1.0000
  C   C10       1.0  0.31517  0.07307  0.32867  1.0000
  H   H4        1.0  0.38198  0.09724  0.24270  1.0000
  N   N2        1.0  0.32184  0.10698  0.21900  1.0000
  O   O3        1.0  0.33162  0.12837  0.23789  1.0000
  O   O4        1.0  0.32788  0.10267  0.13787  1.0000
  C   C11       1.0  0.62575  0.93807  0.33821  1.0000
  C   C12       1.0  0.64018  0.91935  0.28603  1.0000
  C   C13       1.0  0.67329  0.91629  0.28273  1.0000
  C   C14       1.0  0.69310  0.93217  0.33433  1.0000
  H   H5        1.0  0.62642  0.90736  0.24978  1.0000
  N   N3        1.0  0.68657  0.89775  0.22661  1.0000
  O   O5        1.0  0.67692  0.87641  0.24657  1.0000
  O   O6        1.0  0.68049  0.90175  0.14529  1.0000
  C   C15       1.0  0.17827  0.55354  0.30381  1.0000
  C   C16       1.0  0.14516  0.55049  0.30171  1.0000
  H   H6        1.0  0.19183  0.54232  0.26404  1.0000
  H   H7        1.0  0.13573  0.53716  0.26085  1.0000
  C   C17       1.0  0.82876  0.45190  0.29950  1.0000
  C   C18       1.0  0.86188  0.45489  0.29794  1.0000
  H   H8        1.0  0.81525  0.46345  0.26081  1.0000
  H   H9        1.0  0.87140  0.46850  0.25842  1.0000
  C   C19       1.0  0.51691  0.14697  0.33578  1.0000
  C   C20       1.0  0.50609  0.12218  0.33541  1.0000
  H   H10       1.0  0.53878  0.15049  0.30966  1.0000
  H   H11       1.0  0.52038  0.10869  0.30927  1.0000
  C   C21       1.0  0.49025  0.85929  0.33339  1.0000
  C   C22       1.0  0.50124  0.88406  0.33335  1.0000
  H   H12       1.0  0.46866  0.85579  0.30541  1.0000
  H   H13       1.0  0.48738  0.89755  0.30547  1.0000
  C   C23       1.0  0.03220  0.61614  0.31677  1.0000
  C   C24       1.0  0.05082  0.63569  0.28231  1.0000
  C   C25       1.0  0.04025  0.66059  0.28041  1.0000
  C   C26       1.0  0.00988  0.66681  0.31530  1.0000
  H   H14       1.0  0.07284  0.63195  0.25752  1.0000
  N   N4        1.0  0.06030  0.67887  0.24250  1.0000
  O   O7        1.0  0.08600  0.68071  0.28420  1.0000
  O   O8        1.0  0.06589  0.67487  0.16087  1.0000
  C   C27       1.0  0.97591  0.39002  0.31627  1.0000
  C   C28       1.0  0.95787  0.37046  0.27943  1.0000
  C   C29       1.0  0.96860  0.34561  0.27789  1.0000
  C   C30       1.0  0.99858  0.33944  0.31542  1.0000
  H   H15       1.0  0.93612  0.37415  0.25265  1.0000
  N   N5        1.0  0.94912  0.32732  0.23767  1.0000
  O   O9        1.0  0.92293  0.32538  0.27678  1.0000
  O   O10       1.0  0.94448  0.33146  0.15564  1.0000
  C   C31       1.0  0.49544  0.48048  0.31145  1.0000
  C   C32       1.0  0.52758  0.48717  0.31077  1.0000
  H   H16       1.0  0.48958  0.46364  0.28463  1.0000
  H   H17       1.0  0.54356  0.47505  0.28375  1.0000
  C   C33       1.0  0.96999  0.01048  0.33850  1.0000
  C   C34       1.0  0.99339  0.02633  0.30289  1.0000
  C   C35       1.0  0.02582  0.01983  0.30137  1.0000
  C   C36       1.0  0.03590  0.99657  0.33664  1.0000
  H   H18       1.0  0.98688  0.04307  0.27621  1.0000
  N   N6        1.0  0.04761  0.03639  0.26169  1.0000
  O   O11       1.0  0.04575  0.05766  0.29620  1.0000
  O   O12       1.0  0.04286  0.03841  0.17869  1.0000
  C   C37       1.0  0.38229  0.37632  0.34136  1.0000
  C   C38       1.0  0.41231  0.38542  0.31624  1.0000
  C   C39       1.0  0.41929  0.41114  0.31222  1.0000
  C   C40       1.0  0.39574  0.42901  0.33488  1.0000
  H   H19       1.0  0.42982  0.37316  0.29991  1.0000
  N   N7        1.0  0.44975  0.41867  0.28387  1.0000
  O   O13       1.0  0.47103  0.41084  0.33539  1.0000
  O   O14       1.0  0.45569  0.41180  0.20499  1.0000
  C   C41       1.0  0.62574  0.63052  0.34223  1.0000
  C   C42       1.0  0.59575  0.62131  0.31751  1.0000
  C   C43       1.0  0.58902  0.59558  0.31276  1.0000
  C   C44       1.0  0.61286  0.57782  0.33435  1.0000
  H   H20       1.0  0.57807  0.63350  0.30183  1.0000
  N   N8        1.0  0.55856  0.58796  0.28459  1.0000
  O   O15       1.0  0.53729  0.59547  0.33679  1.0000
  O   O16       1.0  0.55237  0.59502  0.20608  1.0000
  C   C45       1.0  0.14214  0.91983  0.32395  1.0000
  C   C46       1.0  0.14871  0.89420  0.32088  1.0000
  H   H21       1.0  0.15986  0.93178  0.30656  1.0000
  H   H22       1.0  0.17081  0.88874  0.30161  1.0000
  C   C47       1.0  0.86444  0.08709  0.32467  1.0000
  C   C48       1.0  0.85814  0.11275  0.32093  1.0000
  H   H23       1.0  0.84656  0.07519  0.30819  1.0000
  H   H24       1.0  0.83604  0.11830  0.30204  1.0000
  C   C49       1.0  0.32611  0.50733  0.33119  1.0000
  C   C50       1.0  0.30043  0.52405  0.32937  1.0000
  H   H25       1.0  0.32116  0.48889  0.32346  1.0000
  H   H26       1.0  0.27821  0.51708  0.32039  1.0000
  C   C51       1.0  0.68169  0.49855  0.31851  1.0000
  C   C52       1.0  0.70696  0.48151  0.31727  1.0000
  H   H27       1.0  0.68673  0.51672  0.30482  1.0000
  H   H28       1.0  0.72907  0.48797  0.30271  1.0000
  C   C53       1.0  0.20256  0.04992  0.34405  1.0000
  C   C54       1.0  0.17112  0.05799  0.33206  1.0000
  C   C55       1.0  0.14513  0.04147  0.32929  1.0000
  C   C56       1.0  0.14975  0.01540  0.33953  1.0000
  H   H29       1.0  0.16657  0.07650  0.32397  1.0000
  N   N9        1.0  0.11480  0.05161  0.31520  1.0000
  O   O17       1.0  0.10716  0.06633  0.37707  1.0000
  O   O18       1.0  0.11297  0.06265  0.24089  1.0000
  C   C57       1.0  0.80555  0.95595  0.34862  1.0000
  C   C58       1.0  0.83683  0.94848  0.32935  1.0000
  C   C59       1.0  0.86244  0.96538  0.32661  1.0000
  C   C60       1.0  0.85737  0.99106  0.34513  1.0000
  H   H30       1.0  0.84140  0.93026  0.31518  1.0000
  N   N10       1.0  0.89275  0.95631  0.30322  1.0000
  O   O19       1.0  0.90265  0.94038  0.35810  1.0000
  O   O20       1.0  0.89335  0.94730  0.22535  1.0000
  C   C61       1.0  0.20635  0.14494  0.33143  1.0000
  C   C62       1.0  0.19870  0.17040  0.33183  1.0000
  H   H31       1.0  0.19005  0.13282  0.30611  1.0000
  H   H32       1.0  0.17717  0.17570  0.30738  1.0000
  C   C63       1.0  0.80218  0.86088  0.33426  1.0000
  C   C64       1.0  0.80978  0.83542  0.33426  1.0000
  H   H33       1.0  0.81826  0.87299  0.30768  1.0000
  H   H34       1.0  0.83105  0.83007  0.30822  1.0000
  C   C65       1.0  0.28707  0.68840  0.31970  1.0000
  C   C66       1.0  0.25779  0.67965  0.28699  1.0000
  C   C67       1.0  0.24979  0.65412  0.28610  1.0000
  C   C68       1.0  0.27150  0.63625  0.32010  1.0000
  H   H35       1.0  0.24176  0.69198  0.26168  1.0000
  N   N11       1.0  0.22072  0.64654  0.24777  1.0000
  O   O21       1.0  0.19750  0.65639  0.28624  1.0000
  O   O22       1.0  0.21945  0.65159  0.16544  1.0000
  C   C69       1.0  0.71941  0.31751  0.31573  1.0000
  C   C70       1.0  0.74836  0.32627  0.28086  1.0000
  C   C71       1.0  0.75628  0.35180  0.27943  1.0000
  C   C72       1.0  0.73483  0.36959  0.31519  1.0000
  H   H36       1.0  0.76416  0.31398  0.25424  1.0000
  N   N12       1.0  0.78497  0.35945  0.23896  1.0000
  O   O23       1.0  0.80858  0.34964  0.27564  1.0000
  O   O24       1.0  0.78551  0.35441  0.15655  1.0000
  C   C73       1.0  0.25810  0.29519  0.32757  1.0000
  C   C74       1.0  0.28509  0.31053  0.32739  1.0000
  H   H37       1.0  0.24013  0.29934  0.28417  1.0000
  H   H38       1.0  0.28607  0.32515  0.28366  1.0000
  C   C75       1.0  0.74990  0.71098  0.33114  1.0000
  C   C76       1.0  0.72271  0.69587  0.33035  1.0000
  H   H39       1.0  0.76803  0.70658  0.28864  1.0000
  H   H40       1.0  0.72174  0.68117  0.28698  1.0000
  C   C77       1.0  0.19597  0.80440  0.30146  1.0000
  C   C78       1.0  0.19825  0.78352  0.24425  1.0000
  C   C79       1.0  0.22479  0.76769  0.24450  1.0000
  C   C80       1.0  0.25054  0.77315  0.30230  1.0000
  H   H41       1.0  0.17975  0.77902  0.20323  1.0000
  N   N13       1.0  0.22545  0.74657  0.18767  1.0000
  O   O25       1.0  0.20336  0.73178  0.20525  1.0000
  O   O26       1.0  0.22380  0.75250  0.10619  1.0000
  C   C81       1.0  0.81149  0.20233  0.29964  1.0000
  C   C82       1.0  0.80920  0.22325  0.24268  1.0000
  C   C83       1.0  0.78243  0.23882  0.24217  1.0000
  C   C84       1.0  0.75650  0.23306  0.29898  1.0000
  H   H42       1.0  0.82783  0.22798  0.20251  1.0000
  N   N14       1.0  0.78175  0.25998  0.18553  1.0000
  O   O27       1.0  0.80365  0.27490  0.20385  1.0000
  O   O28       1.0  0.78375  0.25412  0.10404  1.0000
  C   C85       1.0  0.45120  0.29606  0.32459  1.0000
  C   C86       1.0  0.47525  0.27804  0.31999  1.0000
  H   H43       1.0  0.45513  0.31288  0.29471  1.0000
  H   H44       1.0  0.49579  0.28247  0.28767  1.0000
  C   C87       1.0  0.55633  0.71045  0.32477  1.0000
  C   C88       1.0  0.53211  0.72833  0.31998  1.0000
  H   H45       1.0  0.55248  0.69355  0.29545  1.0000
  H   H46       1.0  0.51157  0.72373  0.28800  1.0000
  C   C89       1.0  0.03679  0.75398  0.32609  1.0000
  C   C90       1.0  0.06562  0.74907  0.28233  1.0000
  C   C91       1.0  0.08988  0.76698  0.27618  1.0000
  C   C92       1.0  0.08578  0.79085  0.31616  1.0000
  H   H47       1.0  0.06922  0.73220  0.25263  1.0000
  N   N15       1.0  0.11769  0.76074  0.22824  1.0000
  O   O29       1.0  0.11225  0.75614  0.14692  1.0000
  O   O30       1.0  0.13182  0.74256  0.26269  1.0000
  C   C93       1.0  0.97115  0.25246  0.32671  1.0000
  C   C94       1.0  0.94230  0.25759  0.28332  1.0000
  C   C95       1.0  0.91788  0.23983  0.27693  1.0000
  C   C96       1.0  0.92182  0.21586  0.31634  1.0000
  H   H48       1.0  0.93883  0.27450  0.25389  1.0000
  N   N16       1.0  0.89009  0.24629  0.22928  1.0000
  O   O31       1.0  0.89550  0.25102  0.14805  1.0000
  O   O32       1.0  0.87609  0.26445  0.26427  1.0000
  C   C97       1.0  0.13755  0.28100  0.32913  1.0000
  C   C98       1.0  0.10640  0.29007  0.32653  1.0000
  H   H49       1.0  0.15518  0.29253  0.30764  1.0000
  H   H50       1.0  0.10261  0.30767  0.30316  1.0000
  C   C99       1.0  0.87069  0.72493  0.33047  1.0000
  C   C100      1.0  0.90186  0.71591  0.32712  1.0000
  H   H51       1.0  0.85305  0.71345  0.30875  1.0000
  H   H52       1.0  0.90567  0.69840  0.30293  1.0000
  C   C101      1.0  0.42683  0.77495  0.32978  1.0000
  C   C102      1.0  0.41981  0.75069  0.29918  1.0000
  C   C103      1.0  0.38867  0.74130  0.29572  1.0000
  C   C104      1.0  0.36307  0.75646  0.32435  1.0000
  H   H53       1.0  0.43765  0.73931  0.27807  1.0000
  N   N17       1.0  0.38346  0.71709  0.26148  1.0000
  O   O33       1.0  0.39701  0.70078  0.30792  1.0000
  O   O34       1.0  0.39223  0.71505  0.18116  1.0000
  C   C105      1.0  0.58005  0.23103  0.32890  1.0000
  C   C106      1.0  0.58706  0.25517  0.29719  1.0000
  C   C107      1.0  0.61820  0.26450  0.29297  1.0000
  C   C108      1.0  0.64380  0.24938  0.32198  1.0000
  H   H54       1.0  0.56922  0.26651  0.27579  1.0000
  N   N18       1.0  0.62341  0.28860  0.25764  1.0000
  O   O35       1.0  0.60998  0.30507  0.30359  1.0000
  O   O36       1.0  0.61452  0.29040  0.17735  1.0000
  C   C109      1.0  0.41582  0.06700  0.34386  1.0000
  N   N19       1.0  0.43405  0.04626  0.34828  1.0000
  C   C110      1.0  0.46618  0.04746  0.35627  1.0000
  N   N20       1.0  0.47967  0.07050  0.36082  1.0000
  C   C111      1.0  0.46237  0.09176  0.35849  1.0000
  N   N21       1.0  0.43070  0.08921  0.34941  1.0000
  C   C112      1.0  0.59231  0.93831  0.34733  1.0000
  N   N22       1.0  0.57448  0.95922  0.35170  1.0000
  C   C113      1.0  0.54232  0.95869  0.35868  1.0000
  N   N23       1.0  0.52825  0.93581  0.36172  1.0000
  C   C114      1.0  0.54507  0.91428  0.35941  1.0000
  N   N24       1.0  0.57685  0.91634  0.35166  1.0000
  C   C115      1.0  0.09176  0.56700  0.33791  1.0000
  N   N25       1.0  0.07352  0.54626  0.33349  1.0000
  C   C116      1.0  0.04140  0.54745  0.32551  1.0000
  N   N26       1.0  0.02791  0.57049  0.32095  1.0000
  C   C117      1.0  0.04520  0.59176  0.32327  1.0000
  N   N27       1.0  0.07687  0.58921  0.33234  1.0000
  C   C118      1.0  0.91526  0.43831  0.33449  1.0000
  N   N28       1.0  0.93310  0.45922  0.33010  1.0000
  C   C119      1.0  0.96526  0.45869  0.32310  1.0000
  N   N29       1.0  0.97932  0.43581  0.32007  1.0000
  C   C120      1.0  0.96250  0.41428  0.32239  1.0000
  N   N30       1.0  0.93072  0.41634  0.33016  1.0000
  C   C121      1.0  0.40171  0.45532  0.33719  1.0000
  N   N31       1.0  0.37818  0.47263  0.33870  1.0000
  C   C122      1.0  0.38344  0.49764  0.34220  1.0000
  N   N32       1.0  0.41436  0.50478  0.34433  1.0000
  C   C123      1.0  0.43920  0.48875  0.34376  1.0000
  N   N33       1.0  0.43169  0.46426  0.34023  1.0000
  C   C124      1.0  0.60719  0.55150  0.33537  1.0000
  N   N34       1.0  0.63067  0.53413  0.33486  1.0000
  C   C125      1.0  0.62509  0.50912  0.33619  1.0000
  N   N35       1.0  0.59422  0.50199  0.33763  1.0000
  C   C126      1.0  0.56974  0.51820  0.33987  1.0000
  N   N36       1.0  0.57723  0.54265  0.33913  1.0000
  C   C127      1.0  0.10586  0.95532  0.34456  1.0000
  N   N37       1.0  0.12939  0.97263  0.34306  1.0000
  C   C128      1.0  0.12413  0.99764  0.33958  1.0000
  N   N38       1.0  0.09321  0.00478  0.33746  1.0000
  C   C129      1.0  0.06837  0.98875  0.33803  1.0000
  N   N39       1.0  0.07588  0.96427  0.34153  1.0000
  C   C130      1.0  0.90038  0.05150  0.34638  1.0000
  N   N40       1.0  0.87689  0.03413  0.34689  1.0000
  C   C131      1.0  0.88248  0.00912  0.34556  1.0000
  N   N41       1.0  0.91334  0.00199  0.34413  1.0000
  C   C132      1.0  0.93782  0.01820  0.34189  1.0000
  N   N42       1.0  0.93033  0.04265  0.34263  1.0000
  C   C133      1.0  0.28239  0.07846  0.33852  1.0000
  N   N43       1.0  0.25898  0.06106  0.33962  1.0000
  C   C134      1.0  0.22789  0.06758  0.34674  1.0000
  N   N44       1.0  0.22120  0.09230  0.35410  1.0000
  C   C135      1.0  0.24355  0.11035  0.35577  1.0000
  N   N45       1.0  0.27380  0.10261  0.34707  1.0000
  C   C136      1.0  0.72599  0.92704  0.34400  1.0000
  N   N46       1.0  0.74927  0.94454  0.34484  1.0000
  C   C137      1.0  0.78045  0.93816  0.35139  1.0000
  N   N47       1.0  0.78746  0.91352  0.35864  1.0000
  C   C138      1.0  0.76519  0.89541  0.36080  1.0000
  N   N48       1.0  0.73486  0.90296  0.35252  1.0000
  C   C139      1.0  0.22519  0.57846  0.34330  1.0000
  N   N49       1.0  0.24859  0.56106  0.34220  1.0000
  C   C140      1.0  0.27969  0.56759  0.33510  1.0000
  N   N50       1.0  0.28637  0.59230  0.32775  1.0000
  C   C141      1.0  0.26402  0.61036  0.32609  1.0000
  N   N51       1.0  0.23378  0.60262  0.33475  1.0000
  C   C142      1.0  0.78159  0.42705  0.33786  1.0000
  N   N52       1.0  0.75830  0.44455  0.33698  1.0000
  C   C143      1.0  0.72712  0.43816  0.33041  1.0000
  N   N53       1.0  0.72011  0.41352  0.32320  1.0000
  C   C144      1.0  0.74238  0.39542  0.32111  1.0000
  N   N54       1.0  0.77272  0.40297  0.32937  1.0000
  C   C145      1.0  0.34133  0.31613  0.36918  1.0000
  N   N55       1.0  0.34659  0.34086  0.35796  1.0000
  C   C146      1.0  0.37647  0.35020  0.34900  1.0000
  N   N56       1.0  0.40108  0.33374  0.35160  1.0000
  C   C147      1.0  0.39697  0.30887  0.36268  1.0000
  N   N57       1.0  0.36683  0.30109  0.37012  1.0000
  C   C148      1.0  0.66629  0.69074  0.37055  1.0000
  N   N58       1.0  0.66114  0.66602  0.35937  1.0000
  C   C149      1.0  0.63133  0.65664  0.35006  1.0000
  N   N59       1.0  0.60665  0.67304  0.35217  1.0000
  C   C150      1.0  0.61066  0.69793  0.36317  1.0000
  N   N60       1.0  0.64077  0.70577  0.37107  1.0000
  C   C151      1.0  0.16622  0.81613  0.31259  1.0000
  N   N61       1.0  0.16097  0.84085  0.32380  1.0000
  C   C152      1.0  0.13109  0.85020  0.33273  1.0000
  N   N62       1.0  0.10647  0.83374  0.33013  1.0000
  C   C153      1.0  0.11058  0.80887  0.31906  1.0000
  N   N63       1.0  0.14072  0.80109  0.31165  1.0000
  C   C154      1.0  0.84127  0.19074  0.31125  1.0000
  N   N64       1.0  0.84642  0.16602  0.32242  1.0000
  C   C155      1.0  0.87623  0.15664  0.33176  1.0000
  N   N65       1.0  0.90091  0.17304  0.32966  1.0000
  C   C156      1.0  0.89689  0.19793  0.31868  1.0000
  N   N66       1.0  0.86679  0.20577  0.31075  1.0000
  C   C157      1.0  0.23142  0.25632  0.36986  1.0000
  N   N67       1.0  0.20100  0.26412  0.36448  1.0000
  C   C158      1.0  0.17645  0.24788  0.35798  1.0000
  N   N68       1.0  0.18358  0.22321  0.35595  1.0000
  C   C159      1.0  0.21354  0.21435  0.36094  1.0000
  N   N69       1.0  0.23689  0.23149  0.36815  1.0000
  C   C160      1.0  0.77686  0.74969  0.37345  1.0000
  N   N70       1.0  0.80723  0.74177  0.36759  1.0000
  C   C161      1.0  0.83184  0.75794  0.36088  1.0000
  N   N71       1.0  0.82487  0.78263  0.35902  1.0000
  C   C162      1.0  0.79498  0.79157  0.36448  1.0000
  N   N72       1.0  0.77155  0.77454  0.37184  1.0000
  C   C163      1.0  0.27614  0.75633  0.31186  1.0000
  N   N73       1.0  0.30656  0.76413  0.31725  1.0000
  C   C164      1.0  0.33111  0.74789  0.32375  1.0000
  N   N74       1.0  0.32399  0.72321  0.32579  1.0000
  C   C165      1.0  0.29403  0.71436  0.32080  1.0000
  N   N75       1.0  0.27068  0.73149  0.31360  1.0000
  C   C166      1.0  0.73070  0.24969  0.30833  1.0000
  N   N76       1.0  0.70033  0.24177  0.31420  1.0000
  C   C167      1.0  0.67572  0.25795  0.32094  1.0000
  N   N77       1.0  0.68270  0.28264  0.32281  1.0000
  C   C168      1.0  0.71259  0.29157  0.31734  1.0000
  N   N78       1.0  0.73602  0.27454  0.30996  1.0000
  C   C169      1.0  0.00915  0.31419  0.32399  1.0000
  N   N79       1.0  0.03998  0.30731  0.33452  1.0000
  C   C170      1.0  0.04880  0.28303  0.34417  1.0000
  N   N80       1.0  0.02566  0.26554  0.34224  1.0000
  C   C171      1.0  0.99479  0.27116  0.33222  1.0000
  N   N81       1.0  0.98756  0.29554  0.32375  1.0000
  C   C172      1.0  0.99926  0.69206  0.32343  1.0000
  N   N82       1.0  0.96840  0.69883  0.33437  1.0000
  C   C173      1.0  0.95946  0.72307  0.34415  1.0000
  N   N83       1.0  0.98246  0.74065  0.34199  1.0000
  C   C174      1.0  0.01333  0.73516  0.33151  1.0000
  N   N84       1.0  0.02073  0.71080  0.32291  1.0000
  C   C175      1.0  0.49842  0.81419  0.35782  1.0000
  N   N85       1.0  0.46758  0.80732  0.34731  1.0000
  C   C176      1.0  0.45877  0.78303  0.33771  1.0000
  N   N86       1.0  0.48190  0.76554  0.33961  1.0000
  C   C177      1.0  0.51277  0.77116  0.34963  1.0000
  N   N87       1.0  0.52001  0.79555  0.35808  1.0000
  C   C178      1.0  0.50830  0.19207  0.35831  1.0000
  N   N88       1.0  0.53916  0.19884  0.34740  1.0000
  C   C179      1.0  0.54811  0.22308  0.33762  1.0000
  N   N89       1.0  0.52510  0.24066  0.33979  1.0000
  C   C180      1.0  0.49423  0.23516  0.35026  1.0000
  N   N90       1.0  0.48683  0.21080  0.35886  1.0000
  C   C181      1.0  0.48517  0.02544  0.35874  1.0000
  C   C182      1.0  0.51768  0.02638  0.38004  1.0000
  C   C183      1.0  0.53704  0.00488  0.38188  1.0000
  C   C184      1.0  0.52400  0.98118  0.36090  1.0000
  H   H55       1.0  0.52782  0.04305  0.39571  1.0000
  N   N91       1.0  0.56915  0.00720  0.40706  1.0000
  O   O37       1.0  0.58422  0.02097  0.35411  1.0000
  O   O38       1.0  0.57216  0.01533  0.48572  1.0000
  C   C185      1.0  0.01626  0.48028  0.34118  1.0000
  C   C186      1.0  0.03516  0.50177  0.34212  1.0000
  H   H56       1.0  0.02686  0.46383  0.35734  1.0000
  H   H57       1.0  0.05847  0.49987  0.35845  1.0000
  C   C187      1.0  0.32931  0.05354  0.37799  1.0000
  C   C188      1.0  0.36242  0.05050  0.38008  1.0000
  H   H58       1.0  0.31575  0.04233  0.41781  1.0000
  H   H59       1.0  0.37186  0.03717  0.42097  1.0000
  C   C189      1.0  0.67882  0.95190  0.38228  1.0000
  C   C190      1.0  0.64569  0.95489  0.38383  1.0000
  H   H60       1.0  0.69232  0.96347  0.42092  1.0000
  H   H61       1.0  0.63618  0.96852  0.42329  1.0000
  C   C191      1.0  0.12513  0.56700  0.34846  1.0000
  C   C192      1.0  0.13944  0.58545  0.40223  1.0000
  C   C193      1.0  0.17253  0.58862  0.40578  1.0000
  C   C194      1.0  0.19240  0.57308  0.35311  1.0000
  H   H62       1.0  0.12559  0.59725  0.43905  1.0000
  N   N92       1.0  0.18573  0.60699  0.46277  1.0000
  O   O39       1.0  0.17595  0.62837  0.44387  1.0000
  O   O40       1.0  0.17968  0.60268  0.54390  1.0000
  C   C195      1.0  0.88182  0.43808  0.34363  1.0000
  C   C196      1.0  0.86739  0.41937  0.39587  1.0000
  C   C197      1.0  0.83427  0.41632  0.39918  1.0000
  C   C198      1.0  0.81446  0.43219  0.34754  1.0000
  H   H63       1.0  0.88115  0.40739  0.43215  1.0000
  N   N93       1.0  0.82100  0.39780  0.45537  1.0000
  O   O41       1.0  0.83064  0.37645  0.43548  1.0000
  O   O42       1.0  0.82708  0.40181  0.53668  1.0000
  C   C199      1.0  0.47537  0.11614  0.36497  1.0000
  C   C200      1.0  0.45676  0.13570  0.39945  1.0000
  C   C201      1.0  0.46732  0.16059  0.40135  1.0000
  C   C202      1.0  0.49769  0.16681  0.36648  1.0000
  H   H64       1.0  0.43473  0.13195  0.42423  1.0000
  N   N94       1.0  0.44727  0.17887  0.43927  1.0000
  O   O43       1.0  0.42157  0.18071  0.39757  1.0000
  O   O44       1.0  0.44167  0.17487  0.52090  1.0000
  C   C203      1.0  0.53165  0.89002  0.36556  1.0000
  C   C204      1.0  0.54968  0.87046  0.40244  1.0000
  C   C205      1.0  0.53895  0.84562  0.40396  1.0000
  C   C206      1.0  0.50898  0.83945  0.36638  1.0000
  H   H65       1.0  0.57143  0.87416  0.42925  1.0000
  N   N95       1.0  0.55843  0.82733  0.44424  1.0000
  O   O45       1.0  0.58463  0.82539  0.40518  1.0000
  O   O46       1.0  0.56304  0.83147  0.52628  1.0000
  C   C207      1.0  0.99066  0.64697  0.34599  1.0000
  C   C208      1.0  0.00148  0.62217  0.34636  1.0000
  H   H66       1.0  0.96879  0.65048  0.37210  1.0000
  H   H67       1.0  0.98719  0.60869  0.37249  1.0000
  C   C209      1.0  0.01732  0.35929  0.34837  1.0000
  C   C210      1.0  0.00633  0.38405  0.34842  1.0000
  H   H68       1.0  0.03892  0.35579  0.37631  1.0000
  H   H69       1.0  0.02020  0.39755  0.37626  1.0000
  C   C211      1.0  0.53758  0.51048  0.34329  1.0000
  C   C212      1.0  0.51418  0.52632  0.37897  1.0000
  C   C213      1.0  0.48175  0.51982  0.38049  1.0000
  C   C214      1.0  0.47167  0.49656  0.34517  1.0000
  H   H70       1.0  0.52069  0.54306  0.40566  1.0000
  N   N96       1.0  0.45996  0.53638  0.42020  1.0000
  O   O47       1.0  0.46182  0.55764  0.38574  1.0000
  O   O48       1.0  0.46471  0.53837  0.50321  1.0000
  C   C215      1.0  0.01213  0.98048  0.37032  1.0000
  C   C216      1.0  0.97998  0.98717  0.37097  1.0000
  H   H71       1.0  0.01798  0.96362  0.39704  1.0000
  H   H72       1.0  0.96401  0.97504  0.39791  1.0000
  C   C217      1.0  0.36543  0.41983  0.35781  1.0000
  C   C218      1.0  0.35885  0.39420  0.36088  1.0000
  H   H73       1.0  0.34771  0.43178  0.37523  1.0000
  H   H74       1.0  0.33675  0.38875  0.38017  1.0000
  C   C219      1.0  0.64312  0.58709  0.35710  1.0000
  C   C220      1.0  0.64942  0.61275  0.36085  1.0000
  H   H75       1.0  0.66100  0.57519  0.37358  1.0000
  H   H76       1.0  0.67152  0.61830  0.37975  1.0000
  C   C221      1.0  0.12528  0.87631  0.34036  1.0000
  C   C222      1.0  0.09525  0.88542  0.36547  1.0000
  C   C223      1.0  0.08827  0.91114  0.36950  1.0000
  C   C224      1.0  0.11182  0.92901  0.34687  1.0000
  H   H77       1.0  0.07773  0.87316  0.38179  1.0000
  N   N97       1.0  0.05781  0.91867  0.39781  1.0000
  O   O49       1.0  0.03653  0.91084  0.34627  1.0000
  O   O50       1.0  0.05186  0.91180  0.47669  1.0000
  C   C225      1.0  0.88181  0.13052  0.33956  1.0000
  C   C226      1.0  0.91181  0.12131  0.36428  1.0000
  C   C227      1.0  0.91854  0.09557  0.36902  1.0000
  C   C228      1.0  0.89470  0.07781  0.34742  1.0000
  H   H78       1.0  0.92949  0.13350  0.37996  1.0000
  N   N98       1.0  0.94900  0.08795  0.39718  1.0000
  O   O51       1.0  0.97027  0.09547  0.34498  1.0000
  O   O52       1.0  0.95519  0.09501  0.47569  1.0000
  C   C229      1.0  0.30501  0.54993  0.33777  1.0000
  C   C230      1.0  0.33645  0.55799  0.34980  1.0000
  C   C231      1.0  0.36244  0.54147  0.35257  1.0000
  C   C232      1.0  0.35782  0.51540  0.34227  1.0000
  H   H79       1.0  0.34100  0.57650  0.35793  1.0000
  N   N99       1.0  0.39277  0.55161  0.36670  1.0000
  O   O53       1.0  0.40041  0.56634  0.30487  1.0000
  O   O54       1.0  0.39459  0.56263  0.44103  1.0000
  C   C233      1.0  0.70202  0.45596  0.33316  1.0000
  C   C234      1.0  0.67074  0.44849  0.35241  1.0000
  C   C235      1.0  0.64513  0.46538  0.35514  1.0000
  C   C236      1.0  0.65019  0.49107  0.33662  1.0000
  H   H80       1.0  0.66617  0.43026  0.36659  1.0000
  N   N100      1.0  0.61482  0.45631  0.37853  1.0000
  O   O55       1.0  0.60492  0.44038  0.32366  1.0000
  O   O56       1.0  0.61421  0.44731  0.45641  1.0000
  C   C237      1.0  0.18146  0.00733  0.35057  1.0000
  C   C238      1.0  0.20714  0.02405  0.35239  1.0000
  H   H81       1.0  0.18641  0.98888  0.35826  1.0000
  H   H82       1.0  0.22936  0.01707  0.36134  1.0000
  C   C239      1.0  0.82588  0.99854  0.36324  1.0000
  C   C240      1.0  0.80061  0.98151  0.36450  1.0000
  H   H83       1.0  0.82084  0.01671  0.37692  1.0000
  H   H84       1.0  0.77850  0.98796  0.37906  1.0000
  C   C241      1.0  0.22051  0.18840  0.36207  1.0000
  C   C242      1.0  0.24979  0.17965  0.39477  1.0000
  C   C243      1.0  0.25779  0.15412  0.39568  1.0000
  C   C244      1.0  0.23608  0.13624  0.36170  1.0000
  H   H85       1.0  0.26582  0.19198  0.42005  1.0000
  N   N101      1.0  0.28686  0.14654  0.43399  1.0000
  O   O57       1.0  0.31008  0.15640  0.39550  1.0000
  O   O58       1.0  0.28814  0.15160  0.51631  1.0000
  C   C245      1.0  0.78816  0.81750  0.36611  1.0000
  C   C246      1.0  0.75922  0.82627  0.40107  1.0000
  C   C247      1.0  0.75131  0.85180  0.40251  1.0000
  C   C248      1.0  0.77275  0.86959  0.36669  1.0000
  H   H86       1.0  0.74343  0.81398  0.42773  1.0000
  N   N102      1.0  0.72264  0.85945  0.44307  1.0000
  O   O59       1.0  0.69902  0.84964  0.40646  1.0000
  O   O60       1.0  0.72213  0.85441  0.52548  1.0000
  C   C249      1.0  0.30122  0.64495  0.35039  1.0000
  C   C250      1.0  0.30887  0.67041  0.34997  1.0000
  H   H87       1.0  0.31752  0.63283  0.37574  1.0000
  H   H88       1.0  0.33040  0.67571  0.37443  1.0000
  C   C251      1.0  0.70539  0.36088  0.34754  1.0000
  C   C252      1.0  0.69779  0.33543  0.34752  1.0000
  H   H89       1.0  0.68930  0.37299  0.37409  1.0000
  H   H90       1.0  0.67651  0.33007  0.37351  1.0000
  C   C253      1.0  0.31158  0.30442  0.38034  1.0000
  C   C254      1.0  0.30930  0.28353  0.43753  1.0000
  C   C255      1.0  0.28277  0.26770  0.43726  1.0000
  C   C256      1.0  0.25702  0.27315  0.37944  1.0000
  H   H91       1.0  0.32780  0.27903  0.47856  1.0000
  N   N103      1.0  0.28211  0.24657  0.49409  1.0000
  O   O61       1.0  0.30421  0.23179  0.47653  1.0000
  O   O62       1.0  0.28375  0.25250  0.57558  1.0000
  C   C257      1.0  0.69607  0.70233  0.38211  1.0000
  C   C258      1.0  0.69836  0.72325  0.43908  1.0000
  C   C259      1.0  0.72513  0.73882  0.43961  1.0000
  C   C260      1.0  0.75106  0.73306  0.38280  1.0000
  H   H92       1.0  0.67973  0.72798  0.47927  1.0000
  N   N104      1.0  0.72581  0.75998  0.49625  1.0000
  O   O63       1.0  0.70392  0.77490  0.47792  1.0000
  O   O64       1.0  0.72381  0.75412  0.57773  1.0000
  C   C261      1.0  0.24947  0.79520  0.35415  1.0000
  C   C262      1.0  0.22247  0.81053  0.35434  1.0000
  H   H93       1.0  0.26744  0.79936  0.39752  1.0000
  H   H94       1.0  0.22150  0.82516  0.39804  1.0000
  C   C263      1.0  0.75767  0.21099  0.35064  1.0000
  C   C264      1.0  0.78485  0.19588  0.35143  1.0000
  H   H95       1.0  0.73954  0.20659  0.39316  1.0000
  H   H96       1.0  0.78582  0.18117  0.39480  1.0000
  C   C265      1.0  0.47077  0.25398  0.35567  1.0000
  C   C266      1.0  0.44193  0.24907  0.39941  1.0000
  C   C267      1.0  0.41767  0.26697  0.40555  1.0000
  C   C268      1.0  0.42178  0.29085  0.36557  1.0000
  H   H97       1.0  0.43833  0.23220  0.42909  1.0000
  N   N105      1.0  0.38985  0.26073  0.45346  1.0000
  O   O65       1.0  0.39528  0.25613  0.53478  1.0000
  O   O66       1.0  0.37573  0.24255  0.41898  1.0000
  C   C269      1.0  0.53641  0.75247  0.35511  1.0000
  C   C270      1.0  0.56526  0.75759  0.39850  1.0000
  C   C271      1.0  0.58969  0.73983  0.40490  1.0000
  C   C272      1.0  0.58574  0.71587  0.36551  1.0000
  H   H98       1.0  0.56873  0.77451  0.42793  1.0000
  N   N106      1.0  0.61748  0.74629  0.45255  1.0000
  O   O67       1.0  0.61206  0.75102  0.53378  1.0000
  O   O68       1.0  0.63147  0.76445  0.41755  1.0000
  C   C273      1.0  0.05636  0.79606  0.35717  1.0000
  C   C274      1.0  0.03231  0.77803  0.36178  1.0000
  H   H99       1.0  0.05243  0.81287  0.38707  1.0000
  H   H100      1.0  0.01178  0.78247  0.39413  1.0000
  C   C275      1.0  0.95123  0.21045  0.35708  1.0000
  C   C276      1.0  0.97545  0.22833  0.36186  1.0000
  H   H101      1.0  0.95508  0.19355  0.38640  1.0000
  H   H102      1.0  0.99599  0.22373  0.39385  1.0000
  C   C277      1.0  0.08074  0.27494  0.35205  1.0000
  C   C278      1.0  0.08776  0.25068  0.38262  1.0000
  C   C279      1.0  0.11889  0.24129  0.38605  1.0000
  C   C280      1.0  0.14450  0.25645  0.35739  1.0000
  H   H103      1.0  0.06992  0.23930  0.40375  1.0000
  N   N107      1.0  0.12411  0.21708  0.42028  1.0000
  O   O69       1.0  0.11056  0.20077  0.37385  1.0000
  O   O70       1.0  0.11535  0.21504  0.50061  1.0000
  C   C281      1.0  0.92751  0.73102  0.35291  1.0000
  C   C282      1.0  0.92050  0.75516  0.38466  1.0000
  C   C283      1.0  0.88936  0.76449  0.38889  1.0000
  C   C284      1.0  0.86377  0.74937  0.35984  1.0000
  H   H104      1.0  0.93834  0.76649  0.40609  1.0000
  N   N108      1.0  0.88415  0.78858  0.42427  1.0000
  O   O71       1.0  0.89759  0.80506  0.37836  1.0000
  O   O72       1.0  0.89304  0.79037  0.50456  1.0000
  C   C285      1.0  0.37001  0.78101  0.35263  1.0000
  C   C286      1.0  0.40116  0.79008  0.35526  1.0000
  H   H105      1.0  0.35238  0.79253  0.37411  1.0000
  H   H106      1.0  0.40494  0.80768  0.37865  1.0000
  C   C287      1.0  0.63687  0.22493  0.35130  1.0000
  C   C288      1.0  0.60570  0.21592  0.35464  1.0000
  H   H107      1.0  0.65452  0.21345  0.37299  1.0000
  H   H108      1.0  0.60189  0.19840  0.37879  1.0000
