data_image0
_chemical_formula_structural       C2HC6H3C2NCNC2H3CH3C2NCNC2H3CH3C2NCNC2H3CH3C2HC6H3C2HC6H3C2HC6H3C2HC6H3C2NCNC2H3CH3C2NCNC2H3CH3C2HC6H3C2HC6H3C2NCNC2H3CH3C2NCNC2H3CH3C2HC6H3C2HC6H3C2NCNC2H3CH3C2NCNC2H3CH3C2HC6H3C2HC6H3C2NCNC2H3CH3C2NCNC2H3CH3C2NCNC2H3CH3C2HC6H3CNCNCNCNCNCNCNCNCNCNCNCNCNCNCNCNCNCNCNCNCNCNCNCNCNCNCNCNCNCNCNCNCNCNCNCNCNCNCNCNCNCNCNCNCNCNCNCNC2NCNC2H3CH3C2HC6H3C2HC6H3C2HC6H3C2NCNC2H3CH3C2NCNC2H3CH3C2NCNC2H3CH3C2NCNC2H3CH3C2HC6H3C2HC6H3C2NCNC2H3CH3C2NCNC2H3CH3C2HC6H3C2HC6H3C2NCNC2H3CH3C2NCNC2H3CH3C2HC6H3C2HC6H3C2NCNC2H3CH3C2NCNC2H3CH3C2HC6H3C2HC6H3C2HC6H3C2NCNC2H3CH3
_chemical_formula_sum              "C384 H240 N96"
_cell_length_a       80.952
_cell_length_b       41.7371
_cell_length_c       14.8725
_cell_angle_alpha    90
_cell_angle_beta     90
_cell_angle_gamma    90

_space_group_name_H-M_alt    "P 1"
_space_group_IT_number       1

loop_
  _space_group_symop_operation_xyz
  'x, y, z'

loop_
  _atom_site_type_symbol
  _atom_site_label
  _atom_site_symmetry_multiplicity
  _atom_site_fract_x
  _atom_site_fract_y
  _atom_site_fract_z
  _atom_site_occupancy
  C   C1        1.0  0.49555  0.47470  0.25963  1.0000
  C   C2        1.0  0.48700  0.44516  0.26209  1.0000
  H   H1        1.0  0.48402  0.43398  0.20288  1.0000
  C   C3        1.0  0.50865  0.51903  0.34191  1.0000
  C   C4        1.0  0.52577  0.57811  0.34347  1.0000
  C   C5        1.0  0.52150  0.56339  0.26109  1.0000
  C   C6        1.0  0.51297  0.53383  0.25914  1.0000
  C   C7        1.0  0.50852  0.51886  0.17751  1.0000
  C   C8        1.0  0.49992  0.48958  0.17774  1.0000
  H   H2        1.0  0.51150  0.52917  0.11720  1.0000
  H   H3        1.0  0.49686  0.47923  0.11760  1.0000
  H   H4        1.0  0.52441  0.57456  0.20175  1.0000
  C   C9        1.0  0.02576  0.93049  0.33914  1.0000
  C   C10       1.0  0.02101  0.94618  0.25834  1.0000
  N   N1        1.0  0.01281  0.97464  0.26369  1.0000
  C   C11       1.0  0.00861  0.98955  0.34170  1.0000
  N   N2        1.0  0.99566  0.03400  0.26408  1.0000
  C   C12       1.0  0.98748  0.06250  0.25940  1.0000
  C   C13       1.0  0.02407  0.93385  0.16647  1.0000
  H   H5        1.0  0.03079  0.91121  0.16598  1.0000
  H   H6        1.0  0.03130  0.95133  0.12867  1.0000
  H   H7        1.0  0.01230  0.93019  0.13224  1.0000
  C   C14       1.0  0.98405  0.07598  0.16927  1.0000
  H   H8        1.0  0.98853  0.06020  0.11601  1.0000
  H   H9        1.0  0.99015  0.09915  0.16206  1.0000
  H   H10       1.0  0.97077  0.07915  0.16048  1.0000
  C   C15       1.0  0.43530  0.35905  0.33929  1.0000
  C   C16       1.0  0.42632  0.35371  0.25850  1.0000
  N   N3        1.0  0.41015  0.34483  0.26382  1.0000
  C   C17       1.0  0.40168  0.34043  0.34181  1.0000
  N   N4        1.0  0.37656  0.32516  0.26418  1.0000
  C   C18       1.0  0.36053  0.31527  0.25949  1.0000
  C   C19       1.0  0.43323  0.35651  0.16664  1.0000
  H   H11       1.0  0.44613  0.36400  0.16616  1.0000
  H   H12       1.0  0.42613  0.37411  0.12858  1.0000
  H   H13       1.0  0.43237  0.33339  0.13268  1.0000
  C   C20       1.0  0.35322  0.31038  0.16933  1.0000
  H   H14       1.0  0.36208  0.31578  0.11609  1.0000
  H   H15       1.0  0.34253  0.32603  0.16083  1.0000
  H   H16       1.0  0.34930  0.28550  0.16183  1.0000
  C   C21       1.0  0.57329  0.64954  0.33899  1.0000
  C   C22       1.0  0.58228  0.65485  0.25822  1.0000
  N   N5        1.0  0.59845  0.66372  0.26359  1.0000
  C   C23       1.0  0.60691  0.66814  0.34161  1.0000
  N   N6        1.0  0.63204  0.68339  0.26404  1.0000
  C   C24       1.0  0.64807  0.69327  0.25938  1.0000
  C   C25       1.0  0.57538  0.65202  0.16635  1.0000
  H   H17       1.0  0.56247  0.64454  0.16584  1.0000
  H   H18       1.0  0.58249  0.63440  0.12837  1.0000
  H   H19       1.0  0.57625  0.67513  0.13232  1.0000
  C   C26       1.0  0.65539  0.69815  0.16925  1.0000
  H   H20       1.0  0.64653  0.69274  0.11598  1.0000
  H   H21       1.0  0.66608  0.68250  0.16080  1.0000
  H   H22       1.0  0.65931  0.72303  0.16173  1.0000
  C   C27       1.0  0.09842  0.84541  0.25955  1.0000
  C   C28       1.0  0.08162  0.85463  0.26199  1.0000
  H   H23       1.0  0.07531  0.85755  0.20277  1.0000
  C   C29       1.0  0.12364  0.83054  0.34183  1.0000
  C   C30       1.0  0.15694  0.81001  0.34341  1.0000
  C   C31       1.0  0.14867  0.81531  0.26103  1.0000
  C   C32       1.0  0.13202  0.82557  0.25908  1.0000
  C   C33       1.0  0.12352  0.83070  0.17745  1.0000
  C   C34       1.0  0.10689  0.84049  0.17768  1.0000
  H   H24       1.0  0.12933  0.82715  0.11713  1.0000
  H   H25       1.0  0.10098  0.84381  0.11753  1.0000
  H   H26       1.0  0.15481  0.81146  0.20169  1.0000
  C   C35       1.0  0.91013  0.16317  0.25969  1.0000
  C   C36       1.0  0.92693  0.15395  0.26217  1.0000
  H   H27       1.0  0.93326  0.15107  0.20297  1.0000
  C   C37       1.0  0.88491  0.17802  0.34194  1.0000
  C   C38       1.0  0.85161  0.19857  0.34345  1.0000
  C   C39       1.0  0.85989  0.19328  0.26108  1.0000
  C   C40       1.0  0.87653  0.18302  0.25917  1.0000
  C   C41       1.0  0.88505  0.17791  0.17755  1.0000
  C   C42       1.0  0.90168  0.16811  0.17781  1.0000
  H   H28       1.0  0.87924  0.18146  0.11722  1.0000
  H   H29       1.0  0.90759  0.16479  0.11767  1.0000
  H   H30       1.0  0.85376  0.19715  0.20173  1.0000
  C   C43       1.0  0.50582  0.27652  0.25885  1.0000
  C   C44       1.0  0.49537  0.30358  0.26141  1.0000
  H   H31       1.0  0.49143  0.31365  0.20228  1.0000
  C   C45       1.0  0.52133  0.23540  0.34141  1.0000
  C   C46       1.0  0.54091  0.17963  0.34394  1.0000
  C   C47       1.0  0.53619  0.19350  0.26118  1.0000
  C   C48       1.0  0.52640  0.22149  0.25877  1.0000
  C   C49       1.0  0.52120  0.23536  0.17694  1.0000
  C   C50       1.0  0.51102  0.26267  0.17698  1.0000
  H   H32       1.0  0.52466  0.22555  0.11673  1.0000
  H   H33       1.0  0.50731  0.27216  0.11681  1.0000
  H   H34       1.0  0.53946  0.18255  0.20206  1.0000
  C   C51       1.0  0.50278  0.73213  0.25819  1.0000
  C   C52       1.0  0.51325  0.70508  0.26074  1.0000
  H   H35       1.0  0.51722  0.69506  0.20161  1.0000
  C   C53       1.0  0.48722  0.77315  0.34076  1.0000
  C   C54       1.0  0.46761  0.82889  0.34335  1.0000
  C   C55       1.0  0.47239  0.81510  0.26056  1.0000
  C   C56       1.0  0.48219  0.78712  0.25813  1.0000
  C   C57       1.0  0.48744  0.77333  0.17630  1.0000
  C   C58       1.0  0.49763  0.74603  0.17633  1.0000
  H   H36       1.0  0.48401  0.78319  0.11610  1.0000
  H   H37       1.0  0.50137  0.73659  0.11615  1.0000
  H   H38       1.0  0.46918  0.82613  0.20147  1.0000
  C   C59       1.0  0.01840  0.81676  0.33955  1.0000
  C   C60       1.0  0.01284  0.80223  0.25864  1.0000
  N   N7        1.0  0.00278  0.77618  0.26414  1.0000
  C   C61       1.0  0.99751  0.76279  0.34232  1.0000
  N   N8        1.0  0.98249  0.72130  0.26412  1.0000
  C   C62       1.0  0.97310  0.69433  0.25893  1.0000
  C   C63       1.0  0.01717  0.81298  0.16672  1.0000
  H   H39       1.0  0.02522  0.83392  0.16619  1.0000
  H   H40       1.0  0.00591  0.81905  0.13015  1.0000
  H   H41       1.0  0.02347  0.79363  0.13125  1.0000
  C   C64       1.0  0.96945  0.68120  0.16860  1.0000
  H   H42       1.0  0.97461  0.69630  0.11560  1.0000
  H   H43       1.0  0.95611  0.67978  0.15882  1.0000
  H   H44       1.0  0.97475  0.65728  0.16197  1.0000
  C   C65       1.0  0.99016  0.19184  0.34027  1.0000
  C   C66       1.0  0.99576  0.20631  0.25936  1.0000
  N   N9        1.0  0.00584  0.23234  0.26486  1.0000
  C   C67       1.0  0.01107  0.24577  0.34306  1.0000
  N   N10       1.0  0.02618  0.28715  0.26486  1.0000
  C   C68       1.0  0.03559  0.31410  0.25967  1.0000
  C   C69       1.0  0.99146  0.19551  0.16743  1.0000
  H   H45       1.0  0.98339  0.17461  0.16689  1.0000
  H   H46       1.0  0.00274  0.18939  0.13104  1.0000
  H   H47       1.0  0.98520  0.21487  0.13178  1.0000
  C   C70       1.0  0.03931  0.32710  0.16930  1.0000
  H   H48       1.0  0.03418  0.31195  0.11632  1.0000
  H   H49       1.0  0.05266  0.32850  0.15980  1.0000
  H   H50       1.0  0.03402  0.35103  0.16233  1.0000
  C   C71       1.0  0.31026  0.17182  0.25994  1.0000
  C   C72       1.0  0.31223  0.20550  0.26226  1.0000
  H   H51       1.0  0.31316  0.21792  0.20300  1.0000
  C   C73       1.0  0.30760  0.12094  0.34228  1.0000
  C   C74       1.0  0.30503  0.05322  0.34371  1.0000
  C   C75       1.0  0.30568  0.07015  0.26143  1.0000
  C   C76       1.0  0.30692  0.10397  0.25954  1.0000
  C   C77       1.0  0.30784  0.12116  0.17792  1.0000
  C   C78       1.0  0.30948  0.15472  0.17811  1.0000
  H   H52       1.0  0.30744  0.10936  0.11761  1.0000
  H   H53       1.0  0.31023  0.16655  0.11794  1.0000
  H   H54       1.0  0.30563  0.05766  0.20208  1.0000
  C   C79       1.0  0.69832  0.83675  0.25995  1.0000
  C   C80       1.0  0.69635  0.80307  0.26228  1.0000
  H   H55       1.0  0.69542  0.79065  0.20302  1.0000
  C   C81       1.0  0.70098  0.88763  0.34228  1.0000
  C   C82       1.0  0.70355  0.95535  0.34371  1.0000
  C   C83       1.0  0.70290  0.93842  0.26142  1.0000
  C   C84       1.0  0.70166  0.90461  0.25955  1.0000
  C   C85       1.0  0.70074  0.88741  0.17793  1.0000
  C   C86       1.0  0.69910  0.85385  0.17813  1.0000
  H   H56       1.0  0.70113  0.89921  0.11761  1.0000
  H   H57       1.0  0.69835  0.84202  0.11796  1.0000
  H   H58       1.0  0.70293  0.95091  0.20207  1.0000
  C   C87       1.0  0.19537  0.72228  0.33906  1.0000
  C   C88       1.0  0.19638  0.70417  0.25823  1.0000
  N   N11       1.0  0.19827  0.67176  0.26345  1.0000
  C   C89       1.0  0.19929  0.65479  0.34133  1.0000
  N   N12       1.0  0.20158  0.60383  0.26375  1.0000
  C   C90       1.0  0.20278  0.57127  0.25915  1.0000
  C   C91       1.0  0.19535  0.71773  0.16639  1.0000
  H   H59       1.0  0.19393  0.74371  0.16598  1.0000
  H   H60       1.0  0.18480  0.70732  0.13132  1.0000
  H   H61       1.0  0.20659  0.71184  0.12936  1.0000
  C   C92       1.0  0.20285  0.55625  0.16901  1.0000
  H   H62       1.0  0.20227  0.57423  0.11575  1.0000
  H   H63       1.0  0.19221  0.54039  0.16192  1.0000
  H   H64       1.0  0.21415  0.54233  0.16011  1.0000
  C   C93       1.0  0.81319  0.28631  0.33906  1.0000
  C   C94       1.0  0.81217  0.30442  0.25824  1.0000
  N   N13       1.0  0.81029  0.33683  0.26346  1.0000
  C   C95       1.0  0.80927  0.35379  0.34135  1.0000
  N   N14       1.0  0.80699  0.40476  0.26378  1.0000
  C   C96       1.0  0.80581  0.43732  0.25918  1.0000
  C   C97       1.0  0.81320  0.29086  0.16639  1.0000
  H   H65       1.0  0.81463  0.26489  0.16597  1.0000
  H   H66       1.0  0.82376  0.30128  0.13132  1.0000
  H   H67       1.0  0.80197  0.29675  0.12937  1.0000
  C   C98       1.0  0.80573  0.45235  0.16904  1.0000
  H   H68       1.0  0.80630  0.43437  0.11578  1.0000
  H   H69       1.0  0.81639  0.46818  0.16192  1.0000
  H   H70       1.0  0.79444  0.46629  0.16018  1.0000
  C   C99       1.0  0.27398  0.36635  0.26021  1.0000
  C   C100      1.0  0.28682  0.34336  0.26248  1.0000
  H   H71       1.0  0.29166  0.33506  0.20319  1.0000
  C   C101      1.0  0.25459  0.40104  0.34254  1.0000
  C   C102      1.0  0.22872  0.44685  0.34383  1.0000
  C   C103      1.0  0.23525  0.43549  0.26160  1.0000
  C   C104      1.0  0.24818  0.41268  0.25979  1.0000
  C   C105      1.0  0.25475  0.40098  0.17819  1.0000
  C   C106      1.0  0.26752  0.37811  0.17840  1.0000
  H   H72       1.0  0.25028  0.40901  0.11786  1.0000
  H   H73       1.0  0.27205  0.37006  0.11822  1.0000
  H   H74       1.0  0.23037  0.44360  0.20220  1.0000
  C   C107      1.0  0.73462  0.64223  0.26024  1.0000
  C   C108      1.0  0.72178  0.66522  0.26250  1.0000
  H   H75       1.0  0.71693  0.67352  0.20321  1.0000
  C   C109      1.0  0.75400  0.60754  0.34259  1.0000
  C   C110      1.0  0.77986  0.56171  0.34389  1.0000
  C   C111      1.0  0.77333  0.57307  0.26166  1.0000
  C   C112      1.0  0.76040  0.59589  0.25984  1.0000
  C   C113      1.0  0.75384  0.60760  0.17823  1.0000
  C   C114      1.0  0.74107  0.63047  0.17842  1.0000
  H   H76       1.0  0.75831  0.59957  0.11791  1.0000
  H   H77       1.0  0.73655  0.63852  0.11824  1.0000
  H   H78       1.0  0.77822  0.56497  0.20226  1.0000
  C   C115      1.0  0.21544  0.83172  0.33890  1.0000
  C   C116      1.0  0.22239  0.84396  0.25807  1.0000
  N   N15       1.0  0.23473  0.86615  0.26324  1.0000
  C   C117      1.0  0.24113  0.87791  0.34109  1.0000
  N   N16       1.0  0.26063  0.91243  0.26357  1.0000
  C   C118      1.0  0.27310  0.93436  0.25903  1.0000
  C   C119      1.0  0.21721  0.83462  0.16625  1.0000
  H   H79       1.0  0.20735  0.81683  0.16588  1.0000
  H   H80       1.0  0.22776  0.82461  0.13019  1.0000
  H   H81       1.0  0.21284  0.85575  0.13015  1.0000
  C   C120      1.0  0.27915  0.94381  0.16894  1.0000
  H   H82       1.0  0.27229  0.93171  0.11563  1.0000
  H   H83       1.0  0.29218  0.93756  0.16206  1.0000
  H   H84       1.0  0.27773  0.96962  0.15993  1.0000
  C   C121      1.0  0.79311  0.17687  0.33889  1.0000
  C   C122      1.0  0.78616  0.16463  0.25805  1.0000
  N   N17       1.0  0.77382  0.14245  0.26321  1.0000
  C   C123      1.0  0.76742  0.13068  0.34105  1.0000
  N   N18       1.0  0.74792  0.09616  0.26353  1.0000
  C   C124      1.0  0.73545  0.07423  0.25898  1.0000
  C   C125      1.0  0.79134  0.17398  0.16623  1.0000
  H   H85       1.0  0.80120  0.19177  0.16587  1.0000
  H   H86       1.0  0.78080  0.18399  0.13017  1.0000
  H   H87       1.0  0.79572  0.15285  0.13014  1.0000
  C   C126      1.0  0.72940  0.06478  0.16889  1.0000
  H   H88       1.0  0.73626  0.07690  0.11558  1.0000
  H   H89       1.0  0.71637  0.07103  0.16201  1.0000
  H   H90       1.0  0.73083  0.03898  0.15986  1.0000
  C   C127      1.0  0.14564  0.44099  0.25864  1.0000
  C   C128      1.0  0.16188  0.45333  0.26129  1.0000
  H   H91       1.0  0.16790  0.45818  0.20218  1.0000
  C   C129      1.0  0.12102  0.42307  0.34100  1.0000
  C   C130      1.0  0.08808  0.40128  0.34316  1.0000
  C   C131      1.0  0.09624  0.40652  0.26051  1.0000
  C   C132      1.0  0.11276  0.41737  0.25828  1.0000
  C   C133      1.0  0.12107  0.42338  0.17653  1.0000
  C   C134      1.0  0.13737  0.43505  0.17672  1.0000
  H   H92       1.0  0.11528  0.41956  0.11627  1.0000
  H   H93       1.0  0.14309  0.43945  0.11658  1.0000
  H   H94       1.0  0.08997  0.40321  0.20132  1.0000
  C   C135      1.0  0.86295  0.56760  0.25864  1.0000
  C   C136      1.0  0.84671  0.55526  0.26132  1.0000
  H   H95       1.0  0.84068  0.55040  0.20223  1.0000
  C   C137      1.0  0.88757  0.58553  0.34096  1.0000
  C   C138      1.0  0.92051  0.60734  0.34307  1.0000
  C   C139      1.0  0.91234  0.60210  0.26043  1.0000
  C   C140      1.0  0.89582  0.59122  0.25823  1.0000
  C   C141      1.0  0.88751  0.58520  0.17650  1.0000
  C   C142      1.0  0.87121  0.57352  0.17671  1.0000
  H   H96       1.0  0.89330  0.58901  0.11623  1.0000
  H   H97       1.0  0.86549  0.56912  0.11658  1.0000
  H   H98       1.0  0.91861  0.60536  0.20123  1.0000
  C   C143      1.0  0.33875  0.95946  0.33971  1.0000
  C   C144      1.0  0.34749  0.95297  0.25888  1.0000
  N   N19       1.0  0.36312  0.94110  0.26443  1.0000
  C   C145      1.0  0.37117  0.93483  0.34264  1.0000
  N   N20       1.0  0.39584  0.91779  0.26466  1.0000
  C   C146      1.0  0.41175  0.90738  0.25963  1.0000
  C   C147      1.0  0.34104  0.95836  0.16692  1.0000
  H   H99       1.0  0.32848  0.96773  0.16631  1.0000
  H   H100      1.0  0.34110  0.93577  0.12996  1.0000
  H   H101      1.0  0.34897  0.97543  0.13189  1.0000
  C   C148      1.0  0.41922  0.90371  0.16937  1.0000
  H   H102      1.0  0.41037  0.90938  0.11627  1.0000
  H   H103      1.0  0.42337  0.87906  0.16002  1.0000
  H   H104      1.0  0.42978  0.91979  0.16247  1.0000
  C   C149      1.0  0.66981  0.04909  0.33966  1.0000
  C   C150      1.0  0.66107  0.05561  0.25885  1.0000
  N   N21       1.0  0.64544  0.06749  0.26446  1.0000
  C   C151      1.0  0.63739  0.07375  0.34269  1.0000
  N   N22       1.0  0.61271  0.09080  0.26479  1.0000
  C   C152      1.0  0.59680  0.10121  0.25982  1.0000
  C   C153      1.0  0.66751  0.05024  0.16688  1.0000
  H   H105      1.0  0.68007  0.04086  0.16623  1.0000
  H   H106      1.0  0.66746  0.07284  0.12997  1.0000
  H   H107      1.0  0.65957  0.03319  0.13183  1.0000
  C   C154      1.0  0.58933  0.10488  0.16957  1.0000
  H   H108      1.0  0.59817  0.09922  0.11645  1.0000
  H   H109      1.0  0.58518  0.12954  0.16024  1.0000
  H   H110      1.0  0.57877  0.08880  0.16271  1.0000
  C   C155      1.0  0.97558  0.56717  0.34002  1.0000
  C   C156      1.0  0.98186  0.55377  0.25924  1.0000
  N   N23       1.0  0.99294  0.52942  0.26529  1.0000
  C   C157      1.0  0.99852  0.51689  0.34390  1.0000
  N   N24       1.0  0.01583  0.47927  0.26569  1.0000
  C   C158      1.0  0.02690  0.45488  0.26031  1.0000
  C   C159      1.0  0.97744  0.56417  0.16711  1.0000
  H   H111      1.0  0.96845  0.58362  0.16620  1.0000
  H   H112      1.0  0.97220  0.54398  0.13022  1.0000
  H   H113      1.0  0.98852  0.57233  0.13220  1.0000
  C   C160      1.0  0.03190  0.44369  0.16987  1.0000
  H   H114      1.0  0.02581  0.45745  0.11693  1.0000
  H   H115      1.0  0.02859  0.41852  0.16152  1.0000
  H   H116      1.0  0.04523  0.44632  0.16171  1.0000
  C   C161      1.0  0.51599  0.02956  0.25751  1.0000
  C   C162      1.0  0.52752  0.05484  0.26059  1.0000
  H   H117      1.0  0.53185  0.06450  0.20169  1.0000
  C   C163      1.0  0.49847  0.99170  0.33973  1.0000
  C   C164      1.0  0.47558  0.94137  0.34259  1.0000
  C   C165      1.0  0.48121  0.95359  0.25956  1.0000
  C   C166      1.0  0.49272  0.97892  0.25701  1.0000
  C   C167      1.0  0.49866  0.99162  0.17520  1.0000
  C   C168      1.0  0.51021  0.01679  0.17544  1.0000
  H   H118      1.0  0.49465  0.98266  0.11495  1.0000
  H   H119      1.0  0.51436  0.02566  0.11537  1.0000
  H   H120      1.0  0.47701  0.94383  0.20054  1.0000
  C   C169      1.0  0.45252  0.36481  0.34070  1.0000
  N   N25       1.0  0.45897  0.39499  0.34172  1.0000
  C   C170      1.0  0.47565  0.39957  0.34332  1.0000
  N   N26       1.0  0.48581  0.37366  0.34408  1.0000
  C   C171      1.0  0.47955  0.34349  0.34305  1.0000
  N   N27       1.0  0.46293  0.33928  0.34141  1.0000
  C   C172      1.0  0.55607  0.64378  0.34037  1.0000
  N   N28       1.0  0.54961  0.61361  0.34115  1.0000
  C   C173      1.0  0.53293  0.60904  0.34252  1.0000
  N   N29       1.0  0.52278  0.63497  0.34316  1.0000
  C   C174      1.0  0.52904  0.66513  0.34238  1.0000
  N   N30       1.0  0.54566  0.66933  0.34102  1.0000
  C   C175      1.0  0.05605  0.86482  0.34312  1.0000
  N   N31       1.0  0.04959  0.89499  0.34212  1.0000
  C   C176      1.0  0.03291  0.89956  0.34048  1.0000
  N   N32       1.0  0.02276  0.87364  0.33970  1.0000
  C   C177      1.0  0.02902  0.84347  0.34074  1.0000
  N   N33       1.0  0.04564  0.83928  0.34240  1.0000
  C   C178      1.0  0.95251  0.14378  0.34343  1.0000
  N   N34       1.0  0.95897  0.11361  0.34265  1.0000
  C   C179      1.0  0.97565  0.10904  0.34129  1.0000
  N   N35       1.0  0.98579  0.13497  0.34067  1.0000
  C   C180      1.0  0.97953  0.16513  0.34144  1.0000
  N   N36       1.0  0.96291  0.16933  0.34279  1.0000
  C   C181      1.0  0.31609  0.25576  0.34332  1.0000
  N   N37       1.0  0.30339  0.27718  0.34417  1.0000
  C   C182      1.0  0.30632  0.30934  0.34345  1.0000
  N   N38       1.0  0.32223  0.31990  0.34218  1.0000
  C   C183      1.0  0.33510  0.29892  0.34136  1.0000
  N   N39       1.0  0.33187  0.26694  0.34207  1.0000
  C   C184      1.0  0.69249  0.75281  0.34334  1.0000
  N   N40       1.0  0.70520  0.73140  0.34419  1.0000
  C   C185      1.0  0.70227  0.69924  0.34345  1.0000
  N   N41       1.0  0.68636  0.68867  0.34215  1.0000
  C   C186      1.0  0.67349  0.70965  0.34133  1.0000
  N   N42       1.0  0.67671  0.74162  0.34205  1.0000
  C   C187      1.0  0.19248  0.75577  0.34049  1.0000
  N   N43       1.0  0.20518  0.77719  0.33964  1.0000
  C   C188      1.0  0.20225  0.80935  0.34037  1.0000
  N   N44       1.0  0.18634  0.81991  0.34164  1.0000
  C   C189      1.0  0.17347  0.79893  0.34247  1.0000
  N   N45       1.0  0.17670  0.76696  0.34175  1.0000
  C   C190      1.0  0.81608  0.25281  0.34047  1.0000
  N   N46       1.0  0.80337  0.23140  0.33962  1.0000
  C   C191      1.0  0.80631  0.19924  0.34037  1.0000
  N   N47       1.0  0.82221  0.18867  0.34166  1.0000
  C   C192      1.0  0.83508  0.20965  0.34248  1.0000
  N   N48       1.0  0.83186  0.24162  0.34175  1.0000
  C   C193      1.0  0.04820  0.35956  0.34105  1.0000
  N   N49       1.0  0.06484  0.36442  0.34183  1.0000
  C   C194      1.0  0.07100  0.39481  0.34247  1.0000
  N   N50       1.0  0.06047  0.42011  0.34223  1.0000
  C   C195      1.0  0.04392  0.41534  0.34148  1.0000
  N   N51       1.0  0.03786  0.38512  0.34098  1.0000
  C   C196      1.0  0.96041  0.64896  0.34041  1.0000
  N   N52       1.0  0.94377  0.64414  0.34156  1.0000
  C   C197      1.0  0.93759  0.61377  0.34230  1.0000
  N   N53       1.0  0.94811  0.58844  0.34177  1.0000
  C   C198      1.0  0.96466  0.59318  0.34066  1.0000
  N   N54       1.0  0.97074  0.62339  0.34001  1.0000
  C   C199      1.0  0.46038  0.85957  0.34279  1.0000
  N   N55       1.0  0.44374  0.86441  0.34196  1.0000
  C   C200      1.0  0.43758  0.89479  0.34131  1.0000
  N   N56       1.0  0.44810  0.92011  0.34157  1.0000
  C   C201      1.0  0.46465  0.91535  0.34237  1.0000
  N   N57       1.0  0.47072  0.88514  0.34289  1.0000
  C   C202      1.0  0.54816  0.14896  0.34338  1.0000
  N   N58       1.0  0.56480  0.14415  0.34222  1.0000
  C   C203      1.0  0.57098  0.11378  0.34154  1.0000
  N   N59       1.0  0.56047  0.08844  0.34210  1.0000
  C   C204      1.0  0.54392  0.09318  0.34320  1.0000
  N   N60       1.0  0.53784  0.12338  0.34381  1.0000
  C   C205      1.0  0.20268  0.51931  0.34111  1.0000
  N   N61       1.0  0.21634  0.50013  0.34162  1.0000
  C   C206      1.0  0.21482  0.46755  0.34279  1.0000
  N   N62       1.0  0.19946  0.45438  0.34351  1.0000
  C   C207      1.0  0.18575  0.47314  0.34301  1.0000
  N   N63       1.0  0.18749  0.50548  0.34191  1.0000
  C   C208      1.0  0.80592  0.48928  0.34115  1.0000
  N   N64       1.0  0.79226  0.50844  0.34167  1.0000
  C   C209      1.0  0.79376  0.54102  0.34285  1.0000
  N   N65       1.0  0.80913  0.55420  0.34357  1.0000
  C   C210      1.0  0.82284  0.53546  0.34307  1.0000
  N   N66       1.0  0.82110  0.50312  0.34196  1.0000
  C   C211      1.0  0.30591  0.01929  0.34273  1.0000
  N   N67       1.0  0.29224  0.00013  0.34220  1.0000
  C   C212      1.0  0.29375  0.96755  0.34105  1.0000
  N   N68       1.0  0.30911  0.95437  0.34033  1.0000
  C   C213      1.0  0.32282  0.97311  0.34084  1.0000
  N   N69       1.0  0.32109  0.00544  0.34193  1.0000
  C   C214      1.0  0.70266  0.98927  0.34266  1.0000
  N   N70       1.0  0.71632  0.00844  0.34213  1.0000
  C   C215      1.0  0.71481  0.04102  0.34096  1.0000
  N   N71       1.0  0.69944  0.05420  0.34025  1.0000
  C   C216      1.0  0.68573  0.03545  0.34074  1.0000
  N   N72       1.0  0.68747  0.00312  0.34186  1.0000
  C   C217      1.0  0.48279  0.43051  0.34469  1.0000
  C   C218      1.0  0.48756  0.44619  0.42548  1.0000
  N   N73       1.0  0.49577  0.47464  0.42013  1.0000
  C   C219      1.0  0.49996  0.48955  0.34212  1.0000
  N   N74       1.0  0.51292  0.53399  0.41975  1.0000
  C   C220      1.0  0.52110  0.56249  0.42443  1.0000
  C   C221      1.0  0.48450  0.43384  0.51734  1.0000
  H   H121      1.0  0.47778  0.41122  0.51783  1.0000
  H   H122      1.0  0.47729  0.45134  0.55518  1.0000
  H   H123      1.0  0.49628  0.43016  0.55154  1.0000
  C   C222      1.0  0.52452  0.57598  0.51456  1.0000
  H   H124      1.0  0.52004  0.56020  0.56783  1.0000
  H   H125      1.0  0.51842  0.59915  0.52175  1.0000
  H   H126      1.0  0.53781  0.57915  0.52336  1.0000
  C   C223      1.0  0.01303  0.97470  0.42420  1.0000
  C   C224      1.0  0.02158  0.94517  0.42174  1.0000
  H   H127      1.0  0.02455  0.93397  0.48095  1.0000
  C   C225      1.0  0.99992  0.01903  0.34192  1.0000
  C   C226      1.0  0.98281  0.07812  0.34037  1.0000
  C   C227      1.0  0.98708  0.06340  0.42275  1.0000
  C   C228      1.0  0.99561  0.03383  0.42468  1.0000
  C   C229      1.0  0.00006  0.01887  0.50632  1.0000
  C   C230      1.0  0.00866  0.98959  0.50608  1.0000
  H   H128      1.0  0.99708  0.02918  0.56664  1.0000
  H   H129      1.0  0.01172  0.97923  0.56623  1.0000
  H   H130      1.0  0.98417  0.07456  0.48208  1.0000
  C   C231      1.0  0.41014  0.34540  0.42431  1.0000
  C   C232      1.0  0.42694  0.35463  0.42187  1.0000
  H   H131      1.0  0.43326  0.35755  0.48109  1.0000
  C   C233      1.0  0.38493  0.33053  0.34201  1.0000
  C   C234      1.0  0.35163  0.30999  0.34043  1.0000
  C   C235      1.0  0.35990  0.31530  0.42282  1.0000
  C   C236      1.0  0.37654  0.32556  0.42476  1.0000
  C   C237      1.0  0.38505  0.33069  0.50640  1.0000
  C   C238      1.0  0.40168  0.34049  0.50618  1.0000
  H   H132      1.0  0.37923  0.32716  0.56672  1.0000
  H   H133      1.0  0.40758  0.34383  0.56633  1.0000
  H   H134      1.0  0.35376  0.31145  0.48214  1.0000
  C   C239      1.0  0.59844  0.66319  0.42408  1.0000
  C   C240      1.0  0.58163  0.65397  0.42160  1.0000
  H   H135      1.0  0.57531  0.65108  0.48081  1.0000
  C   C241      1.0  0.62366  0.67804  0.34185  1.0000
  C   C242      1.0  0.65696  0.69857  0.34035  1.0000
  C   C243      1.0  0.64869  0.69327  0.42272  1.0000
  C   C244      1.0  0.63204  0.68302  0.42463  1.0000
  C   C245      1.0  0.62352  0.67792  0.50624  1.0000
  C   C246      1.0  0.60689  0.66813  0.50597  1.0000
  H   H136      1.0  0.62933  0.68146  0.56657  1.0000
  H   H137      1.0  0.60098  0.66481  0.56611  1.0000
  H   H138      1.0  0.65481  0.69715  0.48206  1.0000
  C   C247      1.0  0.07327  0.85907  0.34458  1.0000
  C   C248      1.0  0.08225  0.85372  0.42537  1.0000
  N   N75       1.0  0.09842  0.84484  0.42004  1.0000
  C   C249      1.0  0.10689  0.84044  0.34204  1.0000
  N   N76       1.0  0.13201  0.82517  0.41967  1.0000
  C   C250      1.0  0.14804  0.81528  0.42435  1.0000
  C   C251      1.0  0.07533  0.85652  0.51722  1.0000
  H   H139      1.0  0.06243  0.86402  0.51769  1.0000
  H   H140      1.0  0.08244  0.87412  0.55529  1.0000
  H   H141      1.0  0.07619  0.83340  0.55117  1.0000
  C   C252      1.0  0.15535  0.81039  0.51451  1.0000
  H   H142      1.0  0.14649  0.81579  0.56775  1.0000
  H   H143      1.0  0.16604  0.82604  0.52301  1.0000
  H   H144      1.0  0.15927  0.78551  0.52200  1.0000
  C   C253      1.0  0.93528  0.14954  0.34477  1.0000
  C   C254      1.0  0.92629  0.15483  0.42555  1.0000
  N   N77       1.0  0.91012  0.16370  0.42018  1.0000
  C   C255      1.0  0.90166  0.16812  0.34217  1.0000
  N   N78       1.0  0.87653  0.18337  0.41975  1.0000
  C   C256      1.0  0.86050  0.19327  0.42442  1.0000
  C   C257      1.0  0.93320  0.15201  0.51743  1.0000
  H   H145      1.0  0.94610  0.14454  0.51795  1.0000
  H   H146      1.0  0.92609  0.13439  0.55542  1.0000
  H   H147      1.0  0.93232  0.17512  0.55144  1.0000
  C   C258      1.0  0.85318  0.19815  0.51456  1.0000
  H   H148      1.0  0.86204  0.19273  0.56782  1.0000
  H   H149      1.0  0.84249  0.18250  0.52301  1.0000
  H   H150      1.0  0.84926  0.22302  0.52208  1.0000
  C   C259      1.0  0.49018  0.31678  0.34423  1.0000
  C   C260      1.0  0.49574  0.30224  0.42513  1.0000
  N   N79       1.0  0.50579  0.27619  0.41963  1.0000
  C   C261      1.0  0.51106  0.26280  0.34143  1.0000
  N   N80       1.0  0.52608  0.22131  0.41961  1.0000
  C   C262      1.0  0.53547  0.19432  0.42478  1.0000
  C   C263      1.0  0.49140  0.31299  0.51705  1.0000
  H   H151      1.0  0.48335  0.33393  0.51760  1.0000
  H   H152      1.0  0.50267  0.31905  0.55364  1.0000
  H   H153      1.0  0.48510  0.29363  0.55251  1.0000
  C   C264      1.0  0.53912  0.18121  0.51512  1.0000
  H   H154      1.0  0.53396  0.19631  0.56813  1.0000
  H   H155      1.0  0.55246  0.17978  0.52490  1.0000
  H   H156      1.0  0.53382  0.15728  0.52177  1.0000
  C   C265      1.0  0.51841  0.69183  0.34355  1.0000
  C   C266      1.0  0.51281  0.70631  0.42446  1.0000
  N   N81       1.0  0.50274  0.73233  0.41897  1.0000
  C   C267      1.0  0.49750  0.74577  0.34078  1.0000
  N   N82       1.0  0.48240  0.78715  0.41897  1.0000
  C   C268      1.0  0.47299  0.81411  0.42419  1.0000
  C   C269      1.0  0.51711  0.69551  0.51639  1.0000
  H   H157      1.0  0.52518  0.67460  0.51693  1.0000
  H   H158      1.0  0.50584  0.68939  0.55279  1.0000
  H   H159      1.0  0.52338  0.71486  0.55203  1.0000
  C   C270      1.0  0.46927  0.82712  0.51455  1.0000
  H   H160      1.0  0.47439  0.81196  0.56754  1.0000
  H   H161      1.0  0.45592  0.82852  0.52402  1.0000
  H   H162      1.0  0.47456  0.85103  0.52153  1.0000
  C   C271      1.0  0.00275  0.77649  0.42490  1.0000
  C   C272      1.0  0.01321  0.80355  0.42236  1.0000
  H   H163      1.0  0.01715  0.81362  0.48150  1.0000
  C   C273      1.0  0.98725  0.73539  0.34233  1.0000
  C   C274      1.0  0.96765  0.67964  0.33977  1.0000
  C   C275      1.0  0.97237  0.69349  0.42254  1.0000
  C   C276      1.0  0.98217  0.72147  0.42497  1.0000
  C   C277      1.0  0.98737  0.73534  0.50680  1.0000
  C   C278      1.0  0.99756  0.76264  0.50677  1.0000
  H   H164      1.0  0.98392  0.72551  0.56701  1.0000
  H   H165      1.0  0.00127  0.77212  0.56695  1.0000
  H   H166      1.0  0.96912  0.68253  0.48167  1.0000
  C   C279      1.0  0.00579  0.23213  0.42563  1.0000
  C   C280      1.0  0.99532  0.20508  0.42308  1.0000
  H   H167      1.0  0.99134  0.19507  0.48221  1.0000
  C   C281      1.0  0.02136  0.27315  0.34307  1.0000
  C   C282      1.0  0.04099  0.32887  0.34049  1.0000
  C   C283      1.0  0.03618  0.31510  0.42325  1.0000
  C   C284      1.0  0.02638  0.28713  0.42570  1.0000
  C   C285      1.0  0.02113  0.27334  0.50753  1.0000
  C   C286      1.0  0.01094  0.24604  0.50750  1.0000
  H   H168      1.0  0.02455  0.28320  0.56773  1.0000
  H   H169      1.0  0.00719  0.23661  0.56768  1.0000
  H   H170      1.0  0.03939  0.32612  0.48236  1.0000
  C   C287      1.0  0.31320  0.22227  0.34474  1.0000
  C   C288      1.0  0.31219  0.20416  0.42556  1.0000
  N   N83       1.0  0.31030  0.17174  0.42034  1.0000
  C   C289      1.0  0.30928  0.15478  0.34245  1.0000
  N   N84       1.0  0.30700  0.10382  0.42003  1.0000
  C   C290      1.0  0.30581  0.07126  0.42464  1.0000
  C   C291      1.0  0.31322  0.21772  0.51740  1.0000
  H   H171      1.0  0.31464  0.24369  0.51781  1.0000
  H   H172      1.0  0.32378  0.20730  0.55246  1.0000
  H   H173      1.0  0.30199  0.21182  0.55445  1.0000
  C   C292      1.0  0.30573  0.05623  0.51478  1.0000
  H   H174      1.0  0.30629  0.07422  0.56804  1.0000
  H   H175      1.0  0.31638  0.04039  0.52192  1.0000
  H   H176      1.0  0.29444  0.04230  0.52365  1.0000
  C   C293      1.0  0.69538  0.78631  0.34476  1.0000
  C   C294      1.0  0.69639  0.80442  0.42558  1.0000
  N   N85       1.0  0.69828  0.83683  0.42036  1.0000
  C   C295      1.0  0.69930  0.85379  0.34246  1.0000
  N   N86       1.0  0.70158  0.90476  0.42003  1.0000
  C   C296      1.0  0.70277  0.93732  0.42464  1.0000
  C   C297      1.0  0.69537  0.79086  0.51742  1.0000
  H   H177      1.0  0.69395  0.76489  0.51784  1.0000
  H   H178      1.0  0.68482  0.80128  0.55251  1.0000
  H   H179      1.0  0.70661  0.79675  0.55445  1.0000
  C   C298      1.0  0.70284  0.95235  0.51478  1.0000
  H   H180      1.0  0.70227  0.93437  0.56804  1.0000
  H   H181      1.0  0.69219  0.96818  0.52189  1.0000
  H   H182      1.0  0.71413  0.96629  0.52364  1.0000
  C   C299      1.0  0.19830  0.67183  0.42385  1.0000
  C   C300      1.0  0.19633  0.70551  0.42153  1.0000
  H   H183      1.0  0.19540  0.71793  0.48080  1.0000
  C   C301      1.0  0.20098  0.62096  0.34150  1.0000
  C   C302      1.0  0.20358  0.55323  0.34006  1.0000
  C   C303      1.0  0.20290  0.57017  0.42234  1.0000
  C   C304      1.0  0.20166  0.60398  0.42424  1.0000
  C   C305      1.0  0.20073  0.62117  0.50587  1.0000
  C   C306      1.0  0.19909  0.65473  0.50567  1.0000
  H   H184      1.0  0.20112  0.60937  0.56617  1.0000
  H   H185      1.0  0.19833  0.66655  0.56584  1.0000
  H   H186      1.0  0.20294  0.55767  0.48170  1.0000
  C   C307      1.0  0.81025  0.33675  0.42386  1.0000
  C   C308      1.0  0.81222  0.30307  0.42154  1.0000
  H   H187      1.0  0.81315  0.29065  0.48080  1.0000
  C   C309      1.0  0.80759  0.38763  0.34153  1.0000
  C   C310      1.0  0.80503  0.45535  0.34011  1.0000
  C   C311      1.0  0.80569  0.43842  0.42240  1.0000
  C   C312      1.0  0.80692  0.40461  0.42427  1.0000
  C   C313      1.0  0.80784  0.38741  0.50589  1.0000
  C   C314      1.0  0.80947  0.35385  0.50569  1.0000
  H   H188      1.0  0.80745  0.39921  0.56620  1.0000
  H   H189      1.0  0.81022  0.34202  0.56586  1.0000
  H   H190      1.0  0.80565  0.45092  0.48175  1.0000
  C   C315      1.0  0.29313  0.33171  0.34491  1.0000
  C   C316      1.0  0.28618  0.34395  0.42575  1.0000
  N   N87       1.0  0.27384  0.36613  0.42057  1.0000
  C   C317      1.0  0.26744  0.37790  0.34273  1.0000
  N   N88       1.0  0.24794  0.41242  0.42024  1.0000
  C   C318      1.0  0.23547  0.43435  0.42478  1.0000
  C   C319      1.0  0.29136  0.33461  0.51757  1.0000
  H   H191      1.0  0.30122  0.31682  0.51794  1.0000
  H   H192      1.0  0.28081  0.32460  0.55363  1.0000
  H   H193      1.0  0.29573  0.35574  0.55366  1.0000
  C   C320      1.0  0.22942  0.44381  0.51486  1.0000
  H   H194      1.0  0.23628  0.43170  0.56818  1.0000
  H   H195      1.0  0.21639  0.43755  0.52176  1.0000
  H   H196      1.0  0.23085  0.46961  0.52387  1.0000
  C   C321      1.0  0.71546  0.67688  0.34493  1.0000
  C   C322      1.0  0.72241  0.66463  0.42577  1.0000
  N   N89       1.0  0.73475  0.64244  0.42061  1.0000
  C   C323      1.0  0.74115  0.63068  0.34276  1.0000
  N   N90       1.0  0.76065  0.59616  0.42029  1.0000
  C   C324      1.0  0.77312  0.57422  0.42483  1.0000
  C   C325      1.0  0.71723  0.67397  0.51759  1.0000
  H   H197      1.0  0.70737  0.69176  0.51794  1.0000
  H   H198      1.0  0.72777  0.68397  0.55366  1.0000
  H   H199      1.0  0.71285  0.65284  0.55367  1.0000
  C   C326      1.0  0.77917  0.56478  0.51492  1.0000
  H   H200      1.0  0.77231  0.57689  0.56822  1.0000
  H   H201      1.0  0.79220  0.57103  0.52179  1.0000
  H   H202      1.0  0.77774  0.53897  0.52395  1.0000
  C   C327      1.0  0.23460  0.86636  0.42360  1.0000
  C   C328      1.0  0.22175  0.84337  0.42133  1.0000
  H   H203      1.0  0.21691  0.83507  0.48062  1.0000
  C   C329      1.0  0.25398  0.90105  0.34127  1.0000
  C   C330      1.0  0.27984  0.94686  0.33997  1.0000
  C   C331      1.0  0.27332  0.93551  0.42221  1.0000
  C   C332      1.0  0.26039  0.91269  0.42402  1.0000
  C   C333      1.0  0.25382  0.90099  0.50562  1.0000
  C   C334      1.0  0.24105  0.87812  0.50542  1.0000
  H   H204      1.0  0.25829  0.90902  0.56595  1.0000
  H   H205      1.0  0.23652  0.87007  0.56559  1.0000
  H   H206      1.0  0.27821  0.94360  0.48161  1.0000
  C   C335      1.0  0.77395  0.14223  0.42358  1.0000
  C   C336      1.0  0.78679  0.16523  0.42131  1.0000
  H   H207      1.0  0.79164  0.17352  0.48060  1.0000
  C   C337      1.0  0.75457  0.10755  0.34123  1.0000
  C   C338      1.0  0.72871  0.06171  0.33992  1.0000
  C   C339      1.0  0.73523  0.07308  0.42215  1.0000
  C   C340      1.0  0.74816  0.09590  0.42398  1.0000
  C   C341      1.0  0.75473  0.10760  0.50558  1.0000
  C   C342      1.0  0.76750  0.13048  0.50539  1.0000
  H   H208      1.0  0.75026  0.09957  0.56590  1.0000
  H   H209      1.0  0.77202  0.13852  0.56557  1.0000
  H   H210      1.0  0.73035  0.06498  0.48155  1.0000
  C   C343      1.0  0.16982  0.45951  0.34411  1.0000
  C   C344      1.0  0.16108  0.45300  0.42494  1.0000
  N   N91       1.0  0.14546  0.44114  0.41936  1.0000
  C   C345      1.0  0.13740  0.43487  0.34115  1.0000
  N   N92       1.0  0.11273  0.41782  0.41910  1.0000
  C   C346      1.0  0.09682  0.40741  0.42410  1.0000
  C   C347      1.0  0.16753  0.45838  0.51690  1.0000
  H   H211      1.0  0.18009  0.46776  0.51753  1.0000
  H   H212      1.0  0.16748  0.43579  0.55383  1.0000
  H   H213      1.0  0.15959  0.47545  0.55194  1.0000
  C   C348      1.0  0.08936  0.40373  0.51437  1.0000
  H   H214      1.0  0.09821  0.40939  0.56748  1.0000
  H   H215      1.0  0.08521  0.37907  0.52370  1.0000
  H   H216      1.0  0.07880  0.41981  0.52128  1.0000
  C   C349      1.0  0.83876  0.54911  0.34416  1.0000
  C   C350      1.0  0.84751  0.55560  0.42497  1.0000
  N   N93       1.0  0.86314  0.56747  0.41936  1.0000
  C   C351      1.0  0.87119  0.57373  0.34114  1.0000
  N   N94       1.0  0.89586  0.59078  0.41904  1.0000
  C   C352      1.0  0.91177  0.60119  0.42401  1.0000
  C   C353      1.0  0.84107  0.55024  0.51694  1.0000
  H   H217      1.0  0.82850  0.54087  0.51759  1.0000
  H   H218      1.0  0.84112  0.57283  0.55386  1.0000
  H   H219      1.0  0.84900  0.53317  0.55198  1.0000
  C   C354      1.0  0.91925  0.60486  0.51426  1.0000
  H   H220      1.0  0.91041  0.59919  0.56739  1.0000
  H   H221      1.0  0.92340  0.62952  0.52360  1.0000
  H   H222      1.0  0.92981  0.58879  0.52113  1.0000
  C   C355      1.0  0.36294  0.94096  0.42516  1.0000
  C   C356      1.0  0.34670  0.95329  0.42252  1.0000
  H   H223      1.0  0.34068  0.95814  0.48164  1.0000
  C   C357      1.0  0.38755  0.92304  0.34277  1.0000
  C   C358      1.0  0.42050  0.90124  0.34056  1.0000
  C   C359      1.0  0.41234  0.90648  0.42324  1.0000
  C   C360      1.0  0.39582  0.91734  0.42548  1.0000
  C   C361      1.0  0.38751  0.92334  0.50723  1.0000
  C   C362      1.0  0.37121  0.93502  0.50707  1.0000
  H   H224      1.0  0.39330  0.91954  0.56748  1.0000
  H   H225      1.0  0.36550  0.93943  0.56721  1.0000
  H   H226      1.0  0.41861  0.90319  0.48242  1.0000
  C   C363      1.0  0.64563  0.06760  0.42518  1.0000
  C   C364      1.0  0.66187  0.05527  0.42250  1.0000
  H   H227      1.0  0.66789  0.05039  0.48160  1.0000
  C   C365      1.0  0.62101  0.08554  0.34287  1.0000
  C   C366      1.0  0.58806  0.10735  0.34076  1.0000
  C   C367      1.0  0.59623  0.10209  0.42340  1.0000
  C   C368      1.0  0.61275  0.09123  0.42560  1.0000
  C   C369      1.0  0.62106  0.08520  0.50733  1.0000
  C   C370      1.0  0.63736  0.07353  0.50712  1.0000
  H   H228      1.0  0.61528  0.08900  0.56760  1.0000
  H   H229      1.0  0.64308  0.06911  0.56724  1.0000
  H   H230      1.0  0.58996  0.10537  0.48260  1.0000
  C   C371      1.0  0.99258  0.52955  0.42636  1.0000
  C   C372      1.0  0.98106  0.55484  0.42328  1.0000
  H   H231      1.0  0.97673  0.56449  0.48217  1.0000
  C   C373      1.0  0.01010  0.49168  0.34412  1.0000
  C   C374      1.0  0.03299  0.44135  0.34126  1.0000
  C   C375      1.0  0.02735  0.45356  0.42430  1.0000
  C   C376      1.0  0.01584  0.47890  0.42685  1.0000
  C   C377      1.0  0.00990  0.49160  0.50867  1.0000
  C   C378      1.0  0.99836  0.51677  0.50842  1.0000
  H   H232      1.0  0.01392  0.48264  0.56891  1.0000
  H   H233      1.0  0.99421  0.52565  0.56849  1.0000
  H   H234      1.0  0.03156  0.44381  0.48331  1.0000
  C   C379      1.0  0.53300  0.06716  0.34384  1.0000
  C   C380      1.0  0.52672  0.05377  0.42463  1.0000
  N   N95       1.0  0.51564  0.02943  0.41856  1.0000
  C   C381      1.0  0.51006  0.01691  0.33996  1.0000
  N   N96       1.0  0.49274  0.97928  0.41817  1.0000
  C   C382      1.0  0.48167  0.95490  0.42355  1.0000
  C   C383      1.0  0.53114  0.06417  0.51676  1.0000
  H   H235      1.0  0.54013  0.08361  0.51767  1.0000
  H   H236      1.0  0.53638  0.04397  0.55365  1.0000
  H   H237      1.0  0.52006  0.07234  0.55167  1.0000
  C   C384      1.0  0.47667  0.94370  0.51398  1.0000
  H   H238      1.0  0.48276  0.95745  0.56692  1.0000
  H   H239      1.0  0.47998  0.91853  0.52233  1.0000
  H   H240      1.0  0.46334  0.94633  0.52216  1.0000
