data_image0
_chemical_formula_structural       C2HCHNCHNCHC4H3CH2C2NC2ONH2C2NC2ONH2C2HCHNCHNCHC4H3CH2C2NC2ONH2C2NC2ONH2C4HC2HNCHNCHC4HC4HC8NC2NH2C2NC2ONH2C4HC2HNCHNCHC4HC4HC8NC2NH2C2NC2ONH2CHNCH2CH2OC3NH2CNCHNCH2CH2OC3NH2CNC2HCHNC4H2CNOC3ONH2C2HCHNC4H2CNOC3ONH2C2HNCHNCHC4H2C2NC2OC2NC2ONH2C2HNCHNCHC4H2C2NC2OC2NC2ONH2C2HC2HC2HC2HC2HNCHNCHNCHNCHC4H2C4H2C4H2C4H2C4H2NH2C2NC2ONH2C2NC2ONH2C2NC2ONH2C2NC2ONH2C2HC2HC2HC2HC2HNCHNCHNCHNCHC4H2C4H2C4H2C4H2C4H2NH2C2NC2ONH2C2NC2ONH2C2NC2ONH2C2NC2ONH2
_chemical_formula_sum              "C264 H144 N72 O24"
_cell_length_a       46.4027
_cell_length_b       46.4027
_cell_length_c       14.7622
_cell_angle_alpha    90
_cell_angle_beta     90
_cell_angle_gamma    120

_space_group_name_H-M_alt    "P 1"
_space_group_IT_number       1

loop_
  _space_group_symop_operation_xyz
  'x, y, z'

loop_
  _atom_site_type_symbol
  _atom_site_label
  _atom_site_symmetry_multiplicity
  _atom_site_fract_x
  _atom_site_fract_y
  _atom_site_fract_z
  _atom_site_occupancy
  C   C1        1.0  0.04997  0.30256  0.37718  1.0000
  C   C2        1.0  0.08403  0.32000  0.35219  1.0000
  H   H1        1.0  0.03949  0.31698  0.38801  1.0000
  C   C3        1.0  0.20005  0.26797  0.35173  1.0000
  H   H2        1.0  0.20308  0.22646  0.38761  1.0000
  N   N1        1.0  0.15411  0.26215  0.26990  1.0000
  C   C4        1.0  0.12390  0.25926  0.25912  1.0000
  H   H3        1.0  0.11972  0.26903  0.20181  1.0000
  N   N2        1.0  0.12423  0.36598  0.27065  1.0000
  C   C5        1.0  0.15157  0.39620  0.26008  1.0000
  H   H4        1.0  0.16555  0.40038  0.20284  1.0000
  C   C6        1.0  0.03017  0.26685  0.37891  1.0000
  C   C7        1.0  0.09924  0.30090  0.33356  1.0000
  C   C8        1.0  0.08297  0.26616  0.34600  1.0000
  C   C9        1.0  0.04896  0.24997  0.37121  1.0000
  H   H5        1.0  0.12434  0.31321  0.32052  1.0000
  H   H6        1.0  0.03762  0.22475  0.37530  1.0000
  H   H7        1.0  0.20682  0.31506  0.32008  1.0000
  C   C10       1.0  0.19936  0.43711  0.34731  1.0000
  H   H8        1.0  0.20507  0.39570  0.32255  1.0000
  H   H9        1.0  0.20330  0.48256  0.37536  1.0000
  C   C11       1.0  0.16492  0.25374  0.34575  1.0000
  C   C12       1.0  0.10237  0.25049  0.33446  1.0000
  N   N3        1.0  0.11268  0.24138  0.41037  1.0000
  C   C13       1.0  0.14174  0.24057  0.41879  1.0000
  C   C14       1.0  0.14862  0.23307  0.50628  1.0000
  O   O1        1.0  0.12347  0.20723  0.55078  1.0000
  N   N4        1.0  0.17645  0.25304  0.55415  1.0000
  H   H10       1.0  0.19293  0.27481  0.53172  1.0000
  H   H11       1.0  0.17805  0.24791  0.61719  1.0000
  C   C15       1.0  0.10496  0.35514  0.34640  1.0000
  C   C16       1.0  0.16432  0.41774  0.33538  1.0000
  N   N5        1.0  0.14485  0.40732  0.41121  1.0000
  C   C17       1.0  0.11496  0.37826  0.41955  1.0000
  C   C18       1.0  0.10056  0.37135  0.50702  1.0000
  O   O2        1.0  0.09992  0.39649  0.55167  1.0000
  N   N6        1.0  0.09263  0.34346  0.55472  1.0000
  H   H12       1.0  0.09789  0.32697  0.53220  1.0000
  H   H13       1.0  0.08589  0.34183  0.61777  1.0000
  C   C19       1.0  0.04997  0.80256  0.37718  1.0000
  C   C20       1.0  0.08403  0.82000  0.35219  1.0000
  H   H14       1.0  0.03949  0.81698  0.38801  1.0000
  C   C21       1.0  0.20005  0.76797  0.35173  1.0000
  H   H15       1.0  0.20308  0.72647  0.38761  1.0000
  N   N7        1.0  0.15411  0.76215  0.26990  1.0000
  C   C22       1.0  0.12390  0.75926  0.25912  1.0000
  H   H16       1.0  0.11972  0.76903  0.20181  1.0000
  N   N8        1.0  0.12423  0.86598  0.27065  1.0000
  C   C23       1.0  0.15157  0.89619  0.26008  1.0000
  H   H17       1.0  0.16555  0.90038  0.20284  1.0000
  C   C24       1.0  0.03017  0.76685  0.37891  1.0000
  C   C25       1.0  0.09923  0.80090  0.33356  1.0000
  C   C26       1.0  0.08297  0.76616  0.34600  1.0000
  C   C27       1.0  0.04896  0.74997  0.37121  1.0000
  H   H18       1.0  0.12434  0.81320  0.32052  1.0000
  H   H19       1.0  0.03762  0.72475  0.37530  1.0000
  H   H20       1.0  0.20682  0.81506  0.32008  1.0000
  C   C28       1.0  0.19936  0.93711  0.34731  1.0000
  H   H21       1.0  0.20507  0.89570  0.32255  1.0000
  H   H22       1.0  0.20330  0.98256  0.37536  1.0000
  C   C29       1.0  0.16492  0.75374  0.34575  1.0000
  C   C30       1.0  0.10237  0.75049  0.33446  1.0000
  N   N9        1.0  0.11268  0.74138  0.41037  1.0000
  C   C31       1.0  0.14174  0.74057  0.41879  1.0000
  C   C32       1.0  0.14861  0.73307  0.50628  1.0000
  O   O3        1.0  0.12346  0.70723  0.55078  1.0000
  N   N10       1.0  0.17645  0.75304  0.55414  1.0000
  H   H23       1.0  0.19292  0.77480  0.53172  1.0000
  H   H24       1.0  0.17805  0.74791  0.61719  1.0000
  C   C33       1.0  0.10496  0.85513  0.34640  1.0000
  C   C34       1.0  0.16432  0.91774  0.33538  1.0000
  N   N11       1.0  0.14485  0.90731  0.41121  1.0000
  C   C35       1.0  0.11496  0.87826  0.41955  1.0000
  C   C36       1.0  0.10057  0.87135  0.50702  1.0000
  O   O4        1.0  0.09992  0.89649  0.55167  1.0000
  N   N12       1.0  0.09263  0.84346  0.55472  1.0000
  H   H25       1.0  0.09789  0.82697  0.53220  1.0000
  H   H26       1.0  0.08589  0.84183  0.61777  1.0000
  C   C37       1.0  0.30657  0.26472  0.37731  1.0000
  C   C38       1.0  0.21750  0.25137  0.37690  1.0000
  C   C39       1.0  0.27201  0.08005  0.35182  1.0000
  C   C40       1.0  0.25542  0.04599  0.37679  1.0000
  H   H27       1.0  0.23053  0.03549  0.38779  1.0000
  C   C41       1.0  0.26883  0.47031  0.37736  1.0000
  C   C42       1.0  0.25220  0.43617  0.35321  1.0000
  H   H28       1.0  0.29375  0.48085  0.38792  1.0000
  N   N13       1.0  0.25808  0.39620  0.27110  1.0000
  C   C43       1.0  0.26094  0.36887  0.25984  1.0000
  H   H29       1.0  0.25088  0.35491  0.20272  1.0000
  N   N14       1.0  0.26618  0.12017  0.27001  1.0000
  C   C44       1.0  0.26331  0.14751  0.25929  1.0000
  H   H30       1.0  0.27308  0.16146  0.20199  1.0000
  C   C45       1.0  0.27086  0.24878  0.37902  1.0000
  C   C46       1.0  0.25400  0.21312  0.37146  1.0000
  C   C47       1.0  0.27022  0.19533  0.34623  1.0000
  C   C48       1.0  0.30496  0.21382  0.33378  1.0000
  H   H31       1.0  0.22878  0.19922  0.37549  1.0000
  C   C49       1.0  0.25321  0.26731  0.37891  1.0000
  C   C50       1.0  0.21915  0.30230  0.33334  1.0000
  C   C51       1.0  0.25386  0.32078  0.34616  1.0000
  C   C52       1.0  0.27006  0.30298  0.37144  1.0000
  H   H32       1.0  0.29527  0.31688  0.37613  1.0000
  C   C53       1.0  0.27138  0.02624  0.37881  1.0000
  C   C54       1.0  0.30705  0.04507  0.37133  1.0000
  C   C55       1.0  0.30633  0.09528  0.33330  1.0000
  C   C56       1.0  0.25286  0.49006  0.37906  1.0000
  C   C57       1.0  0.21783  0.42082  0.33542  1.0000
  C   C58       1.0  0.21719  0.47122  0.37149  1.0000
  C   C59       1.0  0.26661  0.41545  0.34690  1.0000
  C   C60       1.0  0.26952  0.35586  0.33505  1.0000
  N   N15       1.0  0.27859  0.37525  0.41103  1.0000
  C   C61       1.0  0.27960  0.40520  0.41982  1.0000
  C   C62       1.0  0.28690  0.41923  0.50771  1.0000
  N   N16       1.0  0.26698  0.42716  0.55556  1.0000
  H   H33       1.0  0.24549  0.42256  0.53264  1.0000
  H   H34       1.0  0.27224  0.43425  0.61833  1.0000
  C   C63       1.0  0.25777  0.10093  0.34582  1.0000
  C   C64       1.0  0.25456  0.16026  0.33467  1.0000
  N   N17       1.0  0.24544  0.14083  0.41056  1.0000
  C   C65       1.0  0.24462  0.11095  0.41889  1.0000
  C   C66       1.0  0.23711  0.09655  0.50635  1.0000
  O   O5        1.0  0.21126  0.09584  0.55085  1.0000
  N   N18       1.0  0.25708  0.08868  0.55421  1.0000
  H   H35       1.0  0.27885  0.09398  0.53179  1.0000
  H   H36       1.0  0.25195  0.08194  0.61724  1.0000
  C   C67       1.0  0.30657  0.76472  0.37731  1.0000
  C   C68       1.0  0.21750  0.75137  0.37690  1.0000
  C   C69       1.0  0.27201  0.58005  0.35182  1.0000
  C   C70       1.0  0.25542  0.54599  0.37679  1.0000
  H   H37       1.0  0.23053  0.53549  0.38779  1.0000
  C   C71       1.0  0.26883  0.97031  0.37736  1.0000
  C   C72       1.0  0.25220  0.93617  0.35321  1.0000
  H   H38       1.0  0.29375  0.98085  0.38792  1.0000
  N   N19       1.0  0.25808  0.89620  0.27110  1.0000
  C   C73       1.0  0.26094  0.86887  0.25984  1.0000
  H   H39       1.0  0.25088  0.85491  0.20272  1.0000
  N   N20       1.0  0.26618  0.62017  0.27001  1.0000
  C   C74       1.0  0.26331  0.64751  0.25929  1.0000
  H   H40       1.0  0.27308  0.66146  0.20199  1.0000
  C   C75       1.0  0.27086  0.74879  0.37902  1.0000
  C   C76       1.0  0.25400  0.71312  0.37146  1.0000
  C   C77       1.0  0.27022  0.69533  0.34623  1.0000
  C   C78       1.0  0.30496  0.71381  0.33378  1.0000
  H   H41       1.0  0.22878  0.69922  0.37549  1.0000
  C   C79       1.0  0.25321  0.76731  0.37891  1.0000
  C   C80       1.0  0.21915  0.80230  0.33334  1.0000
  C   C81       1.0  0.25386  0.82078  0.34616  1.0000
  C   C82       1.0  0.27006  0.80298  0.37144  1.0000
  H   H42       1.0  0.29527  0.81688  0.37613  1.0000
  C   C83       1.0  0.27138  0.52624  0.37881  1.0000
  C   C84       1.0  0.30705  0.54507  0.37133  1.0000
  C   C85       1.0  0.30633  0.59528  0.33330  1.0000
  C   C86       1.0  0.25286  0.99006  0.37906  1.0000
  C   C87       1.0  0.21783  0.92083  0.33542  1.0000
  C   C88       1.0  0.21719  0.97122  0.37149  1.0000
  C   C89       1.0  0.26661  0.91546  0.34690  1.0000
  C   C90       1.0  0.26952  0.85586  0.33505  1.0000
  N   N21       1.0  0.27859  0.87524  0.41103  1.0000
  C   C91       1.0  0.27960  0.90520  0.41982  1.0000
  C   C92       1.0  0.28690  0.91923  0.50771  1.0000
  N   N22       1.0  0.26698  0.92716  0.55556  1.0000
  H   H43       1.0  0.24549  0.92256  0.53264  1.0000
  H   H44       1.0  0.27224  0.93425  0.61833  1.0000
  C   C93       1.0  0.25777  0.60093  0.34582  1.0000
  C   C94       1.0  0.25456  0.66026  0.33467  1.0000
  N   N23       1.0  0.24544  0.64083  0.41056  1.0000
  C   C95       1.0  0.24462  0.61095  0.41889  1.0000
  C   C96       1.0  0.23711  0.59655  0.50635  1.0000
  O   O6        1.0  0.21126  0.59584  0.55085  1.0000
  N   N24       1.0  0.25708  0.58868  0.55421  1.0000
  H   H45       1.0  0.27885  0.59398  0.53179  1.0000
  H   H46       1.0  0.25195  0.58194  0.61724  1.0000
  C   C97       1.0  0.32404  0.24813  0.35233  1.0000
  H   H47       1.0  0.32097  0.28963  0.38802  1.0000
  N   N25       1.0  0.36998  0.25395  0.27067  1.0000
  C   C98       1.0  0.37268  0.12001  0.25924  1.0000
  H   H48       1.0  0.35858  0.11606  0.20236  1.0000
  H   H49       1.0  0.31730  0.20105  0.32073  1.0000
  C   C99       1.0  0.32483  0.07905  0.34586  1.0000
  H   H50       1.0  0.32097  0.03377  0.37564  1.0000
  H   H51       1.0  0.31910  0.12038  0.32015  1.0000
  O   O7        1.0  0.31268  0.41985  0.55230  1.0000
  C   C100      1.0  0.35919  0.26243  0.34641  1.0000
  C   C101      1.0  0.38239  0.27566  0.41931  1.0000
  C   C102      1.0  0.37557  0.28297  0.50708  1.0000
  N   N26       1.0  0.34777  0.26291  0.55496  1.0000
  H   H52       1.0  0.33098  0.24137  0.53205  1.0000
  H   H53       1.0  0.34588  0.26818  0.61767  1.0000
  C   C103      1.0  0.35993  0.09850  0.33467  1.0000
  N   N27       1.0  0.37944  0.10866  0.41037  1.0000
  C   C104      1.0  0.32404  0.74813  0.35233  1.0000
  H   H54       1.0  0.32097  0.78963  0.38802  1.0000
  N   N28       1.0  0.36998  0.75395  0.27067  1.0000
  C   C105      1.0  0.37268  0.62001  0.25924  1.0000
  H   H55       1.0  0.35858  0.61606  0.20236  1.0000
  H   H56       1.0  0.31730  0.70105  0.32073  1.0000
  C   C106      1.0  0.32483  0.57905  0.34586  1.0000
  H   H57       1.0  0.32097  0.53377  0.37564  1.0000
  H   H58       1.0  0.31910  0.62037  0.32015  1.0000
  O   O8        1.0  0.31268  0.91985  0.55230  1.0000
  C   C107      1.0  0.35919  0.76243  0.34641  1.0000
  C   C108      1.0  0.38239  0.77566  0.41931  1.0000
  C   C109      1.0  0.37557  0.78297  0.50709  1.0000
  N   N29       1.0  0.34777  0.76291  0.55496  1.0000
  H   H59       1.0  0.33098  0.74136  0.53205  1.0000
  H   H60       1.0  0.34588  0.76818  0.61767  1.0000
  C   C110      1.0  0.35993  0.59850  0.33467  1.0000
  N   N30       1.0  0.37944  0.60867  0.41037  1.0000
  C   C111      1.0  0.44012  0.19609  0.35219  1.0000
  C   C112      1.0  0.47420  0.21353  0.37709  1.0000
  H   H61       1.0  0.48469  0.19911  0.38771  1.0000
  C   C113      1.0  0.40024  0.25695  0.25967  1.0000
  H   H62       1.0  0.40422  0.24690  0.20267  1.0000
  N   N31       1.0  0.39994  0.15024  0.27038  1.0000
  C   C114      1.0  0.49399  0.24924  0.37892  1.0000
  C   C115      1.0  0.47520  0.26611  0.37142  1.0000
  C   C116      1.0  0.44116  0.24992  0.34651  1.0000
  C   C117      1.0  0.42490  0.21519  0.33391  1.0000
  H   H63       1.0  0.48654  0.29134  0.37571  1.0000
  H   H64       1.0  0.39978  0.20287  0.32095  1.0000
  C   C118      1.0  0.42178  0.26560  0.33502  1.0000
  N   N32       1.0  0.41138  0.27470  0.41081  1.0000
  O   O9        1.0  0.40064  0.30887  0.55161  1.0000
  C   C119      1.0  0.41927  0.16095  0.34605  1.0000
  C   C120      1.0  0.40940  0.13765  0.41873  1.0000
  C   C121      1.0  0.42366  0.14439  0.50633  1.0000
  O   O10       1.0  0.42465  0.11932  0.55033  1.0000
  N   N33       1.0  0.43137  0.17211  0.55459  1.0000
  H   H65       1.0  0.42652  0.18888  0.53209  1.0000
  H   H66       1.0  0.43863  0.17394  0.61720  1.0000
  C   C122      1.0  0.44012  0.69608  0.35219  1.0000
  C   C123      1.0  0.47419  0.71353  0.37709  1.0000
  H   H67       1.0  0.48469  0.69911  0.38771  1.0000
  C   C124      1.0  0.40024  0.75695  0.25967  1.0000
  H   H68       1.0  0.40422  0.74690  0.20267  1.0000
  N   N34       1.0  0.39994  0.65024  0.27038  1.0000
  C   C125      1.0  0.49399  0.74923  0.37892  1.0000
  C   C126      1.0  0.47520  0.76611  0.37142  1.0000
  C   C127      1.0  0.44116  0.74992  0.34651  1.0000
  C   C128      1.0  0.42489  0.71519  0.33391  1.0000
  H   H69       1.0  0.48654  0.79134  0.37571  1.0000
  H   H70       1.0  0.39978  0.70287  0.32095  1.0000
  C   C129      1.0  0.42178  0.76560  0.33502  1.0000
  N   N35       1.0  0.41138  0.77470  0.41081  1.0000
  O   O11       1.0  0.40064  0.80887  0.55161  1.0000
  C   C130      1.0  0.41927  0.66095  0.34605  1.0000
  C   C131      1.0  0.40940  0.63765  0.41873  1.0000
  C   C132      1.0  0.42366  0.64439  0.50633  1.0000
  O   O12       1.0  0.42465  0.61932  0.55033  1.0000
  N   N36       1.0  0.43137  0.67211  0.55459  1.0000
  H   H71       1.0  0.42652  0.68888  0.53209  1.0000
  H   H72       1.0  0.43863  0.67395  0.61720  1.0000
  C   C133      1.0  0.54997  0.30256  0.37718  1.0000
  C   C134      1.0  0.58403  0.32000  0.35219  1.0000
  H   H73       1.0  0.53949  0.31698  0.38801  1.0000
  N   N37       1.0  0.65411  0.26215  0.26990  1.0000
  C   C135      1.0  0.62390  0.25926  0.25912  1.0000
  H   H74       1.0  0.61972  0.26903  0.20181  1.0000
  N   N38       1.0  0.62423  0.36598  0.27065  1.0000
  C   C136      1.0  0.65157  0.39620  0.26008  1.0000
  H   H75       1.0  0.66555  0.40038  0.20284  1.0000
  C   C137      1.0  0.53017  0.26685  0.37891  1.0000
  C   C138      1.0  0.59923  0.30090  0.33356  1.0000
  C   C139      1.0  0.58297  0.26616  0.34600  1.0000
  C   C140      1.0  0.54896  0.24997  0.37121  1.0000
  H   H76       1.0  0.62434  0.31321  0.32052  1.0000
  H   H77       1.0  0.53762  0.22475  0.37530  1.0000
  C   C141      1.0  0.66492  0.25374  0.34575  1.0000
  C   C142      1.0  0.60237  0.25049  0.33446  1.0000
  N   N39       1.0  0.61267  0.24138  0.41037  1.0000
  C   C143      1.0  0.64174  0.24057  0.41879  1.0000
  C   C144      1.0  0.64861  0.23307  0.50628  1.0000
  O   O13       1.0  0.62346  0.20723  0.55078  1.0000
  C   C145      1.0  0.60496  0.35514  0.34640  1.0000
  C   C146      1.0  0.66432  0.41774  0.33538  1.0000
  N   N40       1.0  0.64485  0.40732  0.41121  1.0000
  C   C147      1.0  0.61496  0.37826  0.41955  1.0000
  C   C148      1.0  0.60057  0.37135  0.50702  1.0000
  O   O14       1.0  0.59992  0.39649  0.55167  1.0000
  N   N41       1.0  0.59263  0.34346  0.55472  1.0000
  H   H78       1.0  0.59788  0.32697  0.53220  1.0000
  H   H79       1.0  0.58589  0.34183  0.61777  1.0000
  C   C149      1.0  0.54997  0.80256  0.37718  1.0000
  C   C150      1.0  0.58403  0.82000  0.35219  1.0000
  H   H80       1.0  0.53949  0.81698  0.38801  1.0000
  N   N42       1.0  0.65411  0.76215  0.26990  1.0000
  C   C151      1.0  0.62390  0.75926  0.25912  1.0000
  H   H81       1.0  0.61972  0.76903  0.20181  1.0000
  N   N43       1.0  0.62423  0.86598  0.27065  1.0000
  C   C152      1.0  0.65157  0.89619  0.26008  1.0000
  H   H82       1.0  0.66555  0.90038  0.20284  1.0000
  C   C153      1.0  0.53017  0.76685  0.37891  1.0000
  C   C154      1.0  0.59923  0.80090  0.33356  1.0000
  C   C155      1.0  0.58297  0.76616  0.34600  1.0000
  C   C156      1.0  0.54896  0.74997  0.37121  1.0000
  H   H83       1.0  0.62434  0.81320  0.32052  1.0000
  H   H84       1.0  0.53762  0.72475  0.37530  1.0000
  C   C157      1.0  0.66492  0.75374  0.34575  1.0000
  C   C158      1.0  0.60237  0.75049  0.33446  1.0000
  N   N44       1.0  0.61267  0.74138  0.41037  1.0000
  C   C159      1.0  0.64174  0.74057  0.41879  1.0000
  C   C160      1.0  0.64862  0.73307  0.50628  1.0000
  O   O15       1.0  0.62347  0.70723  0.55078  1.0000
  C   C161      1.0  0.60496  0.85513  0.34640  1.0000
  C   C162      1.0  0.66432  0.91774  0.33538  1.0000
  N   N45       1.0  0.64485  0.90731  0.41121  1.0000
  C   C163      1.0  0.61496  0.87826  0.41955  1.0000
  C   C164      1.0  0.60057  0.87135  0.50702  1.0000
  O   O16       1.0  0.59992  0.89649  0.55167  1.0000
  N   N46       1.0  0.59262  0.84346  0.55472  1.0000
  H   H85       1.0  0.59788  0.82697  0.53220  1.0000
  H   H86       1.0  0.58589  0.84183  0.61777  1.0000
  C   C165      1.0  0.94012  0.19609  0.35219  1.0000
  C   C166      1.0  0.97420  0.21353  0.37709  1.0000
  H   H87       1.0  0.98469  0.19911  0.38771  1.0000
  C   C167      1.0  0.82404  0.24813  0.35233  1.0000
  C   C168      1.0  0.80657  0.26472  0.37731  1.0000
  H   H88       1.0  0.82097  0.28963  0.38802  1.0000
  C   C169      1.0  0.71750  0.25137  0.37690  1.0000
  C   C170      1.0  0.70005  0.26797  0.35173  1.0000
  H   H89       1.0  0.70308  0.22646  0.38761  1.0000
  C   C171      1.0  0.77201  0.08005  0.35182  1.0000
  C   C172      1.0  0.75542  0.04599  0.37679  1.0000
  H   H90       1.0  0.73053  0.03549  0.38779  1.0000
  C   C173      1.0  0.76883  0.47031  0.37736  1.0000
  C   C174      1.0  0.75220  0.43617  0.35321  1.0000
  H   H91       1.0  0.79375  0.48085  0.38792  1.0000
  N   N47       1.0  0.75808  0.39620  0.27110  1.0000
  C   C175      1.0  0.76094  0.36887  0.25984  1.0000
  H   H92       1.0  0.75088  0.35491  0.20272  1.0000
  N   N48       1.0  0.86998  0.25395  0.27067  1.0000
  C   C176      1.0  0.90024  0.25695  0.25967  1.0000
  H   H93       1.0  0.90422  0.24690  0.20267  1.0000
  N   N49       1.0  0.76618  0.12017  0.27001  1.0000
  C   C177      1.0  0.76331  0.14751  0.25929  1.0000
  H   H94       1.0  0.77308  0.16146  0.20199  1.0000
  N   N50       1.0  0.89994  0.15024  0.27038  1.0000
  C   C178      1.0  0.87268  0.12001  0.25924  1.0000
  H   H95       1.0  0.85858  0.11606  0.20236  1.0000
  C   C179      1.0  0.99399  0.24924  0.37892  1.0000
  C   C180      1.0  0.97520  0.26611  0.37142  1.0000
  C   C181      1.0  0.94116  0.24992  0.34651  1.0000
  C   C182      1.0  0.92489  0.21519  0.33391  1.0000
  H   H96       1.0  0.98654  0.29134  0.37571  1.0000
  H   H97       1.0  0.89978  0.20287  0.32095  1.0000
  C   C183      1.0  0.77086  0.24878  0.37902  1.0000
  C   C184      1.0  0.75401  0.21312  0.37146  1.0000
  C   C185      1.0  0.77022  0.19533  0.34623  1.0000
  C   C186      1.0  0.80496  0.21382  0.33378  1.0000
  H   H98       1.0  0.72878  0.19922  0.37549  1.0000
  H   H99       1.0  0.81730  0.20105  0.32073  1.0000
  C   C187      1.0  0.75321  0.26731  0.37891  1.0000
  C   C188      1.0  0.71915  0.30230  0.33334  1.0000
  C   C189      1.0  0.75386  0.32078  0.34616  1.0000
  C   C190      1.0  0.77006  0.30298  0.37144  1.0000
  H   H100      1.0  0.70682  0.31506  0.32008  1.0000
  H   H101      1.0  0.79527  0.31688  0.37613  1.0000
  C   C191      1.0  0.77138  0.02624  0.37881  1.0000
  C   C192      1.0  0.80705  0.04507  0.37133  1.0000
  C   C193      1.0  0.82483  0.07905  0.34586  1.0000
  C   C194      1.0  0.80632  0.09528  0.33330  1.0000
  H   H102      1.0  0.82097  0.03377  0.37564  1.0000
  H   H103      1.0  0.81910  0.12038  0.32015  1.0000
  C   C195      1.0  0.75286  0.49006  0.37906  1.0000
  C   C196      1.0  0.71783  0.42082  0.33542  1.0000
  C   C197      1.0  0.69936  0.43711  0.34731  1.0000
  C   C198      1.0  0.71719  0.47122  0.37149  1.0000
  H   H104      1.0  0.70507  0.39570  0.32255  1.0000
  H   H105      1.0  0.70330  0.48256  0.37536  1.0000
  N   N51       1.0  0.67645  0.25304  0.55415  1.0000
  H   H106      1.0  0.69293  0.27481  0.53172  1.0000
  H   H107      1.0  0.67805  0.24791  0.61719  1.0000
  C   C199      1.0  0.76661  0.41545  0.34690  1.0000
  C   C200      1.0  0.76951  0.35586  0.33505  1.0000
  N   N52       1.0  0.77859  0.37525  0.41103  1.0000
  C   C201      1.0  0.77960  0.40520  0.41982  1.0000
  C   C202      1.0  0.78690  0.41923  0.50771  1.0000
  O   O17       1.0  0.81268  0.41985  0.55230  1.0000
  N   N53       1.0  0.76698  0.42716  0.55556  1.0000
  H   H108      1.0  0.74549  0.42256  0.53264  1.0000
  H   H109      1.0  0.77224  0.43425  0.61833  1.0000
  C   C203      1.0  0.85918  0.26243  0.34641  1.0000
  C   C204      1.0  0.92178  0.26560  0.33502  1.0000
  N   N54       1.0  0.91138  0.27470  0.41081  1.0000
  C   C205      1.0  0.88240  0.27566  0.41931  1.0000
  C   C206      1.0  0.87557  0.28297  0.50708  1.0000
  O   O18       1.0  0.90064  0.30887  0.55161  1.0000
  N   N55       1.0  0.84777  0.26291  0.55496  1.0000
  H   H110      1.0  0.83098  0.24137  0.53205  1.0000
  H   H111      1.0  0.84588  0.26818  0.61767  1.0000
  C   C207      1.0  0.75777  0.10093  0.34582  1.0000
  C   C208      1.0  0.75456  0.16026  0.33467  1.0000
  N   N56       1.0  0.74544  0.14083  0.41056  1.0000
  C   C209      1.0  0.74462  0.11095  0.41889  1.0000
  C   C210      1.0  0.73711  0.09655  0.50635  1.0000
  O   O19       1.0  0.71126  0.09584  0.55085  1.0000
  N   N57       1.0  0.75708  0.08868  0.55421  1.0000
  H   H112      1.0  0.77885  0.09398  0.53179  1.0000
  H   H113      1.0  0.75195  0.08194  0.61724  1.0000
  C   C211      1.0  0.91927  0.16095  0.34605  1.0000
  C   C212      1.0  0.85993  0.09850  0.33467  1.0000
  N   N58       1.0  0.87944  0.10866  0.41037  1.0000
  C   C213      1.0  0.90940  0.13765  0.41873  1.0000
  C   C214      1.0  0.92366  0.14439  0.50633  1.0000
  O   O20       1.0  0.92465  0.11932  0.55033  1.0000
  N   N59       1.0  0.93137  0.17211  0.55459  1.0000
  H   H114      1.0  0.92652  0.18888  0.53209  1.0000
  H   H115      1.0  0.93863  0.17394  0.61720  1.0000
  C   C215      1.0  0.94012  0.69608  0.35219  1.0000
  C   C216      1.0  0.97419  0.71353  0.37709  1.0000
  H   H116      1.0  0.98469  0.69911  0.38771  1.0000
  C   C217      1.0  0.82404  0.74813  0.35233  1.0000
  C   C218      1.0  0.80657  0.76472  0.37731  1.0000
  H   H117      1.0  0.82097  0.78963  0.38802  1.0000
  C   C219      1.0  0.71749  0.75137  0.37690  1.0000
  C   C220      1.0  0.70005  0.76797  0.35173  1.0000
  H   H118      1.0  0.70308  0.72647  0.38761  1.0000
  C   C221      1.0  0.77201  0.58005  0.35182  1.0000
  C   C222      1.0  0.75542  0.54599  0.37679  1.0000
  H   H119      1.0  0.73053  0.53549  0.38779  1.0000
  C   C223      1.0  0.76883  0.97031  0.37736  1.0000
  C   C224      1.0  0.75220  0.93617  0.35321  1.0000
  H   H120      1.0  0.79375  0.98085  0.38792  1.0000
  N   N60       1.0  0.75808  0.89620  0.27110  1.0000
  C   C225      1.0  0.76094  0.86887  0.25984  1.0000
  H   H121      1.0  0.75088  0.85491  0.20272  1.0000
  N   N61       1.0  0.86998  0.75395  0.27067  1.0000
  C   C226      1.0  0.90023  0.75695  0.25967  1.0000
  H   H122      1.0  0.90422  0.74690  0.20267  1.0000
  N   N62       1.0  0.76618  0.62017  0.27001  1.0000
  C   C227      1.0  0.76331  0.64751  0.25929  1.0000
  H   H123      1.0  0.77308  0.66146  0.20199  1.0000
  N   N63       1.0  0.89994  0.65024  0.27038  1.0000
  C   C228      1.0  0.87268  0.62001  0.25924  1.0000
  H   H124      1.0  0.85858  0.61606  0.20236  1.0000
  C   C229      1.0  0.99399  0.74923  0.37892  1.0000
  C   C230      1.0  0.97520  0.76611  0.37142  1.0000
  C   C231      1.0  0.94116  0.74992  0.34651  1.0000
  C   C232      1.0  0.92489  0.71519  0.33391  1.0000
  H   H125      1.0  0.98654  0.79134  0.37571  1.0000
  H   H126      1.0  0.89978  0.70287  0.32095  1.0000
  C   C233      1.0  0.77086  0.74879  0.37902  1.0000
  C   C234      1.0  0.75400  0.71312  0.37146  1.0000
  C   C235      1.0  0.77023  0.69533  0.34623  1.0000
  C   C236      1.0  0.80496  0.71381  0.33378  1.0000
  H   H127      1.0  0.72878  0.69922  0.37549  1.0000
  H   H128      1.0  0.81730  0.70105  0.32073  1.0000
  C   C237      1.0  0.75320  0.76731  0.37891  1.0000
  C   C238      1.0  0.71915  0.80230  0.33334  1.0000
  C   C239      1.0  0.75386  0.82078  0.34616  1.0000
  C   C240      1.0  0.77006  0.80298  0.37144  1.0000
  H   H129      1.0  0.70682  0.81506  0.32008  1.0000
  H   H130      1.0  0.79527  0.81688  0.37613  1.0000
  C   C241      1.0  0.77138  0.52624  0.37881  1.0000
  C   C242      1.0  0.80705  0.54507  0.37133  1.0000
  C   C243      1.0  0.82483  0.57905  0.34586  1.0000
  C   C244      1.0  0.80633  0.59528  0.33330  1.0000
  H   H131      1.0  0.82096  0.53377  0.37564  1.0000
  H   H132      1.0  0.81910  0.62037  0.32015  1.0000
  C   C245      1.0  0.75286  0.99006  0.37906  1.0000
  C   C246      1.0  0.71783  0.92083  0.33542  1.0000
  C   C247      1.0  0.69936  0.93711  0.34731  1.0000
  C   C248      1.0  0.71719  0.97122  0.37149  1.0000
  H   H133      1.0  0.70507  0.89570  0.32255  1.0000
  H   H134      1.0  0.70330  0.98256  0.37536  1.0000
  N   N64       1.0  0.67645  0.75304  0.55414  1.0000
  H   H135      1.0  0.69292  0.77480  0.53172  1.0000
  H   H136      1.0  0.67805  0.74791  0.61719  1.0000
  C   C249      1.0  0.76662  0.91546  0.34690  1.0000
  C   C250      1.0  0.76951  0.85586  0.33505  1.0000
  N   N65       1.0  0.77859  0.87524  0.41103  1.0000
  C   C251      1.0  0.77960  0.90520  0.41982  1.0000
  C   C252      1.0  0.78690  0.91923  0.50771  1.0000
  O   O21       1.0  0.81268  0.91985  0.55230  1.0000
  N   N66       1.0  0.76697  0.92716  0.55556  1.0000
  H   H137      1.0  0.74548  0.92256  0.53264  1.0000
  H   H138      1.0  0.77224  0.93425  0.61833  1.0000
  C   C253      1.0  0.85919  0.76243  0.34641  1.0000
  C   C254      1.0  0.92178  0.76560  0.33502  1.0000
  N   N67       1.0  0.91138  0.77470  0.41081  1.0000
  C   C255      1.0  0.88239  0.77566  0.41931  1.0000
  C   C256      1.0  0.87557  0.78297  0.50709  1.0000
  O   O22       1.0  0.90064  0.80887  0.55161  1.0000
  N   N68       1.0  0.84777  0.76291  0.55496  1.0000
  H   H139      1.0  0.83098  0.74136  0.53205  1.0000
  H   H140      1.0  0.84588  0.76818  0.61767  1.0000
  C   C257      1.0  0.75777  0.60093  0.34582  1.0000
  C   C258      1.0  0.75455  0.66026  0.33467  1.0000
  N   N69       1.0  0.74544  0.64083  0.41056  1.0000
  C   C259      1.0  0.74462  0.61095  0.41889  1.0000
  C   C260      1.0  0.73711  0.59655  0.50635  1.0000
  O   O23       1.0  0.71126  0.59584  0.55085  1.0000
  N   N70       1.0  0.75708  0.58868  0.55421  1.0000
  H   H141      1.0  0.77885  0.59398  0.53179  1.0000
  H   H142      1.0  0.75195  0.58194  0.61724  1.0000
  C   C261      1.0  0.91927  0.66095  0.34605  1.0000
  C   C262      1.0  0.85993  0.59850  0.33467  1.0000
  N   N71       1.0  0.87944  0.60867  0.41037  1.0000
  C   C263      1.0  0.90940  0.63765  0.41873  1.0000
  C   C264      1.0  0.92366  0.64439  0.50633  1.0000
  O   O24       1.0  0.92465  0.61932  0.55033  1.0000
  N   N72       1.0  0.93137  0.67211  0.55459  1.0000
  H   H143      1.0  0.92651  0.68888  0.53209  1.0000
  H   H144      1.0  0.93863  0.67395  0.61720  1.0000
