data_image0
_chemical_formula_structural       C2H2C2H2C2H2C2H2C4HCH3C4HCH3C4HCH3C4HCH3C4HCH3C4HCH3C4HCH3C4HCH3C2H2C2H2C2H2C2H2C4HCH3C4HCH3C4HCH3C4HCH3C2H2C2H2C2H2C2H2C4HCH3C4HCH3C2H2C2H2C2H2C2H2C4HCH3C4HCH3C4HCH3C4HCH3C4HCH3C4HCH3C4HCH3C4HCH3C2H2C2H2C2H2C2H2CNCNCNCNCNCNCNCNCNCNCNCNCNCNCNCNCNCNCNCNCNCNCNCNCNCNCNCNCNCNCNCNCNCNCNCNCNCNCNCNCNCNCNCNCNCNCNCNCNCNCNCNCNCNCNCNCNCNCNCNCNCNCNCNCNCNCNCNCNCNCNCNCNCNCNCNCNCNCNCNCNCNCNCNC4HCH3C4HCH3C4HCH3C4HCH3C2H2C2H2C2H2C2H2C2H2C2H2C2H2C2H2C4HCH3C4HCH3C4HCH3C4HCH3C2H2C2H2C2H2C2H2C4HCH3C4HCH3C4HCH3C4HCH3C2H2C2H2C4HCH3C4HCH3C4HCH3C4HCH3C2H2C2H2C2H2C2H2C2H2C2H2C2H2C2H2C4HCH3C4HCH3C4HCH3C4HCH3
_chemical_formula_sum              "C378 H252 N84"
_cell_length_a       51.5281
_cell_length_b       51.5281
_cell_length_c       14.8398
_cell_angle_alpha    90
_cell_angle_beta     90
_cell_angle_gamma    90

_space_group_name_H-M_alt    "P 1"
_space_group_IT_number       1

loop_
  _space_group_symop_operation_xyz
  'x, y, z'

loop_
  _atom_site_type_symbol
  _atom_site_label
  _atom_site_symmetry_multiplicity
  _atom_site_fract_x
  _atom_site_fract_y
  _atom_site_fract_z
  _atom_site_occupancy
  C   C1        1.0  0.11680  0.14708  0.31703  1.0000
  C   C2        1.0  0.13596  0.16632  0.31651  1.0000
  H   H1        1.0  0.10101  0.14967  0.27604  1.0000
  H   H2        1.0  0.13336  0.18220  0.27603  1.0000
  C   C3        1.0  0.89370  0.86387  0.31639  1.0000
  C   C4        1.0  0.87445  0.84472  0.31581  1.0000
  H   H3        1.0  0.90945  0.86126  0.27523  1.0000
  H   H4        1.0  0.87692  0.82889  0.27496  1.0000
  C   C5        1.0  0.86375  0.11693  0.31678  1.0000
  C   C6        1.0  0.84454  0.13612  0.31643  1.0000
  H   H5        1.0  0.86112  0.10115  0.27575  1.0000
  H   H6        1.0  0.82867  0.13358  0.27583  1.0000
  C   C7        1.0  0.14695  0.89380  0.31642  1.0000
  C   C8        1.0  0.16616  0.87460  0.31587  1.0000
  H   H7        1.0  0.14954  0.90957  0.27535  1.0000
  H   H8        1.0  0.18199  0.87713  0.27507  1.0000
  C   C9        1.0  0.09863  0.97995  0.31662  1.0000
  C   C10       1.0  0.08931  0.99299  0.23952  1.0000
  C   C11       1.0  0.08829  0.02033  0.23552  1.0000
  C   C12       1.0  0.09686  0.03480  0.31171  1.0000
  H   H9        1.0  0.08166  0.98235  0.18757  1.0000
  C   C13       1.0  0.07756  0.03286  0.15302  1.0000
  H   H10       1.0  0.07568  0.01929  0.09687  1.0000
  H   H11       1.0  0.09037  0.04852  0.13113  1.0000
  H   H12       1.0  0.05836  0.04078  0.16683  1.0000
  C   C14       1.0  0.91213  0.03080  0.31634  1.0000
  C   C15       1.0  0.92154  0.01776  0.23936  1.0000
  C   C16       1.0  0.92256  0.99042  0.23539  1.0000
  C   C17       1.0  0.91395  0.97596  0.31155  1.0000
  H   H13       1.0  0.92915  0.02839  0.18734  1.0000
  C   C18       1.0  0.93331  0.97787  0.15297  1.0000
  H   H14       1.0  0.93522  0.99143  0.09680  1.0000
  H   H15       1.0  0.92051  0.96222  0.13105  1.0000
  H   H16       1.0  0.95251  0.96996  0.16688  1.0000
  C   C19       1.0  0.03080  0.09855  0.31646  1.0000
  C   C20       1.0  0.01777  0.08918  0.23941  1.0000
  C   C21       1.0  0.99043  0.08818  0.23539  1.0000
  C   C22       1.0  0.97596  0.09679  0.31151  1.0000
  H   H17       1.0  0.02841  0.08153  0.18748  1.0000
  C   C23       1.0  0.97790  0.07744  0.15289  1.0000
  H   H18       1.0  0.99148  0.07554  0.09677  1.0000
  H   H19       1.0  0.96226  0.09026  0.13095  1.0000
  H   H20       1.0  0.96997  0.05825  0.16675  1.0000
  C   C24       1.0  0.97996  0.91212  0.31653  1.0000
  C   C25       1.0  0.99300  0.92150  0.23951  1.0000
  C   C26       1.0  0.02034  0.92256  0.23561  1.0000
  C   C27       1.0  0.03479  0.91395  0.31178  1.0000
  H   H21       1.0  0.98237  0.92918  0.18758  1.0000
  C   C28       1.0  0.03288  0.93335  0.15323  1.0000
  H   H22       1.0  0.01933  0.93524  0.09704  1.0000
  H   H23       1.0  0.04856  0.92057  0.13131  1.0000
  H   H24       1.0  0.04077  0.95255  0.16719  1.0000
  C   C29       1.0  0.16671  0.30581  0.32767  1.0000
  C   C30       1.0  0.18976  0.29746  0.28443  1.0000
  C   C31       1.0  0.19846  0.27139  0.28713  1.0000
  C   C32       1.0  0.18366  0.25270  0.33603  1.0000
  H   H25       1.0  0.20072  0.31087  0.25056  1.0000
  C   C33       1.0  0.22252  0.26457  0.23658  1.0000
  H   H26       1.0  0.22963  0.28047  0.19465  1.0000
  H   H27       1.0  0.21880  0.24812  0.19210  1.0000
  H   H28       1.0  0.23798  0.25955  0.28364  1.0000
  C   C34       1.0  0.84360  0.70531  0.32972  1.0000
  C   C35       1.0  0.82062  0.71362  0.28587  1.0000
  C   C36       1.0  0.81193  0.73970  0.28801  1.0000
  C   C37       1.0  0.82666  0.75844  0.33694  1.0000
  H   H29       1.0  0.80971  0.70017  0.25196  1.0000
  C   C38       1.0  0.78799  0.74648  0.23679  1.0000
  H   H30       1.0  0.78093  0.73054  0.19497  1.0000
  H   H31       1.0  0.79183  0.76287  0.19211  1.0000
  H   H32       1.0  0.77245  0.75160  0.28340  1.0000
  C   C39       1.0  0.70507  0.16707  0.32984  1.0000
  C   C40       1.0  0.71342  0.19003  0.28604  1.0000
  C   C41       1.0  0.73952  0.19867  0.28818  1.0000
  C   C42       1.0  0.75823  0.18389  0.33708  1.0000
  H   H33       1.0  0.69999  0.20098  0.25223  1.0000
  C   C43       1.0  0.74635  0.22262  0.23707  1.0000
  H   H34       1.0  0.73042  0.22970  0.19517  1.0000
  H   H35       1.0  0.76275  0.21878  0.19247  1.0000
  H   H36       1.0  0.75145  0.23814  0.28374  1.0000
  C   C44       1.0  0.30558  0.84398  0.32781  1.0000
  C   C45       1.0  0.29728  0.82092  0.28446  1.0000
  C   C46       1.0  0.27123  0.81217  0.28704  1.0000
  C   C47       1.0  0.25249  0.82692  0.33594  1.0000
  H   H37       1.0  0.31073  0.81000  0.25060  1.0000
  C   C48       1.0  0.26447  0.78812  0.23636  1.0000
  H   H38       1.0  0.28040  0.78104  0.19452  1.0000
  H   H39       1.0  0.24804  0.79184  0.19178  1.0000
  H   H40       1.0  0.25944  0.77265  0.28334  1.0000
  C   C49       1.0  0.84908  0.25773  0.32783  1.0000
  C   C50       1.0  0.85766  0.28369  0.32901  1.0000
  H   H41       1.0  0.85936  0.24471  0.28984  1.0000
  H   H42       1.0  0.87350  0.28872  0.29124  1.0000
  C   C51       1.0  0.16151  0.75313  0.32577  1.0000
  C   C52       1.0  0.15282  0.72721  0.32661  1.0000
  H   H43       1.0  0.15127  0.76624  0.28800  1.0000
  H   H44       1.0  0.13697  0.72229  0.28870  1.0000
  C   C53       1.0  0.25754  0.16185  0.32738  1.0000
  C   C54       1.0  0.28347  0.15321  0.32880  1.0000
  H   H45       1.0  0.24452  0.15160  0.28930  1.0000
  H   H46       1.0  0.28850  0.13741  0.29085  1.0000
  C   C55       1.0  0.75296  0.84945  0.32608  1.0000
  C   C56       1.0  0.72702  0.85809  0.32672  1.0000
  H   H47       1.0  0.76607  0.85969  0.28834  1.0000
  H   H48       1.0  0.72209  0.87392  0.28875  1.0000
  C   C57       1.0  0.39825  0.05586  0.32635  1.0000
  C   C58       1.0  0.41178  0.07730  0.28901  1.0000
  C   C59       1.0  0.40207  0.10314  0.28983  1.0000
  C   C60       1.0  0.37750  0.10857  0.33074  1.0000
  H   H49       1.0  0.42952  0.07402  0.26014  1.0000
  C   C61       1.0  0.41815  0.12355  0.24546  1.0000
  H   H50       1.0  0.43470  0.11566  0.20857  1.0000
  H   H51       1.0  0.42583  0.13683  0.29606  1.0000
  H   H52       1.0  0.40639  0.13434  0.19709  1.0000
  C   C62       1.0  0.61265  0.95578  0.32244  1.0000
  C   C63       1.0  0.59908  0.93445  0.28445  1.0000
  C   C64       1.0  0.60867  0.90856  0.28509  1.0000
  C   C65       1.0  0.63316  0.90295  0.32639  1.0000
  H   H53       1.0  0.58134  0.93785  0.25571  1.0000
  C   C66       1.0  0.59256  0.88824  0.24042  1.0000
  H   H54       1.0  0.57609  0.89623  0.20332  1.0000
  H   H55       1.0  0.58475  0.87497  0.29087  1.0000
  H   H56       1.0  0.60433  0.87740  0.19221  1.0000
  C   C67       1.0  0.95492  0.39849  0.32636  1.0000
  C   C68       1.0  0.93347  0.41201  0.28897  1.0000
  C   C69       1.0  0.90764  0.40229  0.28979  1.0000
  C   C70       1.0  0.90222  0.37772  0.33073  1.0000
  H   H57       1.0  0.93676  0.42975  0.26011  1.0000
  C   C71       1.0  0.88723  0.41835  0.24537  1.0000
  H   H58       1.0  0.89511  0.43490  0.20846  1.0000
  H   H59       1.0  0.87394  0.42604  0.29595  1.0000
  H   H60       1.0  0.87645  0.40659  0.19702  1.0000
  C   C72       1.0  0.05501  0.61288  0.32259  1.0000
  C   C73       1.0  0.07634  0.59929  0.28467  1.0000
  C   C74       1.0  0.10224  0.60888  0.28532  1.0000
  C   C75       1.0  0.10786  0.63337  0.32652  1.0000
  H   H61       1.0  0.07294  0.58155  0.25598  1.0000
  C   C76       1.0  0.12256  0.59274  0.24078  1.0000
  H   H62       1.0  0.11457  0.57626  0.20373  1.0000
  H   H63       1.0  0.13581  0.58494  0.29129  1.0000
  H   H64       1.0  0.13341  0.60448  0.19253  1.0000
  C   C77       1.0  0.64611  0.08492  0.32147  1.0000
  C   C78       1.0  0.63686  0.05908  0.32184  1.0000
  H   H65       1.0  0.66325  0.08843  0.28880  1.0000
  H   H66       1.0  0.64739  0.04512  0.28911  1.0000
  C   C79       1.0  0.36447  0.92630  0.31638  1.0000
  C   C80       1.0  0.37371  0.95216  0.31613  1.0000
  H   H67       1.0  0.34719  0.92276  0.28471  1.0000
  H   H68       1.0  0.36304  0.96611  0.28393  1.0000
  C   C81       1.0  0.08445  0.36472  0.31631  1.0000
  C   C82       1.0  0.05859  0.37396  0.31610  1.0000
  H   H69       1.0  0.08798  0.34745  0.28458  1.0000
  H   H70       1.0  0.04463  0.36330  0.28389  1.0000
  C   C83       1.0  0.92584  0.64641  0.32152  1.0000
  C   C84       1.0  0.95169  0.63716  0.32192  1.0000
  H   H71       1.0  0.92233  0.66354  0.28885  1.0000
  H   H72       1.0  0.96564  0.64767  0.28913  1.0000
  C   C85       1.0  0.53315  0.00512  0.33329  1.0000
  C   C86       1.0  0.51924  0.98814  0.27613  1.0000
  C   C87       1.0  0.49175  0.98846  0.27098  1.0000
  C   C88       1.0  0.47754  0.00599  0.32681  1.0000
  H   H73       1.0  0.52943  0.97567  0.23569  1.0000
  C   C89       1.0  0.47870  0.97145  0.20359  1.0000
  H   H74       1.0  0.49243  0.96154  0.15934  1.0000
  H   H75       1.0  0.46589  0.98305  0.16100  1.0000
  H   H76       1.0  0.46730  0.95660  0.23783  1.0000
  C   C90       1.0  0.00563  0.53341  0.33320  1.0000
  C   C91       1.0  0.02273  0.51949  0.27649  1.0000
  C   C92       1.0  0.02242  0.49200  0.27137  1.0000
  C   C93       1.0  0.00479  0.47780  0.32680  1.0000
  H   H77       1.0  0.03528  0.52968  0.23631  1.0000
  C   C94       1.0  0.03956  0.47896  0.20436  1.0000
  H   H78       1.0  0.04953  0.49268  0.16027  1.0000
  H   H79       1.0  0.02805  0.46612  0.16157  1.0000
  H   H80       1.0  0.05437  0.46759  0.23894  1.0000
  C   C95       1.0  0.23829  0.41022  0.28049  1.0000
  C   C96       1.0  0.21230  0.40167  0.27798  1.0000
  H   H81       1.0  0.24617  0.41780  0.22286  1.0000
  H   H82       1.0  0.20232  0.40269  0.21841  1.0000
  C   C97       1.0  0.77207  0.60112  0.28170  1.0000
  C   C98       1.0  0.79806  0.60967  0.27954  1.0000
  H   H83       1.0  0.76422  0.59367  0.22381  1.0000
  H   H84       1.0  0.80807  0.60879  0.22003  1.0000
  C   C99       1.0  0.60081  0.23867  0.28186  1.0000
  C   C100      1.0  0.60941  0.21270  0.27970  1.0000
  H   H85       1.0  0.59332  0.24650  0.22401  1.0000
  H   H86       1.0  0.60847  0.20265  0.22027  1.0000
  C   C101      1.0  0.40997  0.77248  0.28085  1.0000
  C   C102      1.0  0.40145  0.79847  0.27836  1.0000
  H   H87       1.0  0.41757  0.76461  0.22322  1.0000
  H   H88       1.0  0.40251  0.80848  0.21888  1.0000
  C   C103      1.0  0.80606  0.38580  0.35503  1.0000
  C   C104      1.0  0.80080  0.40602  0.29343  1.0000
  C   C105      1.0  0.77550  0.41684  0.28358  1.0000
  C   C106      1.0  0.75455  0.40739  0.33794  1.0000
  H   H89       1.0  0.81544  0.41200  0.25163  1.0000
  C   C107      1.0  0.77133  0.43668  0.21205  1.0000
  H   H90       1.0  0.78847  0.43969  0.17002  1.0000
  H   H91       1.0  0.76650  0.45526  0.24284  1.0000
  H   H92       1.0  0.75552  0.43067  0.16775  1.0000
  C   C108      1.0  0.20409  0.62493  0.35253  1.0000
  C   C109      1.0  0.20958  0.60491  0.29037  1.0000
  C   C110      1.0  0.23496  0.59424  0.28087  1.0000
  C   C111      1.0  0.25573  0.60361  0.33619  1.0000
  H   H93       1.0  0.19509  0.59903  0.24779  1.0000
  C   C112      1.0  0.23940  0.57466  0.20872  1.0000
  H   H94       1.0  0.22240  0.57171  0.16601  1.0000
  H   H95       1.0  0.24423  0.55599  0.23893  1.0000
  H   H96       1.0  0.25531  0.58088  0.16517  1.0000
  C   C113      1.0  0.38560  0.20474  0.35509  1.0000
  C   C114      1.0  0.40579  0.21003  0.29339  1.0000
  C   C115      1.0  0.41658  0.23533  0.28357  1.0000
  C   C116      1.0  0.40711  0.25627  0.33792  1.0000
  H   H97       1.0  0.41179  0.19539  0.25163  1.0000
  C   C117      1.0  0.43641  0.23952  0.21202  1.0000
  H   H98       1.0  0.43943  0.22239  0.16996  1.0000
  H   H99       1.0  0.45499  0.24436  0.24279  1.0000
  H   H100      1.0  0.43038  0.25533  0.16774  1.0000
  C   C118      1.0  0.62472  0.80674  0.35240  1.0000
  C   C119      1.0  0.60470  0.80124  0.29025  1.0000
  C   C120      1.0  0.59399  0.77588  0.28089  1.0000
  C   C121      1.0  0.60335  0.75510  0.33624  1.0000
  H   H101      1.0  0.59882  0.81573  0.24769  1.0000
  C   C122      1.0  0.57440  0.77144  0.20874  1.0000
  H   H102      1.0  0.57147  0.78844  0.16599  1.0000
  H   H103      1.0  0.55573  0.76663  0.23897  1.0000
  H   H104      1.0  0.58061  0.75552  0.16523  1.0000
  C   C123      1.0  0.31580  0.53243  0.31089  1.0000
  C   C124      1.0  0.29898  0.51826  0.25386  1.0000
  C   C125      1.0  0.29788  0.49077  0.25398  1.0000
  C   C126      1.0  0.31405  0.47647  0.31454  1.0000
  H   H105      1.0  0.28659  0.52831  0.21274  1.0000
  C   C127      1.0  0.27949  0.47800  0.19023  1.0000
  H   H106      1.0  0.27273  0.49112  0.13742  1.0000
  H   H107      1.0  0.26245  0.47108  0.22658  1.0000
  H   H108      1.0  0.28894  0.46165  0.15688  1.0000
  C   C128      1.0  0.69464  0.47874  0.31169  1.0000
  C   C129      1.0  0.71152  0.49290  0.25487  1.0000
  C   C130      1.0  0.71259  0.52038  0.25482  1.0000
  C   C131      1.0  0.69632  0.53470  0.31505  1.0000
  H   H109      1.0  0.72396  0.48283  0.21393  1.0000
  C   C132      1.0  0.73103  0.53315  0.19122  1.0000
  H   H110      1.0  0.73785  0.52001  0.13854  1.0000
  H   H111      1.0  0.74804  0.54009  0.22773  1.0000
  H   H112      1.0  0.72161  0.54948  0.15770  1.0000
  C   C133      1.0  0.47840  0.31620  0.31166  1.0000
  C   C134      1.0  0.49255  0.29929  0.25486  1.0000
  C   C135      1.0  0.52003  0.29815  0.25498  1.0000
  C   C136      1.0  0.53435  0.31439  0.31529  1.0000
  H   H113      1.0  0.48248  0.28686  0.21393  1.0000
  C   C137      1.0  0.53278  0.27967  0.19149  1.0000
  H   H114      1.0  0.51964  0.27284  0.13884  1.0000
  H   H115      1.0  0.53972  0.26268  0.22810  1.0000
  H   H116      1.0  0.54912  0.28907  0.15793  1.0000
  C   C138      1.0  0.53210  0.69506  0.31124  1.0000
  C   C139      1.0  0.51792  0.71188  0.25426  1.0000
  C   C140      1.0  0.49043  0.71293  0.25424  1.0000
  C   C141      1.0  0.47614  0.69670  0.31465  1.0000
  H   H117      1.0  0.52797  0.72430  0.21317  1.0000
  C   C142      1.0  0.47765  0.73132  0.19051  1.0000
  H   H118      1.0  0.49078  0.73809  0.13771  1.0000
  H   H119      1.0  0.47073  0.74835  0.22688  1.0000
  H   H120      1.0  0.46131  0.72187  0.15715  1.0000
  C   C143      1.0  0.37054  0.39168  0.31607  1.0000
  C   C144      1.0  0.39086  0.37323  0.31218  1.0000
  H   H121      1.0  0.37299  0.40862  0.28112  1.0000
  H   H122      1.0  0.40698  0.37748  0.27473  1.0000
  C   C145      1.0  0.63987  0.61960  0.31624  1.0000
  C   C146      1.0  0.61960  0.63809  0.31216  1.0000
  H   H123      1.0  0.63740  0.60264  0.28139  1.0000
  H   H124      1.0  0.60348  0.63385  0.27470  1.0000
  C   C147      1.0  0.61915  0.37090  0.31640  1.0000
  C   C148      1.0  0.63761  0.39119  0.31233  1.0000
  H   H125      1.0  0.60223  0.37331  0.28126  1.0000
  H   H126      1.0  0.63337  0.40729  0.27473  1.0000
  C   C149      1.0  0.39125  0.64022  0.31592  1.0000
  C   C150      1.0  0.37276  0.61994  0.31188  1.0000
  H   H127      1.0  0.40821  0.63774  0.28113  1.0000
  H   H128      1.0  0.37701  0.60380  0.27449  1.0000
  C   C151      1.0  0.05728  0.09294  0.32750  1.0000
  N   N1        1.0  0.07522  0.11114  0.34892  1.0000
  C   C152      1.0  0.10072  0.10466  0.35813  1.0000
  N   N2        1.0  0.10801  0.07960  0.34424  1.0000
  C   C153      1.0  0.09035  0.06116  0.32251  1.0000
  N   N3        1.0  0.06514  0.06814  0.31503  1.0000
  C   C154      1.0  0.95348  0.91776  0.32748  1.0000
  N   N4        1.0  0.93551  0.89959  0.34895  1.0000
  C   C155      1.0  0.91002  0.90612  0.35821  1.0000
  N   N5        1.0  0.90277  0.93119  0.34427  1.0000
  C   C156      1.0  0.92045  0.94960  0.32251  1.0000
  N   N6        1.0  0.94565  0.94257  0.31500  1.0000
  C   C157      1.0  0.91776  0.05728  0.32729  1.0000
  N   N7        1.0  0.89959  0.07524  0.34875  1.0000
  C   C158      1.0  0.90611  0.10073  0.35798  1.0000
  N   N8        1.0  0.93118  0.10799  0.34409  1.0000
  C   C159      1.0  0.94960  0.09030  0.32234  1.0000
  N   N9        1.0  0.94258  0.06511  0.31484  1.0000
  C   C160      1.0  0.09299  0.95348  0.32764  1.0000
  N   N10       1.0  0.11116  0.93551  0.34897  1.0000
  C   C161      1.0  0.10465  0.91002  0.35818  1.0000
  N   N11       1.0  0.07957  0.90277  0.34432  1.0000
  C   C162      1.0  0.06115  0.92045  0.32271  1.0000
  N   N12       1.0  0.06817  0.94565  0.31522  1.0000
  C   C163      1.0  0.22339  0.19304  0.36546  1.0000
  N   N13       1.0  0.21644  0.21835  0.35379  1.0000
  C   C164      1.0  0.19126  0.22614  0.34595  1.0000
  N   N14       1.0  0.17281  0.20739  0.35071  1.0000
  C   C165      1.0  0.17874  0.18198  0.36265  1.0000
  N   N15       1.0  0.20409  0.17518  0.36963  1.0000
  C   C166      1.0  0.78700  0.81820  0.36488  1.0000
  N   N16       1.0  0.79391  0.79286  0.35366  1.0000
  C   C167      1.0  0.81909  0.78502  0.34625  1.0000
  N   N17       1.0  0.83757  0.80373  0.35089  1.0000
  C   C168      1.0  0.83168  0.82917  0.36236  1.0000
  N   N18       1.0  0.80634  0.83603  0.36900  1.0000
  C   C169      1.0  0.81792  0.22356  0.36592  1.0000
  N   N19       1.0  0.79260  0.21663  0.35444  1.0000
  C   C170      1.0  0.78480  0.19145  0.34662  1.0000
  N   N20       1.0  0.80353  0.17299  0.35115  1.0000
  C   C171      1.0  0.82896  0.17890  0.36285  1.0000
  N   N21       1.0  0.83578  0.20425  0.36988  1.0000
  C   C172      1.0  0.19278  0.78716  0.36444  1.0000
  N   N22       1.0  0.21811  0.79410  0.35304  1.0000
  C   C173      1.0  0.22593  0.81929  0.34563  1.0000
  N   N23       1.0  0.20719  0.83774  0.35046  1.0000
  C   C174      1.0  0.18177  0.83183  0.36214  1.0000
  N   N24       1.0  0.17494  0.80648  0.36876  1.0000
  C   C175      1.0  0.40972  0.98387  0.34490  1.0000
  N   N25       1.0  0.39699  0.00729  0.33952  1.0000
  C   C176      1.0  0.41004  0.03046  0.33028  1.0000
  N   N26       1.0  0.43646  0.02921  0.32665  1.0000
  C   C177      1.0  0.44994  0.00666  0.32985  1.0000
  N   N27       1.0  0.43606  0.98457  0.33951  1.0000
  C   C178      1.0  0.60094  0.02743  0.35167  1.0000
  N   N28       1.0  0.61374  0.00420  0.34133  1.0000
  C   C179      1.0  0.60078  0.98111  0.32882  1.0000
  N   N29       1.0  0.57437  0.98232  0.32643  1.0000
  C   C180      1.0  0.56073  0.00463  0.33647  1.0000
  N   N30       1.0  0.57456  0.02666  0.34901  1.0000
  C   C181      1.0  0.02689  0.40996  0.34493  1.0000
  N   N31       1.0  0.00348  0.39723  0.33955  1.0000
  C   C182      1.0  0.98031  0.41029  0.33032  1.0000
  N   N32       1.0  0.98156  0.43671  0.32665  1.0000
  C   C183      1.0  0.00411  0.45019  0.32987  1.0000
  N   N33       1.0  0.02620  0.43630  0.33957  1.0000
  C   C184      1.0  0.98333  0.60122  0.35158  1.0000
  N   N34       1.0  0.00658  0.61401  0.34135  1.0000
  C   C185      1.0  0.02966  0.60104  0.32885  1.0000
  N   N35       1.0  0.02844  0.57463  0.32644  1.0000
  C   C186      1.0  0.00613  0.56100  0.33639  1.0000
  N   N36       1.0  0.98410  0.57483  0.34889  1.0000
  C   C187      1.0  0.32607  0.40580  0.35749  1.0000
  N   N37       1.0  0.33035  0.43167  0.34085  1.0000
  C   C188      1.0  0.31061  0.44922  0.33046  1.0000
  N   N38       1.0  0.28595  0.44014  0.33838  1.0000
  C   C189      1.0  0.28034  0.41494  0.35490  1.0000
  N   N39       1.0  0.30067  0.39824  0.36311  1.0000
  C   C190      1.0  0.68431  0.60540  0.35787  1.0000
  N   N40       1.0  0.68001  0.57953  0.34116  1.0000
  C   C191      1.0  0.69975  0.56196  0.33097  1.0000
  N   N41       1.0  0.72440  0.57101  0.33921  1.0000
  C   C192      1.0  0.73002  0.59620  0.35581  1.0000
  N   N42       1.0  0.70971  0.61292  0.36379  1.0000
  C   C193      1.0  0.60502  0.32646  0.35808  1.0000
  N   N43       1.0  0.57915  0.33073  0.34139  1.0000
  C   C194      1.0  0.56161  0.31096  0.33116  1.0000
  N   N44       1.0  0.57069  0.28632  0.33934  1.0000
  C   C195      1.0  0.59589  0.28073  0.35592  1.0000
  N   N45       1.0  0.61258  0.30107  0.36397  1.0000
  C   C196      1.0  0.40543  0.68468  0.35742  1.0000
  N   N46       1.0  0.43130  0.68038  0.34080  1.0000
  C   C197      1.0  0.44887  0.70012  0.33053  1.0000
  N   N47       1.0  0.43981  0.72477  0.33860  1.0000
  C   C198      1.0  0.41462  0.73040  0.35513  1.0000
  N   N48       1.0  0.39790  0.71008  0.36318  1.0000
  C   C199      1.0  0.68238  0.40794  0.34354  1.0000
  N   N49       1.0  0.67788  0.43394  0.33191  1.0000
  C   C200      1.0  0.69775  0.45127  0.32057  1.0000
  N   N50       1.0  0.72244  0.44183  0.32185  1.0000
  C   C201      1.0  0.72820  0.41636  0.33286  1.0000
  N   N51       1.0  0.70767  0.40003  0.34432  1.0000
  C   C202      1.0  0.32793  0.60326  0.34269  1.0000
  N   N52       1.0  0.33247  0.57727  0.33119  1.0000
  C   C203      1.0  0.31264  0.55989  0.31974  1.0000
  N   N53       1.0  0.28794  0.56929  0.32070  1.0000
  C   C204      1.0  0.28213  0.59475  0.33159  1.0000
  N   N54       1.0  0.30262  0.61114  0.34324  1.0000
  C   C205      1.0  0.40759  0.32845  0.34333  1.0000
  N   N55       1.0  0.43359  0.33296  0.33175  1.0000
  C   C206      1.0  0.45093  0.31309  0.32054  1.0000
  N   N56       1.0  0.44151  0.28840  0.32187  1.0000
  C   C207      1.0  0.41605  0.28263  0.33286  1.0000
  N   N57       1.0  0.39969  0.30314  0.34420  1.0000
  C   C208      1.0  0.60293  0.68291  0.34297  1.0000
  N   N58       1.0  0.57694  0.67838  0.33152  1.0000
  C   C209      1.0  0.55957  0.69822  0.32000  1.0000
  N   N59       1.0  0.56899  0.72292  0.32087  1.0000
  C   C210      1.0  0.59446  0.72871  0.33170  1.0000
  N   N60       1.0  0.61083  0.70822  0.34343  1.0000
  C   C211      1.0  0.17768  0.37537  0.34553  1.0000
  N   N61       1.0  0.15299  0.38470  0.35073  1.0000
  C   C212      1.0  0.13156  0.36892  0.34849  1.0000
  N   N62       1.0  0.13615  0.34281  0.34013  1.0000
  C   C213      1.0  0.16059  0.33271  0.33324  1.0000
  N   N63       1.0  0.18077  0.34949  0.33756  1.0000
  C   C214      1.0  0.83264  0.63575  0.34815  1.0000
  N   N64       1.0  0.85732  0.62645  0.35466  1.0000
  C   C215      1.0  0.87872  0.64227  0.35297  1.0000
  N   N65       1.0  0.87412  0.66835  0.34391  1.0000
  C   C216      1.0  0.84970  0.67841  0.33585  1.0000
  N   N66       1.0  0.82953  0.66161  0.33957  1.0000
  C   C217      1.0  0.63553  0.17812  0.34852  1.0000
  N   N67       1.0  0.62620  0.15345  0.35479  1.0000
  C   C218      1.0  0.64200  0.13204  0.35304  1.0000
  N   N68       1.0  0.66809  0.13660  0.34400  1.0000
  C   C219      1.0  0.67817  0.16102  0.33602  1.0000
  N   N69       1.0  0.66139  0.18121  0.33984  1.0000
  C   C220      1.0  0.37512  0.83307  0.34614  1.0000
  N   N70       1.0  0.38446  0.85776  0.35104  1.0000
  C   C221      1.0  0.36867  0.87918  0.34866  1.0000
  N   N71       1.0  0.34256  0.87458  0.34029  1.0000
  C   C222      1.0  0.33247  0.85014  0.33358  1.0000
  N   N72       1.0  0.34925  0.82997  0.33802  1.0000
  C   C223      1.0  0.83010  0.37194  0.35530  1.0000
  N   N73       1.0  0.85438  0.38182  0.34168  1.0000
  C   C224      1.0  0.87639  0.36677  0.34023  1.0000
  N   N74       1.0  0.87291  0.34059  0.35213  1.0000
  C   C225      1.0  0.84908  0.32977  0.36624  1.0000
  N   N75       1.0  0.82851  0.34601  0.36658  1.0000
  C   C226      1.0  0.18002  0.63877  0.35230  1.0000
  N   N76       1.0  0.15572  0.62899  0.33805  1.0000
  C   C227      1.0  0.13377  0.64415  0.33629  1.0000
  N   N77       1.0  0.13736  0.67031  0.34844  1.0000
  C   C228      1.0  0.16121  0.68104  0.36302  1.0000
  N   N78       1.0  0.18169  0.66469  0.36370  1.0000
  C   C229      1.0  0.37174  0.18069  0.35530  1.0000
  N   N79       1.0  0.38162  0.15641  0.34172  1.0000
  C   C230      1.0  0.36656  0.13440  0.34021  1.0000
  N   N80       1.0  0.34037  0.13790  0.35201  1.0000
  C   C231      1.0  0.32955  0.16174  0.36604  1.0000
  N   N81       1.0  0.34581  0.18229  0.36646  1.0000
  C   C232      1.0  0.63860  0.83079  0.35201  1.0000
  N   N82       1.0  0.62880  0.85509  0.33783  1.0000
  C   C233      1.0  0.64394  0.87705  0.33608  1.0000
  N   N83       1.0  0.67010  0.87347  0.34830  1.0000
  C   C234      1.0  0.68084  0.84962  0.36285  1.0000
  N   N84       1.0  0.66451  0.82913  0.36352  1.0000
  C   C235      1.0  0.15897  0.16308  0.36664  1.0000
  C   C236      1.0  0.16184  0.14051  0.41981  1.0000
  C   C237      1.0  0.14255  0.12098  0.42230  1.0000
  C   C238      1.0  0.11984  0.12414  0.36844  1.0000
  H   H129      1.0  0.17826  0.13834  0.45795  1.0000
  C   C239      1.0  0.14636  0.09835  0.48341  1.0000
  H   H130      1.0  0.16292  0.10081  0.52852  1.0000
  H   H131      1.0  0.14974  0.08081  0.44403  1.0000
  H   H132      1.0  0.12917  0.09564  0.52539  1.0000
  C   C240      1.0  0.85151  0.84799  0.36630  1.0000
  C   C241      1.0  0.84881  0.87047  0.41999  1.0000
  C   C242      1.0  0.86821  0.88989  0.42267  1.0000
  C   C243      1.0  0.89084  0.88671  0.36845  1.0000
  H   H133      1.0  0.83244  0.87264  0.45844  1.0000
  C   C244      1.0  0.86462  0.91241  0.48445  1.0000
  H   H134      1.0  0.84808  0.90996  0.52969  1.0000
  H   H135      1.0  0.86133  0.93006  0.44559  1.0000
  H   H136      1.0  0.88187  0.91491  0.52627  1.0000
  C   C245      1.0  0.84783  0.15910  0.36668  1.0000
  C   C246      1.0  0.87038  0.16189  0.41995  1.0000
  C   C247      1.0  0.88986  0.14254  0.42241  1.0000
  C   C248      1.0  0.88667  0.11988  0.36833  1.0000
  H   H137      1.0  0.87257  0.17828  0.45825  1.0000
  C   C249      1.0  0.91247  0.14625  0.48369  1.0000
  H   H138      1.0  0.91003  0.16279  0.52892  1.0000
  H   H139      1.0  0.93004  0.14961  0.44445  1.0000
  H   H140      1.0  0.91511  0.12903  0.52555  1.0000
  C   C250      1.0  0.16291  0.85163  0.36620  1.0000
  C   C251      1.0  0.14041  0.84885  0.41974  1.0000
  C   C252      1.0  0.12094  0.86820  0.42242  1.0000
  C   C253      1.0  0.12408  0.89086  0.36831  1.0000
  H   H141      1.0  0.13825  0.83245  0.45806  1.0000
  C   C254      1.0  0.09839  0.86451  0.48400  1.0000
  H   H142      1.0  0.10086  0.84796  0.52915  1.0000
  H   H143      1.0  0.08078  0.86119  0.44498  1.0000
  H   H144      1.0  0.09582  0.88173  0.52592  1.0000
  C   C255      1.0  0.10830  0.02176  0.38562  1.0000
  C   C256      1.0  0.10920  0.99451  0.38812  1.0000
  H   H145      1.0  0.11380  0.03181  0.44206  1.0000
  H   H146      1.0  0.11521  0.98551  0.44601  1.0000
  C   C257      1.0  0.90248  0.98900  0.38539  1.0000
  C   C258      1.0  0.90151  0.01626  0.38778  1.0000
  H   H147      1.0  0.89700  0.97896  0.44185  1.0000
  H   H148      1.0  0.89554  0.02524  0.44574  1.0000
  C   C259      1.0  0.98900  0.10825  0.38538  1.0000
  C   C260      1.0  0.01625  0.10919  0.38785  1.0000
  H   H149      1.0  0.97896  0.11377  0.44179  1.0000
  H   H150      1.0  0.02525  0.11518  0.44576  1.0000
  C   C261      1.0  0.02175  0.90245  0.38557  1.0000
  C   C262      1.0  0.99450  0.90150  0.38796  1.0000
  H   H151      1.0  0.03180  0.89696  0.44203  1.0000
  H   H152      1.0  0.98549  0.89551  0.44586  1.0000
  C   C263      1.0  0.15999  0.26094  0.37602  1.0000
  C   C264      1.0  0.15160  0.28691  0.37180  1.0000
  H   H153      1.0  0.14889  0.24823  0.41238  1.0000
  H   H154      1.0  0.13506  0.29210  0.40550  1.0000
  C   C265      1.0  0.85023  0.75021  0.37766  1.0000
  C   C266      1.0  0.85863  0.72425  0.37391  1.0000
  H   H155      1.0  0.86130  0.76298  0.41400  1.0000
  H   H156      1.0  0.87509  0.71908  0.40810  1.0000
  C   C267      1.0  0.74997  0.16032  0.37768  1.0000
  C   C268      1.0  0.72400  0.15196  0.37385  1.0000
  H   H157      1.0  0.76271  0.14923  0.41403  1.0000
  H   H158      1.0  0.71880  0.13552  0.40812  1.0000
  C   C269      1.0  0.26070  0.85057  0.37612  1.0000
  C   C270      1.0  0.28663  0.85905  0.37189  1.0000
  H   H159      1.0  0.24794  0.86166  0.41241  1.0000
  H   H160      1.0  0.29179  0.87557  0.40575  1.0000
  C   C271      1.0  0.84349  0.30282  0.37575  1.0000
  C   C272      1.0  0.82133  0.29470  0.42486  1.0000
  C   C273      1.0  0.81232  0.26875  0.42453  1.0000
  C   C274      1.0  0.82608  0.24991  0.37294  1.0000
  H   H161      1.0  0.81106  0.30823  0.46070  1.0000
  C   C275      1.0  0.78911  0.26215  0.47997  1.0000
  H   H162      1.0  0.78284  0.27816  0.52302  1.0000
  H   H163      1.0  0.79346  0.24571  0.52381  1.0000
  H   H164      1.0  0.77286  0.25718  0.43621  1.0000
  C   C276      1.0  0.16694  0.70795  0.37289  1.0000
  C   C277      1.0  0.18915  0.71593  0.42206  1.0000
  C   C278      1.0  0.19825  0.74185  0.42216  1.0000
  C   C279      1.0  0.18456  0.76081  0.37091  1.0000
  H   H165      1.0  0.19936  0.70232  0.45771  1.0000
  C   C280      1.0  0.22150  0.74829  0.47764  1.0000
  H   H166      1.0  0.22774  0.73219  0.52032  1.0000
  H   H167      1.0  0.21720  0.76467  0.52184  1.0000
  H   H168      1.0  0.23774  0.75330  0.43391  1.0000
  C   C281      1.0  0.30262  0.16737  0.37551  1.0000
  C   C282      1.0  0.29451  0.18955  0.42460  1.0000
  C   C283      1.0  0.26857  0.19858  0.42418  1.0000
  C   C284      1.0  0.24974  0.18487  0.37247  1.0000
  H   H169      1.0  0.30804  0.19979  0.46051  1.0000
  C   C285      1.0  0.26198  0.22181  0.47957  1.0000
  H   H170      1.0  0.27799  0.22808  0.52262  1.0000
  H   H171      1.0  0.24553  0.21747  0.52340  1.0000
  H   H172      1.0  0.25702  0.23806  0.43578  1.0000
  C   C286      1.0  0.70776  0.84395  0.37293  1.0000
  C   C287      1.0  0.71575  0.82177  0.42226  1.0000
  C   C288      1.0  0.74168  0.81272  0.42253  1.0000
  C   C289      1.0  0.76064  0.82642  0.37134  1.0000
  H   H173      1.0  0.70213  0.81154  0.45781  1.0000
  C   C290      1.0  0.74812  0.78949  0.47812  1.0000
  H   H174      1.0  0.73203  0.78325  0.52082  1.0000
  H   H175      1.0  0.76450  0.79380  0.52232  1.0000
  H   H176      1.0  0.75314  0.77322  0.43448  1.0000
  C   C291      1.0  0.36355  0.08683  0.36497  1.0000
  C   C292      1.0  0.37352  0.06127  0.36267  1.0000
  H   H177      1.0  0.34595  0.08946  0.39555  1.0000
  H   H178      1.0  0.36289  0.04668  0.39143  1.0000
  C   C293      1.0  0.64716  0.92458  0.36108  1.0000
  C   C294      1.0  0.63731  0.95020  0.35904  1.0000
  H   H179      1.0  0.66469  0.92184  0.39202  1.0000
  H   H180      1.0  0.64792  0.96466  0.38864  1.0000
  C   C295      1.0  0.92395  0.36379  0.36505  1.0000
  C   C296      1.0  0.94952  0.37376  0.36267  1.0000
  H   H181      1.0  0.92133  0.34619  0.39561  1.0000
  H   H182      1.0  0.96410  0.36314  0.39152  1.0000
  C   C297      1.0  0.08622  0.64739  0.36112  1.0000
  C   C298      1.0  0.06060  0.63756  0.35904  1.0000
  H   H183      1.0  0.08897  0.66493  0.39199  1.0000
  H   H184      1.0  0.04614  0.64819  0.38858  1.0000
  C   C299      1.0  0.61270  0.05268  0.36076  1.0000
  C   C300      1.0  0.59909  0.07327  0.40309  1.0000
  C   C301      1.0  0.60807  0.09934  0.40413  1.0000
  C   C302      1.0  0.63192  0.10585  0.36010  1.0000
  H   H185      1.0  0.58176  0.06917  0.43367  1.0000
  C   C303      1.0  0.59201  0.11880  0.45345  1.0000
  H   H186      1.0  0.57622  0.11004  0.49202  1.0000
  H   H187      1.0  0.58324  0.13230  0.40574  1.0000
  H   H188      1.0  0.60408  0.12950  0.50113  1.0000
  C   C304      1.0  0.39804  0.95859  0.35368  1.0000
  C   C305      1.0  0.41184  0.93801  0.39536  1.0000
  C   C306      1.0  0.40285  0.91195  0.39730  1.0000
  C   C307      1.0  0.37881  0.90539  0.35459  1.0000
  H   H189      1.0  0.42928  0.94215  0.42515  1.0000
  C   C308      1.0  0.41910  0.89258  0.44631  1.0000
  H   H190      1.0  0.43505  0.90140  0.48388  1.0000
  H   H191      1.0  0.42767  0.87897  0.39854  1.0000
  H   H192      1.0  0.40722  0.88200  0.49488  1.0000
  C   C309      1.0  0.05218  0.39829  0.35370  1.0000
  C   C310      1.0  0.07275  0.41207  0.39545  1.0000
  C   C311      1.0  0.09881  0.40308  0.39734  1.0000
  C   C312      1.0  0.10536  0.37905  0.35455  1.0000
  H   H193      1.0  0.06861  0.42950  0.42529  1.0000
  C   C313      1.0  0.11819  0.41931  0.44639  1.0000
  H   H194      1.0  0.10938  0.43524  0.48405  1.0000
  H   H195      1.0  0.13179  0.42789  0.39862  1.0000
  H   H196      1.0  0.12878  0.40741  0.49488  1.0000
  C   C314      1.0  0.95809  0.61299  0.36078  1.0000
  C   C315      1.0  0.93750  0.59937  0.40304  1.0000
  C   C316      1.0  0.91142  0.60835  0.40410  1.0000
  C   C317      1.0  0.90491  0.63220  0.36011  1.0000
  H   H197      1.0  0.94160  0.58203  0.43354  1.0000
  C   C318      1.0  0.89196  0.59226  0.45332  1.0000
  H   H198      1.0  0.90072  0.57648  0.49188  1.0000
  H   H199      1.0  0.87848  0.58349  0.40555  1.0000
  H   H200      1.0  0.88124  0.60431  0.50099  1.0000
  C   C319      1.0  0.49151  0.02327  0.38286  1.0000
  C   C320      1.0  0.51879  0.02295  0.38567  1.0000
  H   H201      1.0  0.48190  0.03597  0.42415  1.0000
  H   H202      1.0  0.52806  0.03547  0.42849  1.0000
  C   C321      1.0  0.98741  0.49177  0.38245  1.0000
  C   C322      1.0  0.98771  0.51905  0.38517  1.0000
  H   H203      1.0  0.97461  0.48217  0.42341  1.0000
  H   H204      1.0  0.97510  0.52832  0.42771  1.0000
  C   C323      1.0  0.20079  0.39005  0.35415  1.0000
  C   C324      1.0  0.21608  0.38731  0.43267  1.0000
  C   C325      1.0  0.24225  0.39582  0.43656  1.0000
  C   C326      1.0  0.25389  0.40682  0.35825  1.0000
  H   H205      1.0  0.20818  0.37806  0.48733  1.0000
  C   C327      1.0  0.25678  0.39317  0.52266  1.0000
  H   H206      1.0  0.24455  0.38646  0.57811  1.0000
  H   H207      1.0  0.26497  0.41188  0.54220  1.0000
  H   H208      1.0  0.27237  0.37921  0.51429  1.0000
  C   C328      1.0  0.80953  0.62105  0.35623  1.0000
  C   C329      1.0  0.79424  0.62360  0.43481  1.0000
  C   C330      1.0  0.76806  0.61508  0.43827  1.0000
  C   C331      1.0  0.75646  0.60430  0.35953  1.0000
  H   H209      1.0  0.80214  0.63267  0.48982  1.0000
  C   C332      1.0  0.75349  0.61752  0.52433  1.0000
  H   H210      1.0  0.76567  0.62416  0.58002  1.0000
  H   H211      1.0  0.74534  0.59874  0.54336  1.0000
  H   H212      1.0  0.73784  0.63145  0.51619  1.0000
  C   C333      1.0  0.62081  0.20122  0.35633  1.0000
  C   C334      1.0  0.62340  0.21655  0.43485  1.0000
  C   C335      1.0  0.61487  0.24272  0.43831  1.0000
  C   C336      1.0  0.60403  0.25430  0.35963  1.0000
  H   H213      1.0  0.63252  0.20868  0.48981  1.0000
  C   C337      1.0  0.61736  0.25731  0.52433  1.0000
  H   H214      1.0  0.62401  0.24514  0.58002  1.0000
  H   H215      1.0  0.59860  0.26548  0.54342  1.0000
  H   H216      1.0  0.63130  0.27294  0.51609  1.0000
  C   C338      1.0  0.38982  0.80995  0.35456  1.0000
  C   C339      1.0  0.38702  0.79466  0.43305  1.0000
  C   C340      1.0  0.39552  0.76848  0.43687  1.0000
  C   C341      1.0  0.40653  0.75685  0.35854  1.0000
  H   H217      1.0  0.37779  0.80256  0.48774  1.0000
  C   C342      1.0  0.39284  0.75393  0.52291  1.0000
  H   H218      1.0  0.38612  0.76615  0.57839  1.0000
  H   H219      1.0  0.41155  0.74573  0.54247  1.0000
  H   H220      1.0  0.37889  0.73834  0.51446  1.0000
  C   C343      1.0  0.76019  0.38759  0.40103  1.0000
  C   C344      1.0  0.78522  0.37710  0.40933  1.0000
  H   H221      1.0  0.74596  0.38035  0.44216  1.0000
  H   H222      1.0  0.78793  0.36248  0.45510  1.0000
  C   C345      1.0  0.24985  0.62317  0.39992  1.0000
  C   C346      1.0  0.22475  0.63351  0.40788  1.0000
  H   H223      1.0  0.26396  0.63033  0.44172  1.0000
  H   H224      1.0  0.22186  0.64798  0.45411  1.0000
  C   C347      1.0  0.38733  0.25061  0.40108  1.0000
  C   C348      1.0  0.37688  0.22556  0.40941  1.0000
  H   H225      1.0  0.38008  0.26483  0.44222  1.0000
  H   H226      1.0  0.36228  0.22283  0.45524  1.0000
  C   C349      1.0  0.62294  0.76098  0.39985  1.0000
  C   C350      1.0  0.63331  0.78607  0.40770  1.0000
  H   H227      1.0  0.63010  0.74688  0.44166  1.0000
  H   H228      1.0  0.64780  0.78895  0.45387  1.0000
  C   C351      1.0  0.33221  0.49060  0.36702  1.0000
  C   C352      1.0  0.33315  0.51803  0.36505  1.0000
  H   H229      1.0  0.34377  0.48109  0.41235  1.0000
  H   H230      1.0  0.34518  0.52742  0.40917  1.0000
  C   C353      1.0  0.67812  0.52058  0.36734  1.0000
  C   C354      1.0  0.67721  0.49315  0.36551  1.0000
  H   H231      1.0  0.66647  0.53010  0.41238  1.0000
  H   H232      1.0  0.66509  0.48376  0.40934  1.0000
  C   C355      1.0  0.52025  0.33265  0.36744  1.0000
  C   C356      1.0  0.49283  0.33359  0.36559  1.0000
  H   H233      1.0  0.52978  0.34431  0.41246  1.0000
  H   H234      1.0  0.48344  0.34576  0.40925  1.0000
  C   C357      1.0  0.49028  0.67854  0.36706  1.0000
  C   C358      1.0  0.51771  0.67766  0.36525  1.0000
  H   H235      1.0  0.48077  0.66693  0.41226  1.0000
  H   H236      1.0  0.52711  0.66558  0.40918  1.0000
  C   C359      1.0  0.38849  0.34862  0.35339  1.0000
  C   C360      1.0  0.36544  0.34411  0.40272  1.0000
  C   C361      1.0  0.34503  0.36257  0.40920  1.0000
  C   C362      1.0  0.34688  0.38685  0.36240  1.0000
  H   H237      1.0  0.36349  0.32671  0.43543  1.0000
  C   C363      1.0  0.32270  0.35578  0.46838  1.0000
  H   H238      1.0  0.32603  0.33836  0.50871  1.0000
  H   H239      1.0  0.30547  0.35223  0.42755  1.0000
  H   H240      1.0  0.31907  0.37164  0.51543  1.0000
  C   C364      1.0  0.62200  0.66272  0.35322  1.0000
  C   C365      1.0  0.64506  0.66721  0.40256  1.0000
  C   C366      1.0  0.66542  0.64870  0.40928  1.0000
  C   C367      1.0  0.66354  0.62440  0.36262  1.0000
  H   H241      1.0  0.64703  0.68462  0.43515  1.0000
  C   C368      1.0  0.68773  0.65546  0.46863  1.0000
  H   H242      1.0  0.68442  0.67291  0.50878  1.0000
  H   H243      1.0  0.70501  0.65892  0.42798  1.0000
  H   H244      1.0  0.69126  0.63962  0.51583  1.0000
  C   C369      1.0  0.66219  0.38886  0.35373  1.0000
  C   C370      1.0  0.66669  0.36584  0.40327  1.0000
  C   C371      1.0  0.64822  0.34544  0.40985  1.0000
  C   C372      1.0  0.62396  0.34727  0.36294  1.0000
  H   H245      1.0  0.68408  0.36391  0.43607  1.0000
  C   C373      1.0  0.65498  0.32316  0.46929  1.0000
  H   H246      1.0  0.67239  0.32652  0.50964  1.0000
  H   H247      1.0  0.65854  0.30589  0.42868  1.0000
  H   H248      1.0  0.63911  0.31959  0.51631  1.0000
  C   C374      1.0  0.34812  0.62235  0.35285  1.0000
  C   C375      1.0  0.34362  0.64541  0.40214  1.0000
  C   C376      1.0  0.36212  0.66578  0.40879  1.0000
  C   C377      1.0  0.38643  0.66390  0.36222  1.0000
  H   H249      1.0  0.32620  0.64739  0.43469  1.0000
  C   C378      1.0  0.35535  0.68810  0.46805  1.0000
  H   H250      1.0  0.33790  0.68479  0.50825  1.0000
  H   H251      1.0  0.35186  0.70536  0.42729  1.0000
  H   H252      1.0  0.37119  0.69167  0.51520  1.0000
