data_image0
_chemical_formula_structural       C5H3NO2C5H3NO2C5H3NO2C5H3NO2C3H2C4HNO2C3H2C4HNO2C3H2C4HNO2C3H2C4HNO2C3H2C4HNO2C3H2C4HNO2C3H2C4HNO2C3H2C4HNO2C5H3NO2C5H3NO2C5H3NO2C5H3NO2C3H2C4HNO2C3H2C4HNO2C3H2C4HNO2C3H2C4HNO2C5H3NO2C5H3NO2C5H3NO2C5H3NO2C3H2C4HNO2C3H2C4HNO2C5H3NO2C5H3NO2C5H3NO2C5H3NO2C3H2C4HNO2C3H2C4HNO2C3H2C4HNO2C3H2C4HNO2C3H2C4HNO2C3H2C4HNO2C3H2C4HNO2C3H2C4HNO2C5H3NO2C5H3NO2C5H3NO2C5H3NO2C6H3C6H3C6H3C6H3C6H3C6H3C6H3C6H3C6H3C6H3C6H3C6H3C6H3C6H3C6H3C6H3C6H3C6H3C6H3C6H3C6H3C6H3C6H3C6H3C6H3C6H3C6H3C6H3C3H2C4HNO2C3H2C4HNO2C3H2C4HNO2C3H2C4HNO2C5H3NO2C5H3NO2C5H3NO2C5H3NO2C5H3NO2C5H3NO2C5H3NO2C5H3NO2C3H2C4HNO2C3H2C4HNO2C3H2C4HNO2C3H2C4HNO2C5H3NO2C5H3NO2C5H3NO2C5H3NO2C3H2C4HNO2C3H2C4HNO2C3H2C4HNO2C3H2C4HNO2C5H3NO2C5H3NO2C3H2C4HNO2C3H2C4HNO2C3H2C4HNO2C3H2C4HNO2C5H3NO2C5H3NO2C5H3NO2C5H3NO2C5H3NO2C5H3NO2C5H3NO2C5H3NO2C3H2C4HNO2C3H2C4HNO2C3H2C4HNO2C3H2C4HNO2
_chemical_formula_sum              "C672 H336 N84 O168"
_cell_length_a       78.4058
_cell_length_b       78.4058
_cell_length_c       14.8622
_cell_angle_alpha    90
_cell_angle_beta     90
_cell_angle_gamma    90

_space_group_name_H-M_alt    "P 1"
_space_group_IT_number       1

loop_
  _space_group_symop_operation_xyz
  'x, y, z'

loop_
  _atom_site_type_symbol
  _atom_site_label
  _atom_site_symmetry_multiplicity
  _atom_site_fract_x
  _atom_site_fract_y
  _atom_site_fract_z
  _atom_site_occupancy
  C   C1        1.0  0.11083  0.10989  0.34315  1.0000
  C   C2        1.0  0.12503  0.10910  0.28438  1.0000
  C   C3        1.0  0.13756  0.12193  0.28488  1.0000
  C   C4        1.0  0.15081  0.15970  0.26830  1.0000
  C   C5        1.0  0.16343  0.17258  0.26978  1.0000
  H   H1        1.0  0.16486  0.18034  0.21485  1.0000
  H   H2        1.0  0.12627  0.09930  0.23942  1.0000
  H   H3        1.0  0.14768  0.12094  0.24171  1.0000
  N   N1        1.0  0.14004  0.15765  0.19240  1.0000
  O   O1        1.0  0.14847  0.15409  0.12293  1.0000
  O   O2        1.0  0.13138  0.17084  0.17748  1.0000
  C   C6        1.0  0.89846  0.89941  0.34316  1.0000
  C   C7        1.0  0.88426  0.90020  0.28440  1.0000
  C   C8        1.0  0.87174  0.88738  0.28490  1.0000
  C   C9        1.0  0.85848  0.84960  0.26832  1.0000
  C   C10       1.0  0.84586  0.83673  0.26980  1.0000
  H   H4        1.0  0.84443  0.82897  0.21487  1.0000
  H   H5        1.0  0.88302  0.91000  0.23944  1.0000
  H   H6        1.0  0.86161  0.88836  0.24174  1.0000
  N   N2        1.0  0.86924  0.85165  0.19242  1.0000
  O   O3        1.0  0.86082  0.85521  0.12295  1.0000
  O   O4        1.0  0.87790  0.83847  0.17748  1.0000
  C   C11       1.0  0.89941  0.11084  0.34312  1.0000
  C   C12       1.0  0.90020  0.12504  0.28436  1.0000
  C   C13       1.0  0.88738  0.13756  0.28487  1.0000
  C   C14       1.0  0.84961  0.15083  0.26834  1.0000
  C   C15       1.0  0.83673  0.16346  0.26984  1.0000
  H   H7        1.0  0.82897  0.16489  0.21493  1.0000
  H   H8        1.0  0.91000  0.12628  0.23938  1.0000
  H   H9        1.0  0.88836  0.14769  0.24171  1.0000
  N   N3        1.0  0.85165  0.14007  0.19243  1.0000
  O   O5        1.0  0.85521  0.14849  0.12296  1.0000
  O   O6        1.0  0.83846  0.13141  0.17751  1.0000
  C   C16       1.0  0.10989  0.89846  0.34315  1.0000
  C   C17       1.0  0.10911  0.88427  0.28437  1.0000
  C   C18       1.0  0.12193  0.87174  0.28488  1.0000
  C   C19       1.0  0.15971  0.85850  0.26827  1.0000
  C   C20       1.0  0.17259  0.84588  0.26974  1.0000
  H   H10       1.0  0.18035  0.84445  0.21480  1.0000
  H   H11       1.0  0.09931  0.88302  0.23942  1.0000
  H   H12       1.0  0.12095  0.86161  0.24171  1.0000
  N   N4        1.0  0.15766  0.86926  0.19239  1.0000
  O   O7        1.0  0.15410  0.86085  0.12291  1.0000
  O   O8        1.0  0.17084  0.87793  0.17746  1.0000
  C   C21       1.0  0.09745  0.99502  0.34525  1.0000
  C   C22       1.0  0.10683  0.98429  0.28710  1.0000
  C   C23       1.0  0.10434  0.96652  0.28880  1.0000
  H   H13       1.0  0.11508  0.98940  0.24106  1.0000
  H   H14       1.0  0.11071  0.95915  0.24302  1.0000
  C   C24       1.0  0.09817  0.01304  0.33726  1.0000
  C   C25       1.0  0.09481  0.04906  0.33142  1.0000
  C   C26       1.0  0.08947  0.03896  0.25822  1.0000
  C   C27       1.0  0.09107  0.02102  0.25997  1.0000
  H   H15       1.0  0.08368  0.04462  0.20412  1.0000
  N   N5        1.0  0.08476  0.01102  0.18775  1.0000
  O   O9        1.0  0.06899  0.01304  0.17669  1.0000
  O   O10       1.0  0.09227  0.01448  0.11532  1.0000
  C   C28       1.0  0.91184  0.01427  0.34524  1.0000
  C   C29       1.0  0.90247  0.02500  0.28708  1.0000
  C   C30       1.0  0.90496  0.04277  0.28878  1.0000
  H   H16       1.0  0.89422  0.01990  0.24101  1.0000
  H   H17       1.0  0.89859  0.05015  0.24298  1.0000
  C   C31       1.0  0.91112  0.99625  0.33725  1.0000
  C   C32       1.0  0.91449  0.96024  0.33140  1.0000
  C   C33       1.0  0.91984  0.97034  0.25822  1.0000
  C   C34       1.0  0.91823  0.98828  0.25997  1.0000
  H   H18       1.0  0.92564  0.96468  0.20412  1.0000
  N   N6        1.0  0.92455  0.99828  0.18776  1.0000
  O   O11       1.0  0.94032  0.99626  0.17674  1.0000
  O   O12       1.0  0.91704  0.99482  0.11532  1.0000
  C   C35       1.0  0.01427  0.09744  0.34522  1.0000
  C   C36       1.0  0.02500  0.10682  0.28706  1.0000
  C   C37       1.0  0.04277  0.10433  0.28878  1.0000
  H   H19       1.0  0.01990  0.11507  0.24100  1.0000
  H   H20       1.0  0.05015  0.11070  0.24300  1.0000
  C   C38       1.0  0.99625  0.09817  0.33722  1.0000
  C   C39       1.0  0.96024  0.09481  0.33135  1.0000
  C   C40       1.0  0.97034  0.08945  0.25817  1.0000
  C   C41       1.0  0.98828  0.09106  0.25994  1.0000
  H   H21       1.0  0.96468  0.08366  0.20407  1.0000
  N   N7        1.0  0.99828  0.08474  0.18773  1.0000
  O   O13       1.0  0.99626  0.06898  0.17670  1.0000
  O   O14       1.0  0.99482  0.09225  0.11529  1.0000
  C   C42       1.0  0.99503  0.91184  0.34523  1.0000
  C   C43       1.0  0.98430  0.90247  0.28708  1.0000
  C   C44       1.0  0.96652  0.90496  0.28879  1.0000
  H   H22       1.0  0.98939  0.89421  0.24101  1.0000
  H   H23       1.0  0.95915  0.89858  0.24301  1.0000
  C   C45       1.0  0.01305  0.91112  0.33722  1.0000
  C   C46       1.0  0.04905  0.91448  0.33136  1.0000
  C   C47       1.0  0.03896  0.91983  0.25817  1.0000
  C   C48       1.0  0.02102  0.91822  0.25993  1.0000
  H   H24       1.0  0.04461  0.92562  0.20407  1.0000
  N   N8        1.0  0.01101  0.92454  0.18772  1.0000
  O   O15       1.0  0.01304  0.94030  0.17667  1.0000
  O   O16       1.0  0.01448  0.91702  0.11529  1.0000
  C   C49       1.0  0.17230  0.28657  0.35531  1.0000
  C   C50       1.0  0.15995  0.29277  0.29411  1.0000
  C   C51       1.0  0.15505  0.31008  0.29477  1.0000
  H   H25       1.0  0.15467  0.28477  0.24736  1.0000
  H   H26       1.0  0.14664  0.31429  0.24703  1.0000
  C   C52       1.0  0.17799  0.26929  0.35285  1.0000
  C   C53       1.0  0.19024  0.23500  0.35096  1.0000
  C   C54       1.0  0.19392  0.24621  0.27938  1.0000
  C   C55       1.0  0.18783  0.26323  0.27906  1.0000
  H   H27       1.0  0.20079  0.24189  0.22542  1.0000
  N   N9        1.0  0.19163  0.27431  0.20643  1.0000
  O   O17       1.0  0.20743  0.27640  0.19746  1.0000
  O   O18       1.0  0.18565  0.26877  0.13360  1.0000
  C   C56       1.0  0.83698  0.72272  0.35604  1.0000
  C   C57       1.0  0.84937  0.71652  0.29508  1.0000
  C   C58       1.0  0.85426  0.69921  0.29588  1.0000
  H   H28       1.0  0.85468  0.72452  0.24843  1.0000
  H   H29       1.0  0.86271  0.69499  0.24833  1.0000
  C   C59       1.0  0.83129  0.74001  0.35343  1.0000
  C   C60       1.0  0.81905  0.77430  0.35122  1.0000
  C   C61       1.0  0.81541  0.76308  0.27964  1.0000
  C   C62       1.0  0.82149  0.74606  0.27948  1.0000
  H   H30       1.0  0.80856  0.76740  0.22557  1.0000
  N   N10       1.0  0.81772  0.73497  0.20685  1.0000
  O   O19       1.0  0.80193  0.73289  0.19767  1.0000
  O   O20       1.0  0.82374  0.74049  0.13408  1.0000
  C   C63       1.0  0.72274  0.17232  0.35608  1.0000
  C   C64       1.0  0.71654  0.15993  0.29510  1.0000
  C   C65       1.0  0.69923  0.15503  0.29588  1.0000
  H   H31       1.0  0.72454  0.15463  0.24844  1.0000
  H   H32       1.0  0.69502  0.14659  0.24832  1.0000
  C   C66       1.0  0.74002  0.17801  0.35349  1.0000
  C   C67       1.0  0.77432  0.19026  0.35132  1.0000
  C   C68       1.0  0.76309  0.19390  0.27973  1.0000
  C   C69       1.0  0.74608  0.18781  0.27955  1.0000
  H   H33       1.0  0.76741  0.20075  0.22566  1.0000
  N   N11       1.0  0.73498  0.19158  0.20691  1.0000
  O   O21       1.0  0.73290  0.20737  0.19772  1.0000
  O   O22       1.0  0.74052  0.18556  0.13413  1.0000
  C   C70       1.0  0.28660  0.83700  0.35527  1.0000
  C   C71       1.0  0.29280  0.84935  0.29407  1.0000
  C   C72       1.0  0.31011  0.85424  0.29475  1.0000
  H   H34       1.0  0.28479  0.85462  0.24734  1.0000
  H   H35       1.0  0.31432  0.86265  0.24703  1.0000
  C   C73       1.0  0.26932  0.83131  0.35279  1.0000
  C   C74       1.0  0.23502  0.81907  0.35085  1.0000
  C   C75       1.0  0.24623  0.81539  0.27930  1.0000
  C   C76       1.0  0.26325  0.82147  0.27900  1.0000
  H   H36       1.0  0.24191  0.80851  0.22533  1.0000
  N   N12       1.0  0.27434  0.81767  0.20639  1.0000
  O   O23       1.0  0.27642  0.80186  0.19743  1.0000
  O   O24       1.0  0.26881  0.82364  0.13355  1.0000
  C   C77       1.0  0.84820  0.32105  0.32894  1.0000
  C   C78       1.0  0.83620  0.31473  0.26595  1.0000
  C   C79       1.0  0.83115  0.29752  0.26655  1.0000
  C   C80       1.0  0.83546  0.25760  0.26037  1.0000
  C   C81       1.0  0.82922  0.24067  0.26322  1.0000
  H   H37       1.0  0.83199  0.23260  0.21104  1.0000
  H   H38       1.0  0.83061  0.32276  0.22035  1.0000
  H   H39       1.0  0.82204  0.29357  0.22178  1.0000
  N   N13       1.0  0.84540  0.26331  0.18661  1.0000
  O   O25       1.0  0.83719  0.26250  0.11409  1.0000
  O   O26       1.0  0.85888  0.25477  0.17850  1.0000
  C   C82       1.0  0.16110  0.68830  0.32786  1.0000
  C   C83       1.0  0.17315  0.69462  0.26508  1.0000
  C   C84       1.0  0.17820  0.71182  0.26579  1.0000
  C   C85       1.0  0.17390  0.75174  0.25965  1.0000
  C   C86       1.0  0.18014  0.76867  0.26262  1.0000
  H   H40       1.0  0.17739  0.77675  0.21043  1.0000
  H   H41       1.0  0.17874  0.68658  0.21951  1.0000
  H   H42       1.0  0.18733  0.71577  0.22114  1.0000
  N   N14       1.0  0.16399  0.74604  0.18576  1.0000
  O   O27       1.0  0.17223  0.74685  0.11333  1.0000
  O   O28       1.0  0.15052  0.75458  0.17750  1.0000
  C   C87       1.0  0.32102  0.16111  0.32895  1.0000
  C   C88       1.0  0.31471  0.17311  0.26595  1.0000
  C   C89       1.0  0.29750  0.17816  0.26652  1.0000
  C   C90       1.0  0.25758  0.17385  0.26030  1.0000
  C   C91       1.0  0.24065  0.18008  0.26313  1.0000
  H   H43       1.0  0.23258  0.17732  0.21095  1.0000
  H   H44       1.0  0.32275  0.17869  0.22033  1.0000
  H   H45       1.0  0.29355  0.18726  0.22174  1.0000
  N   N15       1.0  0.26329  0.16391  0.18655  1.0000
  O   O29       1.0  0.26249  0.17212  0.11402  1.0000
  O   O30       1.0  0.25476  0.15043  0.17842  1.0000
  C   C92       1.0  0.68828  0.84819  0.32790  1.0000
  C   C93       1.0  0.69460  0.83615  0.26509  1.0000
  C   C94       1.0  0.71180  0.83110  0.26583  1.0000
  C   C95       1.0  0.75173  0.83541  0.25972  1.0000
  C   C96       1.0  0.76866  0.82918  0.26269  1.0000
  H   H46       1.0  0.77674  0.83193  0.21052  1.0000
  H   H47       1.0  0.68657  0.83055  0.21956  1.0000
  H   H48       1.0  0.71576  0.82198  0.22120  1.0000
  N   N16       1.0  0.74603  0.84532  0.18582  1.0000
  O   O31       1.0  0.74684  0.83708  0.11339  1.0000
  O   O32       1.0  0.75457  0.85880  0.17757  1.0000
  C   C97       1.0  0.38431  0.08718  0.34079  1.0000
  C   C98       1.0  0.37069  0.09199  0.28379  1.0000
  C   C99       1.0  0.36423  0.10880  0.28381  1.0000
  H   H49       1.0  0.36526  0.08320  0.24176  1.0000
  H   H50       1.0  0.35451  0.11161  0.24033  1.0000
  C   C100      1.0  0.39097  0.07003  0.34006  1.0000
  C   C101      1.0  0.40473  0.03593  0.33865  1.0000
  C   C102      1.0  0.40562  0.04649  0.26188  1.0000
  C   C103      1.0  0.39871  0.06323  0.26114  1.0000
  H   H51       1.0  0.41156  0.04202  0.20522  1.0000
  N   N17       1.0  0.40002  0.07352  0.18302  1.0000
  O   O33       1.0  0.41530  0.07614  0.16151  1.0000
  O   O34       1.0  0.39243  0.06686  0.11734  1.0000
  C   C104      1.0  0.62504  0.92213  0.33869  1.0000
  C   C105      1.0  0.63856  0.91725  0.28121  1.0000
  C   C106      1.0  0.64501  0.90043  0.28146  1.0000
  H   H52       1.0  0.64393  0.92600  0.23870  1.0000
  H   H53       1.0  0.65467  0.89757  0.23770  1.0000
  C   C107      1.0  0.61841  0.93929  0.33784  1.0000
  C   C108      1.0  0.60466  0.97340  0.33630  1.0000
  C   C109      1.0  0.60350  0.96272  0.26009  1.0000
  C   C110      1.0  0.61041  0.94598  0.25937  1.0000
  H   H54       1.0  0.59737  0.96711  0.20382  1.0000
  N   N18       1.0  0.60885  0.93557  0.18182  1.0000
  O   O35       1.0  0.59350  0.93293  0.16177  1.0000
  O   O36       1.0  0.61623  0.94214  0.11522  1.0000
  C   C111      1.0  0.92212  0.38434  0.34078  1.0000
  C   C112      1.0  0.91730  0.37072  0.28374  1.0000
  C   C113      1.0  0.90049  0.36426  0.28377  1.0000
  H   H55       1.0  0.92610  0.36529  0.24171  1.0000
  H   H56       1.0  0.89769  0.35455  0.24027  1.0000
  C   C114      1.0  0.93927  0.39099  0.34007  1.0000
  C   C115      1.0  0.97337  0.40475  0.33868  1.0000
  C   C116      1.0  0.96281  0.40565  0.26191  1.0000
  C   C117      1.0  0.94607  0.39874  0.26116  1.0000
  H   H57       1.0  0.96728  0.41160  0.20528  1.0000
  N   N19       1.0  0.93578  0.40006  0.18305  1.0000
  O   O37       1.0  0.93316  0.41534  0.16160  1.0000
  O   O38       1.0  0.94243  0.39248  0.11735  1.0000
  C   C118      1.0  0.08715  0.62507  0.33872  1.0000
  C   C119      1.0  0.09204  0.63859  0.28124  1.0000
  C   C120      1.0  0.10885  0.64504  0.28150  1.0000
  H   H58       1.0  0.08328  0.64396  0.23874  1.0000
  H   H59       1.0  0.11171  0.65470  0.23774  1.0000
  C   C121      1.0  0.07000  0.61844  0.33786  1.0000
  C   C122      1.0  0.03588  0.60468  0.33629  1.0000
  C   C123      1.0  0.04657  0.60352  0.26009  1.0000
  C   C124      1.0  0.06331  0.61044  0.25939  1.0000
  H   H60       1.0  0.04219  0.59740  0.20382  1.0000
  N   N20       1.0  0.07372  0.60888  0.18184  1.0000
  O   O39       1.0  0.07636  0.59353  0.16179  1.0000
  O   O40       1.0  0.06715  0.61626  0.11524  1.0000
  C   C125      1.0  0.63754  0.12315  0.34685  1.0000
  C   C126      1.0  0.62388  0.11818  0.29002  1.0000
  C   C127      1.0  0.61748  0.10132  0.28976  1.0000
  C   C128      1.0  0.61896  0.06085  0.26967  1.0000
  C   C129      1.0  0.61235  0.04396  0.27148  1.0000
  H   H61       1.0  0.61297  0.03670  0.21433  1.0000
  H   H62       1.0  0.61865  0.12676  0.24616  1.0000
  H   H63       1.0  0.60761  0.09838  0.24751  1.0000
  N   N21       1.0  0.62682  0.06731  0.19086  1.0000
  O   O41       1.0  0.61659  0.06763  0.12572  1.0000
  O   O42       1.0  0.63963  0.05863  0.16896  1.0000
  C   C130      1.0  0.37182  0.88614  0.34524  1.0000
  C   C131      1.0  0.38557  0.89105  0.28884  1.0000
  C   C132      1.0  0.39199  0.90790  0.28843  1.0000
  C   C133      1.0  0.39073  0.94831  0.26698  1.0000
  C   C134      1.0  0.39734  0.96520  0.26869  1.0000
  H   H64       1.0  0.39692  0.97238  0.21121  1.0000
  H   H65       1.0  0.39086  0.88242  0.24541  1.0000
  H   H66       1.0  0.40193  0.91078  0.24654  1.0000
  N   N22       1.0  0.38313  0.94175  0.18770  1.0000
  O   O43       1.0  0.39357  0.94134  0.12353  1.0000
  O   O44       1.0  0.37040  0.95040  0.16429  1.0000
  C   C135      1.0  0.12315  0.37180  0.34525  1.0000
  C   C136      1.0  0.11825  0.38556  0.28887  1.0000
  C   C137      1.0  0.10140  0.39197  0.28845  1.0000
  C   C138      1.0  0.06099  0.39073  0.26696  1.0000
  C   C139      1.0  0.04410  0.39735  0.26867  1.0000
  H   H67       1.0  0.03692  0.39693  0.21118  1.0000
  H   H68       1.0  0.12688  0.39085  0.24546  1.0000
  H   H69       1.0  0.09852  0.40192  0.24659  1.0000
  N   N23       1.0  0.06756  0.38314  0.18766  1.0000
  O   O45       1.0  0.06797  0.39359  0.12354  1.0000
  O   O46       1.0  0.05890  0.37041  0.16420  1.0000
  C   C140      1.0  0.88613  0.63752  0.34688  1.0000
  C   C141      1.0  0.89111  0.62386  0.29003  1.0000
  C   C142      1.0  0.90797  0.61746  0.28977  1.0000
  C   C143      1.0  0.94843  0.61895  0.26967  1.0000
  C   C144      1.0  0.96532  0.61234  0.27148  1.0000
  H   H70       1.0  0.97259  0.61296  0.21433  1.0000
  H   H71       1.0  0.88252  0.61863  0.24616  1.0000
  H   H72       1.0  0.91091  0.60759  0.24750  1.0000
  N   N24       1.0  0.94197  0.62681  0.19087  1.0000
  O   O47       1.0  0.94165  0.61659  0.12572  1.0000
  O   O48       1.0  0.95064  0.63963  0.16900  1.0000
  C   C145      1.0  0.51354  0.00473  0.34250  1.0000
  C   C146      1.0  0.52273  0.01637  0.28836  1.0000
  C   C147      1.0  0.54070  0.01651  0.28861  1.0000
  H   H73       1.0  0.51637  0.02489  0.24846  1.0000
  H   H74       1.0  0.54684  0.02498  0.24744  1.0000
  C   C148      1.0  0.49530  0.00460  0.34248  1.0000
  C   C149      1.0  0.45883  0.00430  0.34250  1.0000
  C   C150      1.0  0.46808  0.99927  0.26560  1.0000
  C   C151      1.0  0.48615  0.99952  0.26426  1.0000
  H   H75       1.0  0.46161  0.99554  0.20905  1.0000
  N   N25       1.0  0.49522  0.99447  0.18616  1.0000
  O   O49       1.0  0.49204  0.97928  0.16510  1.0000
  O   O50       1.0  0.49176  0.00391  0.12028  1.0000
  C   C152      1.0  0.00459  0.51355  0.34246  1.0000
  C   C153      1.0  0.99295  0.52273  0.28831  1.0000
  C   C154      1.0  0.99281  0.54071  0.28856  1.0000
  H   H76       1.0  0.98443  0.51637  0.24841  1.0000
  H   H77       1.0  0.98433  0.54684  0.24740  1.0000
  C   C155      1.0  0.00473  0.49531  0.34246  1.0000
  C   C156      1.0  0.00501  0.45884  0.34249  1.0000
  C   C157      1.0  0.01005  0.46808  0.26560  1.0000
  C   C158      1.0  0.00981  0.48616  0.26425  1.0000
  H   H78       1.0  0.01378  0.46162  0.20905  1.0000
  N   N26       1.0  0.01486  0.49522  0.18613  1.0000
  O   O51       1.0  0.03005  0.49204  0.16510  1.0000
  O   O52       1.0  0.00542  0.49177  0.12026  1.0000
  C   C159      1.0  0.18688  0.37866  0.32712  1.0000
  C   C160      1.0  0.19905  0.37485  0.25954  1.0000
  C   C161      1.0  0.21546  0.38213  0.26085  1.0000
  C   C162      1.0  0.24397  0.41049  0.26479  1.0000
  C   C163      1.0  0.26116  0.41607  0.26780  1.0000
  H   H79       1.0  0.26558  0.42385  0.21761  1.0000
  H   H80       1.0  0.19630  0.36608  0.21062  1.0000
  H   H81       1.0  0.22407  0.37847  0.21282  1.0000
  N   N27       1.0  0.23304  0.41573  0.19403  1.0000
  O   O53       1.0  0.23847  0.41079  0.11882  1.0000
  O   O54       1.0  0.23135  0.43166  0.19216  1.0000
  C   C164      1.0  0.82243  0.63062  0.32790  1.0000
  C   C165      1.0  0.81028  0.63442  0.26021  1.0000
  C   C166      1.0  0.79386  0.62715  0.26141  1.0000
  C   C167      1.0  0.76534  0.59880  0.26533  1.0000
  C   C168      1.0  0.74814  0.59322  0.26824  1.0000
  H   H82       1.0  0.74374  0.58542  0.21808  1.0000
  H   H83       1.0  0.81305  0.64317  0.21123  1.0000
  H   H84       1.0  0.78527  0.63080  0.21326  1.0000
  N   N28       1.0  0.77629  0.59354  0.19471  1.0000
  O   O55       1.0  0.77088  0.59845  0.11940  1.0000
  O   O56       1.0  0.77798  0.57761  0.19300  1.0000
  C   C169      1.0  0.63063  0.18685  0.32792  1.0000
  C   C170      1.0  0.63443  0.19900  0.26023  1.0000
  C   C171      1.0  0.62716  0.21541  0.26141  1.0000
  C   C172      1.0  0.59881  0.24394  0.26533  1.0000
  C   C173      1.0  0.59322  0.26113  0.26824  1.0000
  H   H85       1.0  0.58542  0.26553  0.21808  1.0000
  H   H86       1.0  0.64319  0.19623  0.21125  1.0000
  H   H87       1.0  0.63081  0.22401  0.21327  1.0000
  N   N29       1.0  0.59355  0.23299  0.19471  1.0000
  O   O57       1.0  0.59846  0.23839  0.11941  1.0000
  O   O58       1.0  0.57762  0.23129  0.19300  1.0000
  C   C174      1.0  0.37869  0.82243  0.32708  1.0000
  C   C175      1.0  0.37488  0.81025  0.25950  1.0000
  C   C176      1.0  0.38215  0.79383  0.26081  1.0000
  C   C177      1.0  0.41049  0.76531  0.26482  1.0000
  C   C178      1.0  0.41607  0.74812  0.26783  1.0000
  H   H88       1.0  0.42386  0.74370  0.21767  1.0000
  H   H89       1.0  0.36612  0.81301  0.21054  1.0000
  H   H90       1.0  0.37849  0.78523  0.21275  1.0000
  N   N30       1.0  0.41575  0.77624  0.19411  1.0000
  O   O59       1.0  0.41082  0.77082  0.11886  1.0000
  O   O60       1.0  0.43168  0.77793  0.19232  1.0000
  C   C179      1.0  0.79046  0.39280  0.35595  1.0000
  C   C180      1.0  0.80272  0.39703  0.28965  1.0000
  C   C181      1.0  0.81921  0.38978  0.29110  1.0000
  H   H91       1.0  0.79953  0.40507  0.23808  1.0000
  H   H92       1.0  0.82739  0.39237  0.23920  1.0000
  C   C182      1.0  0.77329  0.39903  0.35207  1.0000
  C   C183      1.0  0.73843  0.41021  0.34930  1.0000
  C   C184      1.0  0.74491  0.39939  0.28153  1.0000
  C   C185      1.0  0.76214  0.39386  0.28159  1.0000
  H   H93       1.0  0.73707  0.39564  0.23010  1.0000
  N   N31       1.0  0.76827  0.38292  0.21291  1.0000
  O   O61       1.0  0.76026  0.36904  0.21123  1.0000
  O   O62       1.0  0.76720  0.38981  0.13676  1.0000
  C   C186      1.0  0.21880  0.61653  0.35536  1.0000
  C   C187      1.0  0.20656  0.61230  0.28894  1.0000
  C   C188      1.0  0.19007  0.61955  0.29027  1.0000
  H   H94       1.0  0.20976  0.60427  0.23738  1.0000
  H   H95       1.0  0.18191  0.61697  0.23829  1.0000
  C   C189      1.0  0.23597  0.61029  0.35159  1.0000
  C   C190      1.0  0.27083  0.59910  0.34901  1.0000
  C   C191      1.0  0.26437  0.60993  0.28124  1.0000
  C   C192      1.0  0.24714  0.61547  0.28121  1.0000
  H   H96       1.0  0.27222  0.61368  0.22988  1.0000
  N   N32       1.0  0.24103  0.62642  0.21252  1.0000
  O   O63       1.0  0.24904  0.64030  0.21094  1.0000
  O   O64       1.0  0.24212  0.61953  0.13636  1.0000
  C   C193      1.0  0.39278  0.21883  0.35595  1.0000
  C   C194      1.0  0.39701  0.20657  0.28965  1.0000
  C   C195      1.0  0.38976  0.19008  0.29110  1.0000
  H   H97       1.0  0.40505  0.20976  0.23807  1.0000
  H   H98       1.0  0.39235  0.18190  0.23920  1.0000
  C   C196      1.0  0.39902  0.23600  0.35207  1.0000
  C   C197      1.0  0.41020  0.27086  0.34929  1.0000
  C   C198      1.0  0.39938  0.26438  0.28154  1.0000
  C   C199      1.0  0.39384  0.24715  0.28160  1.0000
  H   H99       1.0  0.39563  0.27222  0.23011  1.0000
  N   N33       1.0  0.38290  0.24102  0.21292  1.0000
  O   O65       1.0  0.36902  0.24904  0.21126  1.0000
  O   O66       1.0  0.38979  0.24209  0.13677  1.0000
  C   C200      1.0  0.61650  0.79049  0.35537  1.0000
  C   C201      1.0  0.61227  0.80273  0.28897  1.0000
  C   C202      1.0  0.61953  0.81922  0.29030  1.0000
  H   H100      1.0  0.60423  0.79953  0.23743  1.0000
  H   H101      1.0  0.61694  0.82739  0.23834  1.0000
  C   C203      1.0  0.61027  0.77332  0.35158  1.0000
  C   C204      1.0  0.59908  0.73845  0.34900  1.0000
  C   C205      1.0  0.60991  0.74492  0.28122  1.0000
  C   C206      1.0  0.61544  0.76215  0.28119  1.0000
  H   H102      1.0  0.61366  0.73707  0.22985  1.0000
  N   N34       1.0  0.62639  0.76826  0.21249  1.0000
  O   O67       1.0  0.64027  0.76025  0.21090  1.0000
  O   O68       1.0  0.61950  0.76718  0.13634  1.0000
  C   C207      1.0  0.31353  0.51380  0.33897  1.0000
  C   C208      1.0  0.30185  0.52220  0.28167  1.0000
  C   C209      1.0  0.30052  0.54013  0.28098  1.0000
  H   H103      1.0  0.29388  0.51528  0.24115  1.0000
  H   H104      1.0  0.29179  0.54557  0.23860  1.0000
  C   C210      1.0  0.31408  0.49547  0.34237  1.0000
  C   C211      1.0  0.31277  0.45882  0.34554  1.0000
  C   C212      1.0  0.31813  0.46767  0.26791  1.0000
  C   C213      1.0  0.31870  0.48577  0.26510  1.0000
  H   H105      1.0  0.32111  0.46091  0.21109  1.0000
  N   N35       1.0  0.32381  0.49434  0.18560  1.0000
  O   O69       1.0  0.33879  0.49049  0.16359  1.0000
  O   O70       1.0  0.31403  0.49103  0.12088  1.0000
  C   C214      1.0  0.69573  0.49550  0.33901  1.0000
  C   C215      1.0  0.70740  0.48709  0.28171  1.0000
  C   C216      1.0  0.70873  0.46917  0.28103  1.0000
  H   H106      1.0  0.71538  0.49402  0.24119  1.0000
  H   H107      1.0  0.71746  0.46373  0.23864  1.0000
  C   C217      1.0  0.69519  0.51383  0.34242  1.0000
  C   C218      1.0  0.69652  0.55047  0.34558  1.0000
  C   C219      1.0  0.69114  0.54163  0.26797  1.0000
  C   C220      1.0  0.69056  0.52353  0.26517  1.0000
  H   H108      1.0  0.68816  0.54839  0.21117  1.0000
  N   N36       1.0  0.68544  0.51496  0.18568  1.0000
  O   O71       1.0  0.67046  0.51882  0.16372  1.0000
  O   O72       1.0  0.69521  0.51827  0.12094  1.0000
  C   C221      1.0  0.49550  0.31355  0.33900  1.0000
  C   C222      1.0  0.48709  0.30188  0.28169  1.0000
  C   C223      1.0  0.46916  0.30055  0.28101  1.0000
  H   H109      1.0  0.49401  0.29390  0.24117  1.0000
  H   H110      1.0  0.46372  0.29182  0.23864  1.0000
  C   C224      1.0  0.51382  0.31409  0.34241  1.0000
  C   C225      1.0  0.55047  0.31275  0.34557  1.0000
  C   C226      1.0  0.54163  0.31814  0.26797  1.0000
  C   C227      1.0  0.52353  0.31872  0.26516  1.0000
  H   H111      1.0  0.54839  0.32112  0.21117  1.0000
  N   N37       1.0  0.51496  0.32384  0.18568  1.0000
  O   O73       1.0  0.51882  0.33883  0.16374  1.0000
  O   O74       1.0  0.51827  0.31407  0.12092  1.0000
  C   C228      1.0  0.51379  0.69574  0.33897  1.0000
  C   C229      1.0  0.52219  0.70742  0.28163  1.0000
  C   C230      1.0  0.54012  0.70875  0.28094  1.0000
  H   H112      1.0  0.51527  0.71538  0.24111  1.0000
  H   H113      1.0  0.54556  0.71748  0.23854  1.0000
  C   C231      1.0  0.49547  0.69519  0.34238  1.0000
  C   C232      1.0  0.45882  0.69652  0.34552  1.0000
  C   C233      1.0  0.46766  0.69113  0.26793  1.0000
  C   C234      1.0  0.48576  0.69056  0.26513  1.0000
  H   H114      1.0  0.46090  0.68815  0.21112  1.0000
  N   N38       1.0  0.49434  0.68544  0.18565  1.0000
  O   O75       1.0  0.49048  0.67045  0.16372  1.0000
  O   O76       1.0  0.49102  0.69520  0.12088  1.0000
  C   C235      1.0  0.39867  0.33319  0.34588  1.0000
  C   C236      1.0  0.40055  0.34773  0.28994  1.0000
  C   C237      1.0  0.38828  0.36095  0.28888  1.0000
  C   C238      1.0  0.35080  0.37629  0.26417  1.0000
  C   C239      1.0  0.33770  0.38881  0.26456  1.0000
  H   H115      1.0  0.33042  0.39040  0.20800  1.0000
  H   H116      1.0  0.41069  0.34860  0.24691  1.0000
  H   H117      1.0  0.39010  0.37109  0.24664  1.0000
  N   N39       1.0  0.35364  0.36610  0.18685  1.0000
  O   O77       1.0  0.35779  0.37505  0.12020  1.0000
  O   O78       1.0  0.34068  0.35748  0.16668  1.0000
  C   C240      1.0  0.61063  0.67612  0.34579  1.0000
  C   C241      1.0  0.60874  0.66158  0.28991  1.0000
  C   C242      1.0  0.62101  0.64836  0.28889  1.0000
  C   C243      1.0  0.65847  0.63300  0.26415  1.0000
  C   C244      1.0  0.67157  0.62048  0.26456  1.0000
  H   H118      1.0  0.67885  0.61887  0.20800  1.0000
  H   H119      1.0  0.59859  0.66070  0.24692  1.0000
  H   H120      1.0  0.61918  0.63821  0.24668  1.0000
  N   N40       1.0  0.65563  0.64318  0.18681  1.0000
  O   O79       1.0  0.65148  0.63422  0.12020  1.0000
  O   O80       1.0  0.66860  0.65179  0.16657  1.0000
  C   C245      1.0  0.67610  0.39866  0.34588  1.0000
  C   C246      1.0  0.66156  0.40055  0.28996  1.0000
  C   C247      1.0  0.64834  0.38828  0.28891  1.0000
  C   C248      1.0  0.63299  0.35081  0.26419  1.0000
  C   C249      1.0  0.62047  0.33770  0.26458  1.0000
  H   H121      1.0  0.61887  0.33042  0.20802  1.0000
  H   H122      1.0  0.66069  0.41069  0.24695  1.0000
  H   H123      1.0  0.63819  0.39010  0.24669  1.0000
  N   N41       1.0  0.64317  0.35365  0.18685  1.0000
  O   O81       1.0  0.63422  0.35780  0.12024  1.0000
  O   O82       1.0  0.65179  0.34069  0.16663  1.0000
  C   C250      1.0  0.33317  0.61063  0.34579  1.0000
  C   C251      1.0  0.34771  0.60874  0.28989  1.0000
  C   C252      1.0  0.36093  0.62101  0.28885  1.0000
  C   C253      1.0  0.37629  0.65847  0.26412  1.0000
  C   C254      1.0  0.38880  0.67157  0.26451  1.0000
  H   H124      1.0  0.39040  0.67885  0.20796  1.0000
  H   H125      1.0  0.34858  0.59859  0.24688  1.0000
  H   H126      1.0  0.37107  0.61918  0.24663  1.0000
  N   N42       1.0  0.36609  0.65564  0.18680  1.0000
  O   O83       1.0  0.37505  0.65149  0.12016  1.0000
  O   O84       1.0  0.35748  0.66860  0.16661  1.0000
  C   C255      1.0  0.09036  0.06651  0.33494  1.0000
  C   C256      1.0  0.07298  0.07107  0.33736  1.0000
  C   C257      1.0  0.06783  0.08828  0.34354  1.0000
  C   C258      1.0  0.08054  0.10105  0.34430  1.0000
  C   C259      1.0  0.09813  0.09687  0.34222  1.0000
  C   C260      1.0  0.10282  0.07944  0.33897  1.0000
  H   H127      1.0  0.07690  0.11358  0.34693  1.0000
  H   H128      1.0  0.11544  0.07606  0.33897  1.0000
  H   H129      1.0  0.06392  0.06164  0.33500  1.0000
  C   C261      1.0  0.91894  0.94279  0.33494  1.0000
  C   C262      1.0  0.93632  0.93823  0.33736  1.0000
  C   C263      1.0  0.94147  0.92101  0.34354  1.0000
  C   C264      1.0  0.92875  0.90824  0.34429  1.0000
  C   C265      1.0  0.91117  0.91242  0.34224  1.0000
  C   C266      1.0  0.90648  0.92986  0.33897  1.0000
  H   H130      1.0  0.93240  0.89571  0.34694  1.0000
  H   H131      1.0  0.89386  0.93324  0.33897  1.0000
  H   H132      1.0  0.94538  0.94765  0.33500  1.0000
  C   C267      1.0  0.94278  0.09035  0.33487  1.0000
  C   C268      1.0  0.93823  0.07298  0.33732  1.0000
  C   C269      1.0  0.92101  0.06783  0.34351  1.0000
  C   C270      1.0  0.90824  0.08055  0.34427  1.0000
  C   C271      1.0  0.91242  0.09813  0.34219  1.0000
  C   C272      1.0  0.92986  0.10282  0.33892  1.0000
  H   H133      1.0  0.89571  0.07690  0.34692  1.0000
  H   H134      1.0  0.93324  0.11543  0.33892  1.0000
  H   H135      1.0  0.94765  0.06392  0.33498  1.0000
  C   C273      1.0  0.06651  0.91894  0.33489  1.0000
  C   C274      1.0  0.07107  0.93631  0.33731  1.0000
  C   C275      1.0  0.08828  0.94146  0.34351  1.0000
  C   C276      1.0  0.10105  0.92875  0.34429  1.0000
  C   C277      1.0  0.09688  0.91117  0.34222  1.0000
  C   C278      1.0  0.07944  0.90648  0.33893  1.0000
  H   H136      1.0  0.11358  0.93240  0.34694  1.0000
  H   H137      1.0  0.07606  0.89386  0.33895  1.0000
  H   H138      1.0  0.06164  0.94537  0.33496  1.0000
  C   C279      1.0  0.18705  0.18734  0.34434  1.0000
  C   C280      1.0  0.20441  0.18272  0.34076  1.0000
  C   C281      1.0  0.21735  0.19526  0.33972  1.0000
  C   C282      1.0  0.21262  0.21268  0.34336  1.0000
  C   C283      1.0  0.19525  0.21758  0.34744  1.0000
  C   C284      1.0  0.18259  0.20475  0.34738  1.0000
  H   H139      1.0  0.22190  0.22187  0.34302  1.0000
  H   H140      1.0  0.16995  0.20811  0.34966  1.0000
  H   H141      1.0  0.20765  0.17005  0.33872  1.0000
  C   C285      1.0  0.82225  0.82196  0.34437  1.0000
  C   C286      1.0  0.80488  0.82658  0.34062  1.0000
  C   C287      1.0  0.79194  0.81404  0.33958  1.0000
  C   C288      1.0  0.79667  0.79662  0.34335  1.0000
  C   C289      1.0  0.81404  0.79172  0.34758  1.0000
  C   C290      1.0  0.82671  0.80455  0.34754  1.0000
  H   H142      1.0  0.78739  0.78743  0.34299  1.0000
  H   H143      1.0  0.83934  0.80119  0.34993  1.0000
  H   H144      1.0  0.80164  0.83925  0.33849  1.0000
  C   C291      1.0  0.82198  0.18707  0.34446  1.0000
  C   C292      1.0  0.82659  0.20443  0.34082  1.0000
  C   C293      1.0  0.81406  0.21737  0.33984  1.0000
  C   C294      1.0  0.79664  0.21264  0.34357  1.0000
  C   C295      1.0  0.79174  0.19527  0.34770  1.0000
  C   C296      1.0  0.80456  0.18260  0.34759  1.0000
  H   H145      1.0  0.78744  0.22192  0.34325  1.0000
  H   H146      1.0  0.80121  0.16997  0.34992  1.0000
  H   H147      1.0  0.83926  0.20767  0.33873  1.0000
  C   C297      1.0  0.18735  0.82226  0.34426  1.0000
  C   C298      1.0  0.18273  0.80490  0.34057  1.0000
  C   C299      1.0  0.19527  0.79196  0.33948  1.0000
  C   C300      1.0  0.21269  0.79669  0.34315  1.0000
  C   C301      1.0  0.21760  0.81406  0.34733  1.0000
  C   C302      1.0  0.20477  0.82672  0.34734  1.0000
  H   H148      1.0  0.22188  0.78741  0.34275  1.0000
  H   H149      1.0  0.20812  0.83936  0.34968  1.0000
  H   H150      1.0  0.17007  0.80166  0.33849  1.0000
  C   C303      1.0  0.44068  0.00419  0.34247  1.0000
  C   C304      1.0  0.43161  0.98863  0.34382  1.0000
  C   C305      1.0  0.41355  0.98824  0.34424  1.0000
  C   C306      1.0  0.40460  0.00399  0.34250  1.0000
  C   C307      1.0  0.41338  0.01984  0.34074  1.0000
  C   C308      1.0  0.43143  0.01966  0.34113  1.0000
  H   H151      1.0  0.39154  0.00392  0.34252  1.0000
  H   H152      1.0  0.43798  0.03097  0.34010  1.0000
  H   H153      1.0  0.43828  0.97738  0.34486  1.0000
  C   C309      1.0  0.56851  0.00511  0.34251  1.0000
  C   C310      1.0  0.57777  0.02061  0.34655  1.0000
  C   C311      1.0  0.59582  0.02103  0.34614  1.0000
  C   C312      1.0  0.60477  0.00531  0.34247  1.0000
  C   C313      1.0  0.59599  0.98949  0.33878  1.0000
  C   C314      1.0  0.57794  0.98972  0.33843  1.0000
  H   H154      1.0  0.61783  0.00538  0.34246  1.0000
  H   H155      1.0  0.57151  0.97836  0.33467  1.0000
  H   H156      1.0  0.57122  0.03190  0.35030  1.0000
  C   C315      1.0  0.00512  0.44069  0.34246  1.0000
  C   C316      1.0  0.02068  0.43161  0.34380  1.0000
  C   C317      1.0  0.02106  0.41355  0.34423  1.0000
  C   C318      1.0  0.00530  0.40460  0.34252  1.0000
  C   C319      1.0  0.98946  0.41339  0.34075  1.0000
  C   C320      1.0  0.98965  0.43145  0.34113  1.0000
  H   H157      1.0  0.00537  0.39155  0.34255  1.0000
  H   H158      1.0  0.97834  0.43800  0.34010  1.0000
  H   H159      1.0  0.03193  0.43827  0.34484  1.0000
  C   C321      1.0  0.00419  0.56851  0.34248  1.0000
  C   C322      1.0  0.98869  0.57777  0.34651  1.0000
  C   C323      1.0  0.98826  0.59582  0.34612  1.0000
  C   C324      1.0  0.00398  0.60478  0.34246  1.0000
  C   C325      1.0  0.01980  0.59601  0.33877  1.0000
  C   C326      1.0  0.01958  0.57795  0.33840  1.0000
  H   H160      1.0  0.00390  0.61784  0.34246  1.0000
  H   H161      1.0  0.03094  0.57153  0.33466  1.0000
  H   H162      1.0  0.97740  0.57122  0.35028  1.0000
  C   C327      1.0  0.28966  0.41679  0.33904  1.0000
  C   C328      1.0  0.30360  0.40529  0.33919  1.0000
  C   C329      1.0  0.32071  0.41113  0.34102  1.0000
  C   C330      1.0  0.32371  0.42897  0.34340  1.0000
  C   C331      1.0  0.31005  0.44081  0.34374  1.0000
  C   C332      1.0  0.29315  0.43448  0.34123  1.0000
  H   H163      1.0  0.33599  0.43340  0.34474  1.0000
  H   H164      1.0  0.28319  0.44294  0.34150  1.0000
  H   H165      1.0  0.30124  0.39244  0.33731  1.0000
  C   C333      1.0  0.71962  0.59252  0.33925  1.0000
  C   C334      1.0  0.70568  0.60401  0.33935  1.0000
  C   C335      1.0  0.68857  0.59817  0.34109  1.0000
  C   C336      1.0  0.68557  0.58033  0.34342  1.0000
  C   C337      1.0  0.69924  0.56849  0.34382  1.0000
  C   C338      1.0  0.71613  0.57482  0.34141  1.0000
  H   H166      1.0  0.67329  0.57590  0.34470  1.0000
  H   H167      1.0  0.72610  0.56636  0.34172  1.0000
  H   H168      1.0  0.70803  0.61686  0.33750  1.0000
  C   C339      1.0  0.59252  0.28965  0.33925  1.0000
  C   C340      1.0  0.60401  0.30360  0.33935  1.0000
  C   C341      1.0  0.59817  0.32070  0.34109  1.0000
  C   C342      1.0  0.58032  0.32370  0.34341  1.0000
  C   C343      1.0  0.56849  0.31003  0.34381  1.0000
  C   C344      1.0  0.57482  0.29314  0.34140  1.0000
  H   H169      1.0  0.57589  0.33598  0.34470  1.0000
  H   H170      1.0  0.56636  0.28317  0.34172  1.0000
  H   H171      1.0  0.61686  0.30124  0.33751  1.0000
  C   C345      1.0  0.41678  0.71962  0.33904  1.0000
  C   C346      1.0  0.40529  0.70568  0.33917  1.0000
  C   C347      1.0  0.41112  0.68857  0.34100  1.0000
  C   C348      1.0  0.42896  0.68556  0.34338  1.0000
  C   C349      1.0  0.44080  0.69923  0.34374  1.0000
  C   C350      1.0  0.43447  0.71612  0.34125  1.0000
  H   H172      1.0  0.43339  0.67328  0.34471  1.0000
  H   H173      1.0  0.44293  0.72609  0.34152  1.0000
  H   H174      1.0  0.39244  0.70803  0.33730  1.0000
  C   C351      1.0  0.72122  0.41626  0.34673  1.0000
  C   C352      1.0  0.70719  0.40491  0.34516  1.0000
  C   C353      1.0  0.69004  0.41074  0.34452  1.0000
  C   C354      1.0  0.68735  0.42869  0.34218  1.0000
  C   C355      1.0  0.70105  0.44058  0.34150  1.0000
  C   C356      1.0  0.71785  0.43395  0.34553  1.0000
  H   H175      1.0  0.67513  0.43324  0.34084  1.0000
  H   H176      1.0  0.72797  0.44221  0.34709  1.0000
  H   H177      1.0  0.70961  0.39208  0.34516  1.0000
  C   C357      1.0  0.28804  0.59305  0.34654  1.0000
  C   C358      1.0  0.30207  0.60439  0.34500  1.0000
  C   C359      1.0  0.31922  0.59856  0.34441  1.0000
  C   C360      1.0  0.32190  0.58060  0.34212  1.0000
  C   C361      1.0  0.30820  0.56872  0.34142  1.0000
  C   C362      1.0  0.29141  0.57535  0.34538  1.0000
  H   H178      1.0  0.33413  0.57605  0.34082  1.0000
  H   H179      1.0  0.28128  0.56710  0.34693  1.0000
  H   H180      1.0  0.29966  0.61723  0.34497  1.0000
  C   C363      1.0  0.41625  0.28807  0.34672  1.0000
  C   C364      1.0  0.40491  0.30210  0.34514  1.0000
  C   C365      1.0  0.41074  0.31925  0.34451  1.0000
  C   C366      1.0  0.42869  0.32193  0.34218  1.0000
  C   C367      1.0  0.44058  0.30823  0.34150  1.0000
  C   C368      1.0  0.43395  0.29144  0.34553  1.0000
  H   H181      1.0  0.43324  0.33416  0.34084  1.0000
  H   H182      1.0  0.44220  0.28132  0.34709  1.0000
  H   H183      1.0  0.39207  0.29968  0.34516  1.0000
  C   C369      1.0  0.59304  0.72124  0.34653  1.0000
  C   C370      1.0  0.60438  0.70722  0.34498  1.0000
  C   C371      1.0  0.59855  0.69006  0.34441  1.0000
  C   C372      1.0  0.58060  0.68737  0.34211  1.0000
  C   C373      1.0  0.56871  0.70107  0.34141  1.0000
  C   C374      1.0  0.57534  0.71787  0.34536  1.0000
  H   H184      1.0  0.57605  0.67515  0.34081  1.0000
  H   H185      1.0  0.56708  0.72799  0.34691  1.0000
  H   H186      1.0  0.61722  0.70963  0.34497  1.0000
  C   C375      1.0  0.15948  0.33965  0.34950  1.0000
  C   C376      1.0  0.17359  0.35072  0.34172  1.0000
  C   C377      1.0  0.17172  0.36857  0.33478  1.0000
  C   C378      1.0  0.15498  0.37543  0.33776  1.0000
  C   C379      1.0  0.14025  0.36484  0.34401  1.0000
  C   C380      1.0  0.14295  0.34691  0.34864  1.0000
  H   H187      1.0  0.15356  0.38839  0.33480  1.0000
  H   H188      1.0  0.13268  0.33888  0.35213  1.0000
  H   H189      1.0  0.18563  0.34560  0.34076  1.0000
  C   C381      1.0  0.84980  0.66964  0.35062  1.0000
  C   C382      1.0  0.83569  0.65857  0.34263  1.0000
  C   C383      1.0  0.83758  0.64072  0.33572  1.0000
  C   C384      1.0  0.85432  0.63386  0.33890  1.0000
  C   C385      1.0  0.86903  0.64447  0.34541  1.0000
  C   C386      1.0  0.86633  0.66239  0.35006  1.0000
  H   H190      1.0  0.85575  0.62091  0.33592  1.0000
  H   H191      1.0  0.87659  0.67043  0.35376  1.0000
  H   H192      1.0  0.82366  0.66368  0.34147  1.0000
  C   C387      1.0  0.66966  0.15949  0.35060  1.0000
  C   C388      1.0  0.65859  0.17359  0.34264  1.0000
  C   C389      1.0  0.64073  0.17170  0.33576  1.0000
  C   C390      1.0  0.63389  0.15496  0.33890  1.0000
  C   C391      1.0  0.64449  0.14025  0.34539  1.0000
  C   C392      1.0  0.66242  0.14295  0.35005  1.0000
  H   H193      1.0  0.62093  0.15353  0.33592  1.0000
  H   H194      1.0  0.67045  0.13269  0.35374  1.0000
  H   H195      1.0  0.66370  0.18563  0.34149  1.0000
  C   C393      1.0  0.33968  0.84981  0.34948  1.0000
  C   C394      1.0  0.35075  0.83570  0.34172  1.0000
  C   C395      1.0  0.36860  0.83758  0.33480  1.0000
  C   C396      1.0  0.37546  0.85431  0.33773  1.0000
  C   C397      1.0  0.36486  0.86904  0.34400  1.0000
  C   C398      1.0  0.34693  0.86634  0.34866  1.0000
  H   H196      1.0  0.38842  0.85574  0.33477  1.0000
  H   H197      1.0  0.33890  0.87661  0.35215  1.0000
  H   H198      1.0  0.34563  0.82366  0.34074  1.0000
  C   C399      1.0  0.85125  0.33898  0.33585  1.0000
  C   C400      1.0  0.83716  0.35006  0.34380  1.0000
  C   C401      1.0  0.83908  0.36790  0.35098  1.0000
  C   C402      1.0  0.85582  0.37473  0.34811  1.0000
  C   C403      1.0  0.87052  0.36412  0.34174  1.0000
  C   C404      1.0  0.86780  0.34619  0.33683  1.0000
  H   H199      1.0  0.85726  0.38769  0.35121  1.0000
  H   H200      1.0  0.87805  0.33814  0.33323  1.0000
  H   H201      1.0  0.82512  0.34496  0.34468  1.0000
  C   C405      1.0  0.15804  0.67037  0.33468  1.0000
  C   C406      1.0  0.17212  0.65928  0.34284  1.0000
  C   C407      1.0  0.17019  0.64143  0.34999  1.0000
  C   C408      1.0  0.15345  0.63461  0.34691  1.0000
  C   C409      1.0  0.13875  0.64524  0.34030  1.0000
  C   C410      1.0  0.14149  0.66316  0.33538  1.0000
  H   H202      1.0  0.15199  0.62166  0.35005  1.0000
  H   H203      1.0  0.13124  0.67122  0.33158  1.0000
  H   H204      1.0  0.18417  0.66437  0.34389  1.0000
  C   C411      1.0  0.33895  0.15805  0.33584  1.0000
  C   C412      1.0  0.35004  0.17214  0.34380  1.0000
  C   C413      1.0  0.36788  0.17022  0.35098  1.0000
  C   C414      1.0  0.37471  0.15348  0.34810  1.0000
  C   C415      1.0  0.36409  0.13877  0.34174  1.0000
  C   C416      1.0  0.34616  0.14150  0.33684  1.0000
  H   H205      1.0  0.38766  0.15203  0.35121  1.0000
  H   H206      1.0  0.33811  0.13125  0.33324  1.0000
  H   H207      1.0  0.34494  0.18418  0.34469  1.0000
  C   C417      1.0  0.67035  0.85125  0.33469  1.0000
  C   C418      1.0  0.65926  0.83717  0.34284  1.0000
  C   C419      1.0  0.64141  0.83909  0.34999  1.0000
  C   C420      1.0  0.63459  0.85583  0.34688  1.0000
  C   C421      1.0  0.64521  0.87053  0.34027  1.0000
  C   C422      1.0  0.66313  0.86780  0.33537  1.0000
  H   H208      1.0  0.62164  0.85729  0.35001  1.0000
  H   H209      1.0  0.67119  0.87805  0.33158  1.0000
  H   H210      1.0  0.66435  0.82512  0.34392  1.0000
  C   C423      1.0  0.13618  0.13594  0.34405  1.0000
  C   C424      1.0  0.12206  0.13685  0.40282  1.0000
  C   C425      1.0  0.10958  0.12398  0.40239  1.0000
  H   H211      1.0  0.12075  0.14690  0.44627  1.0000
  H   H212      1.0  0.09966  0.12491  0.44688  1.0000
  C   C426      1.0  0.14882  0.14891  0.34442  1.0000
  C   C427      1.0  0.17426  0.17464  0.34462  1.0000
  C   C428      1.0  0.17228  0.16378  0.41941  1.0000
  C   C429      1.0  0.15955  0.15101  0.42068  1.0000
  H   H213      1.0  0.18006  0.16523  0.47425  1.0000
  N   N43       1.0  0.15765  0.14016  0.49636  1.0000
  O   O85       1.0  0.17094  0.13166  0.51117  1.0000
  O   O86       1.0  0.15396  0.14849  0.56597  1.0000
  C   C430      1.0  0.87311  0.87336  0.34407  1.0000
  C   C431      1.0  0.88723  0.87245  0.40285  1.0000
  C   C432      1.0  0.89971  0.88532  0.40241  1.0000
  H   H214      1.0  0.88854  0.86240  0.44629  1.0000
  H   H215      1.0  0.90963  0.88439  0.44690  1.0000
  C   C433      1.0  0.86047  0.86040  0.34444  1.0000
  C   C434      1.0  0.83503  0.83466  0.34464  1.0000
  C   C435      1.0  0.83701  0.84552  0.41944  1.0000
  C   C436      1.0  0.84974  0.85829  0.42071  1.0000
  H   H216      1.0  0.82923  0.84407  0.47428  1.0000
  N   N44       1.0  0.85165  0.86914  0.49639  1.0000
  O   O87       1.0  0.83835  0.87763  0.51121  1.0000
  O   O88       1.0  0.85533  0.86081  0.56600  1.0000
  C   C437      1.0  0.87337  0.13619  0.34405  1.0000
  C   C438      1.0  0.87245  0.12208  0.40283  1.0000
  C   C439      1.0  0.88532  0.10959  0.40238  1.0000
  H   H217      1.0  0.86241  0.12077  0.44628  1.0000
  H   H218      1.0  0.88439  0.09967  0.44687  1.0000
  C   C440      1.0  0.86041  0.14884  0.34445  1.0000
  C   C441      1.0  0.83468  0.17428  0.34470  1.0000
  C   C442      1.0  0.84554  0.17230  0.41948  1.0000
  C   C443      1.0  0.85831  0.15957  0.42072  1.0000
  H   H219      1.0  0.84409  0.18008  0.47432  1.0000
  N   N45       1.0  0.86916  0.15766  0.49638  1.0000
  O   O89       1.0  0.87766  0.17095  0.51119  1.0000
  O   O90       1.0  0.86083  0.15398  0.56600  1.0000
  C   C444      1.0  0.13595  0.87312  0.34405  1.0000
  C   C445      1.0  0.13686  0.88724  0.40283  1.0000
  C   C446      1.0  0.12398  0.89972  0.40239  1.0000
  H   H220      1.0  0.14690  0.88855  0.44627  1.0000
  H   H221      1.0  0.12491  0.90963  0.44690  1.0000
  C   C447      1.0  0.14892  0.86048  0.34440  1.0000
  C   C448      1.0  0.17465  0.83505  0.34457  1.0000
  C   C449      1.0  0.16380  0.83702  0.41937  1.0000
  C   C450      1.0  0.15102  0.84975  0.42066  1.0000
  H   H222      1.0  0.16525  0.82924  0.47420  1.0000
  N   N46       1.0  0.14018  0.85165  0.49634  1.0000
  O   O91       1.0  0.13168  0.83836  0.51115  1.0000
  O   O92       1.0  0.14851  0.85533  0.56595  1.0000
  C   C451      1.0  0.09232  0.95913  0.34812  1.0000
  C   C452      1.0  0.08337  0.96991  0.40813  1.0000
  C   C453      1.0  0.08581  0.98764  0.40637  1.0000
  C   C454      1.0  0.10389  0.02312  0.41083  1.0000
  C   C455      1.0  0.10231  0.04107  0.40656  1.0000
  H   H223      1.0  0.10573  0.04823  0.46130  1.0000
  H   H224      1.0  0.07456  0.96501  0.45194  1.0000
  H   H225      1.0  0.07852  0.99514  0.44768  1.0000
  N   N47       1.0  0.11072  0.01509  0.48834  1.0000
  O   O93       1.0  0.10198  0.01824  0.55728  1.0000
  O   O94       1.0  0.12583  0.01967  0.50252  1.0000
  C   C456      1.0  0.91697  0.05017  0.34814  1.0000
  C   C457      1.0  0.92592  0.03938  0.40815  1.0000
  C   C458      1.0  0.92348  0.02166  0.40639  1.0000
  C   C459      1.0  0.90540  0.98617  0.41080  1.0000
  C   C460      1.0  0.90699  0.96822  0.40653  1.0000
  H   H226      1.0  0.90356  0.96106  0.46126  1.0000
  H   H227      1.0  0.93471  0.04428  0.45199  1.0000
  H   H228      1.0  0.93076  0.01416  0.44771  1.0000
  N   N48       1.0  0.89856  0.99421  0.48829  1.0000
  O   O95       1.0  0.90730  0.99105  0.55726  1.0000
  O   O96       1.0  0.88345  0.98962  0.50243  1.0000
  C   C461      1.0  0.05017  0.09232  0.34814  1.0000
  C   C462      1.0  0.03938  0.08337  0.40814  1.0000
  C   C463      1.0  0.02166  0.08581  0.40637  1.0000
  C   C464      1.0  0.98617  0.10389  0.41077  1.0000
  C   C465      1.0  0.96822  0.10231  0.40649  1.0000
  H   H229      1.0  0.96106  0.10574  0.46122  1.0000
  H   H230      1.0  0.04428  0.07457  0.45198  1.0000
  H   H231      1.0  0.01416  0.07853  0.44768  1.0000
  N   N49       1.0  0.99420  0.11073  0.48826  1.0000
  O   O97       1.0  0.99105  0.10199  0.55722  1.0000
  O   O98       1.0  0.98962  0.12584  0.50240  1.0000
  C   C466      1.0  0.95913  0.91697  0.34814  1.0000
  C   C467      1.0  0.96992  0.92592  0.40814  1.0000
  C   C468      1.0  0.98764  0.92348  0.40637  1.0000
  C   C469      1.0  0.02312  0.90539  0.41078  1.0000
  C   C470      1.0  0.04108  0.90698  0.40650  1.0000
  H   H232      1.0  0.04823  0.90355  0.46124  1.0000
  H   H233      1.0  0.96502  0.93472  0.45198  1.0000
  H   H234      1.0  0.99514  0.93076  0.44768  1.0000
  N   N50       1.0  0.01509  0.89856  0.48828  1.0000
  O   O99       1.0  0.01825  0.90730  0.55724  1.0000
  O   O100      1.0  0.01968  0.88345  0.50243  1.0000
  C   C471      1.0  0.16246  0.32171  0.35619  1.0000
  C   C472      1.0  0.17450  0.31531  0.41879  1.0000
  C   C473      1.0  0.17934  0.29804  0.41844  1.0000
  C   C474      1.0  0.17441  0.25817  0.42598  1.0000
  C   C475      1.0  0.18039  0.24115  0.42349  1.0000
  H   H235      1.0  0.17755  0.23317  0.47595  1.0000
  H   H236      1.0  0.18022  0.32331  0.46406  1.0000
  H   H237      1.0  0.18845  0.29402  0.46300  1.0000
  N   N51       1.0  0.16460  0.26410  0.49976  1.0000
  O   O101      1.0  0.17285  0.26324  0.57215  1.0000
  O   O102      1.0  0.15101  0.25577  0.50835  1.0000
  C   C476      1.0  0.84680  0.68759  0.35719  1.0000
  C   C477      1.0  0.83473  0.69400  0.41955  1.0000
  C   C478      1.0  0.82989  0.71127  0.41906  1.0000
  C   C479      1.0  0.83484  0.75114  0.42656  1.0000
  C   C480      1.0  0.82886  0.76816  0.42391  1.0000
  H   H238      1.0  0.83169  0.77615  0.47638  1.0000
  H   H239      1.0  0.82897  0.68600  0.46474  1.0000
  H   H240      1.0  0.82075  0.71530  0.46345  1.0000
  N   N52       1.0  0.84461  0.74522  0.50050  1.0000
  O   O103      1.0  0.83632  0.74608  0.57277  1.0000
  O   O104      1.0  0.85820  0.75354  0.50925  1.0000
  C   C481      1.0  0.68761  0.16249  0.35719  1.0000
  C   C482      1.0  0.69401  0.17456  0.41957  1.0000
  C   C483      1.0  0.71128  0.17941  0.41910  1.0000
  C   C484      1.0  0.75115  0.17447  0.42662  1.0000
  C   C485      1.0  0.76818  0.18044  0.42400  1.0000
  H   H241      1.0  0.77616  0.17762  0.47648  1.0000
  H   H242      1.0  0.68601  0.18031  0.46477  1.0000
  H   H243      1.0  0.71531  0.18854  0.46350  1.0000
  N   N53       1.0  0.74523  0.16469  0.50056  1.0000
  O   O105      1.0  0.74610  0.17297  0.57283  1.0000
  O   O106      1.0  0.75356  0.15110  0.50931  1.0000
  C   C486      1.0  0.32173  0.84683  0.35619  1.0000
  C   C487      1.0  0.31533  0.83479  0.41875  1.0000
  C   C488      1.0  0.29806  0.82995  0.41839  1.0000
  C   C489      1.0  0.25819  0.83489  0.42590  1.0000
  C   C490      1.0  0.24116  0.82892  0.42339  1.0000
  H   H244      1.0  0.23319  0.83176  0.47585  1.0000
  H   H245      1.0  0.32333  0.82906  0.46402  1.0000
  H   H246      1.0  0.29404  0.82083  0.46294  1.0000
  N   N54       1.0  0.26412  0.84470  0.49970  1.0000
  O   O107      1.0  0.26326  0.83645  0.57209  1.0000
  O   O108      1.0  0.25580  0.85830  0.50827  1.0000
  C   C491      1.0  0.83795  0.28604  0.33033  1.0000
  C   C492      1.0  0.85028  0.29214  0.39188  1.0000
  C   C493      1.0  0.85538  0.30940  0.39100  1.0000
  H   H247      1.0  0.85537  0.28413  0.43913  1.0000
  H   H248      1.0  0.86374  0.31357  0.43909  1.0000
  C   C494      1.0  0.83200  0.26884  0.33316  1.0000
  C   C495      1.0  0.81925  0.23473  0.33576  1.0000
  C   C496      1.0  0.81570  0.24607  0.40698  1.0000
  C   C497      1.0  0.82203  0.26300  0.40694  1.0000
  H   H249      1.0  0.80874  0.24189  0.46097  1.0000
  N   N55       1.0  0.81834  0.27420  0.47921  1.0000
  O   O109      1.0  0.80257  0.27652  0.48787  1.0000
  O   O110      1.0  0.82420  0.26864  0.55230  1.0000
  C   C498      1.0  0.17137  0.72330  0.32951  1.0000
  C   C499      1.0  0.15901  0.71720  0.39086  1.0000
  C   C500      1.0  0.15390  0.69994  0.38985  1.0000
  H   H250      1.0  0.15389  0.72521  0.43806  1.0000
  H   H251      1.0  0.14551  0.69578  0.43780  1.0000
  C   C501      1.0  0.17732  0.74050  0.33245  1.0000
  C   C502      1.0  0.19008  0.77460  0.33529  1.0000
  C   C503      1.0  0.19360  0.76326  0.40653  1.0000
  C   C504      1.0  0.18727  0.74633  0.40636  1.0000
  H   H252      1.0  0.20054  0.76743  0.46061  1.0000
  N   N56       1.0  0.19091  0.73512  0.47866  1.0000
  O   O111      1.0  0.20668  0.73280  0.48750  1.0000
  O   O112      1.0  0.18503  0.74067  0.55169  1.0000
  C   C505      1.0  0.28602  0.17136  0.33029  1.0000
  C   C506      1.0  0.29212  0.15902  0.39185  1.0000
  C   C507      1.0  0.30937  0.15392  0.39099  1.0000
  H   H253      1.0  0.28410  0.15393  0.43908  1.0000
  H   H254      1.0  0.31354  0.14556  0.43907  1.0000
  C   C508      1.0  0.26882  0.17731  0.33310  1.0000
  C   C509      1.0  0.23471  0.19006  0.33568  1.0000
  C   C510      1.0  0.24604  0.19362  0.40690  1.0000
  C   C511      1.0  0.26297  0.18728  0.40687  1.0000
  H   H255      1.0  0.24187  0.20057  0.46088  1.0000
  N   N57       1.0  0.27418  0.19097  0.47915  1.0000
  O   O113      1.0  0.27649  0.20674  0.48778  1.0000
  O   O114      1.0  0.26862  0.18512  0.55223  1.0000
  C   C512      1.0  0.72328  0.83794  0.32955  1.0000
  C   C513      1.0  0.71717  0.85030  0.39089  1.0000
  C   C514      1.0  0.69992  0.85541  0.38987  1.0000
  H   H256      1.0  0.72518  0.85542  0.43808  1.0000
  H   H257      1.0  0.69574  0.86379  0.43782  1.0000
  C   C515      1.0  0.74048  0.83199  0.33251  1.0000
  C   C516      1.0  0.77458  0.81923  0.33537  1.0000
  C   C517      1.0  0.76324  0.81572  0.40661  1.0000
  C   C518      1.0  0.74631  0.82205  0.40643  1.0000
  H   H258      1.0  0.76741  0.80878  0.46070  1.0000
  N   N58       1.0  0.73510  0.81840  0.47872  1.0000
  O   O115      1.0  0.73278  0.80263  0.48756  1.0000
  O   O116      1.0  0.74065  0.82429  0.55174  1.0000
  C   C519      1.0  0.37104  0.12167  0.34061  1.0000
  C   C520      1.0  0.38478  0.11678  0.39709  1.0000
  C   C521      1.0  0.39124  0.09994  0.39736  1.0000
  C   C522      1.0  0.39016  0.05953  0.41819  1.0000
  C   C523      1.0  0.39690  0.04269  0.41632  1.0000
  H   H259      1.0  0.39652  0.03548  0.47370  1.0000
  H   H260      1.0  0.39005  0.12540  0.44060  1.0000
  H   H261      1.0  0.40120  0.09707  0.43924  1.0000
  N   N59       1.0  0.38248  0.06599  0.49747  1.0000
  O   O117      1.0  0.39288  0.06645  0.56177  1.0000
  O   O118      1.0  0.36979  0.05723  0.52058  1.0000
  C   C524      1.0  0.63827  0.88763  0.33888  1.0000
  C   C525      1.0  0.62461  0.89259  0.39579  1.0000
  C   C526      1.0  0.61818  0.90943  0.39592  1.0000
  C   C527      1.0  0.61950  0.94991  0.41543  1.0000
  C   C528      1.0  0.61277  0.96674  0.41346  1.0000
  H   H262      1.0  0.61335  0.97404  0.47052  1.0000
  H   H263      1.0  0.61941  0.88401  0.43974  1.0000
  H   H264      1.0  0.60830  0.91236  0.43818  1.0000
  N   N60       1.0  0.62743  0.94354  0.49423  1.0000
  O   O119      1.0  0.61724  0.94318  0.55949  1.0000
  O   O120      1.0  0.64020  0.95231  0.51586  1.0000
  C   C529      1.0  0.88762  0.37107  0.34059  1.0000
  C   C530      1.0  0.89252  0.38481  0.39710  1.0000
  C   C531      1.0  0.90936  0.39126  0.39738  1.0000
  C   C532      1.0  0.94978  0.39017  0.41818  1.0000
  C   C533      1.0  0.96661  0.39691  0.41632  1.0000
  H   H265      1.0  0.97383  0.39651  0.47368  1.0000
  H   H266      1.0  0.88390  0.39007  0.44063  1.0000
  H   H267      1.0  0.91223  0.40121  0.43928  1.0000
  N   N61       1.0  0.94331  0.38247  0.49743  1.0000
  O   O121      1.0  0.94286  0.39287  0.56178  1.0000
  O   O122      1.0  0.95207  0.36978  0.52047  1.0000
  C   C534      1.0  0.12165  0.63830  0.33893  1.0000
  C   C535      1.0  0.11669  0.62464  0.39583  1.0000
  C   C536      1.0  0.09985  0.61821  0.39595  1.0000
  C   C537      1.0  0.05938  0.61952  0.41545  1.0000
  C   C538      1.0  0.04254  0.61278  0.41347  1.0000
  H   H268      1.0  0.03525  0.61336  0.47053  1.0000
  H   H269      1.0  0.12528  0.61944  0.43978  1.0000
  H   H270      1.0  0.09693  0.60833  0.43820  1.0000
  N   N62       1.0  0.06575  0.62744  0.49427  1.0000
  O   O123      1.0  0.06611  0.61725  0.55951  1.0000
  O   O124      1.0  0.05697  0.64021  0.51592  1.0000
  C   C539      1.0  0.62439  0.08861  0.34680  1.0000
  C   C540      1.0  0.63791  0.09351  0.40426  1.0000
  C   C541      1.0  0.64432  0.11034  0.40414  1.0000
  H   H271      1.0  0.64332  0.08476  0.44661  1.0000
  H   H272      1.0  0.65398  0.11320  0.44784  1.0000
  C   C542      1.0  0.61784  0.07142  0.34742  1.0000
  C   C543      1.0  0.60432  0.03721  0.34865  1.0000
  C   C544      1.0  0.60312  0.04785  0.42502  1.0000
  C   C545      1.0  0.60992  0.06464  0.42588  1.0000
  H   H273      1.0  0.59706  0.04339  0.48132  1.0000
  N   N63       1.0  0.60833  0.07499  0.50362  1.0000
  O   O125      1.0  0.59298  0.07751  0.52393  1.0000
  O   O126      1.0  0.61579  0.06843  0.57001  1.0000
  C   C546      1.0  0.38500  0.92067  0.34481  1.0000
  C   C547      1.0  0.37139  0.91584  0.40180  1.0000
  C   C548      1.0  0.36497  0.89901  0.40191  1.0000
  H   H274      1.0  0.36591  0.92464  0.44365  1.0000
  H   H275      1.0  0.35525  0.89620  0.44533  1.0000
  C   C549      1.0  0.39157  0.93786  0.34528  1.0000
  C   C550      1.0  0.40507  0.97207  0.34637  1.0000
  C   C551      1.0  0.40601  0.96156  0.42330  1.0000
  C   C552      1.0  0.39923  0.94476  0.42420  1.0000
  H   H276      1.0  0.41188  0.96611  0.47998  1.0000
  N   N64       1.0  0.40057  0.93453  0.50251  1.0000
  O   O127      1.0  0.41586  0.93204  0.52430  1.0000
  O   O128      1.0  0.39290  0.94117  0.56797  1.0000
  C   C553      1.0  0.08862  0.38499  0.34481  1.0000
  C   C554      1.0  0.09345  0.37137  0.40177  1.0000
  C   C555      1.0  0.11028  0.36495  0.40188  1.0000
  H   H277      1.0  0.08465  0.36589  0.44361  1.0000
  H   H278      1.0  0.11309  0.35522  0.44529  1.0000
  C   C556      1.0  0.07144  0.39156  0.34528  1.0000
  C   C557      1.0  0.03723  0.40507  0.34637  1.0000
  C   C558      1.0  0.04774  0.40599  0.42332  1.0000
  C   C559      1.0  0.06453  0.39920  0.42422  1.0000
  H   H279      1.0  0.04319  0.41185  0.48001  1.0000
  N   N65       1.0  0.07476  0.40054  0.50255  1.0000
  O   O129      1.0  0.07725  0.41582  0.52440  1.0000
  O   O130      1.0  0.06811  0.39285  0.56797  1.0000
  C   C560      1.0  0.92067  0.62437  0.34681  1.0000
  C   C561      1.0  0.91577  0.63789  0.40429  1.0000
  C   C562      1.0  0.89894  0.64429  0.40418  1.0000
  H   H280      1.0  0.92452  0.64330  0.44664  1.0000
  H   H281      1.0  0.89608  0.65396  0.44788  1.0000
  C   C563      1.0  0.93786  0.61782  0.34742  1.0000
  C   C564      1.0  0.97208  0.60432  0.34864  1.0000
  C   C565      1.0  0.96144  0.60311  0.42500  1.0000
  C   C566      1.0  0.94465  0.60990  0.42588  1.0000
  H   H282      1.0  0.96590  0.59705  0.48130  1.0000
  N   N66       1.0  0.93430  0.60830  0.50362  1.0000
  O   O131      1.0  0.93178  0.59295  0.52390  1.0000
  O   O132      1.0  0.94085  0.61576  0.57001  1.0000
  C   C567      1.0  0.55018  0.00500  0.34257  1.0000
  C   C568      1.0  0.54086  0.99336  0.39651  1.0000
  C   C569      1.0  0.52289  0.99324  0.39670  1.0000
  C   C570      1.0  0.48608  0.00953  0.42072  1.0000
  C   C571      1.0  0.46800  0.00950  0.41938  1.0000
  H   H283      1.0  0.46148  0.01313  0.47593  1.0000
  H   H284      1.0  0.54711  0.98497  0.43769  1.0000
  H   H285      1.0  0.51665  0.98462  0.43657  1.0000
  N   N67       1.0  0.49506  0.01472  0.49882  1.0000
  O   O133      1.0  0.49175  0.00523  0.56470  1.0000
  O   O134      1.0  0.49164  0.02986  0.51985  1.0000
  C   C572      1.0  0.00431  0.55019  0.34252  1.0000
  C   C573      1.0  0.01596  0.54087  0.39646  1.0000
  C   C574      1.0  0.01607  0.52290  0.39666  1.0000
  C   C575      1.0  0.99979  0.48608  0.42069  1.0000
  C   C576      1.0  0.99982  0.46801  0.41936  1.0000
  H   H286      1.0  0.99619  0.46149  0.47591  1.0000
  H   H287      1.0  0.02433  0.54712  0.43767  1.0000
  H   H288      1.0  0.02470  0.51666  0.43655  1.0000
  N   N68       1.0  0.99459  0.49507  0.49878  1.0000
  O   O135      1.0  0.00408  0.49176  0.56468  1.0000
  O   O136      1.0  0.97945  0.49165  0.51979  1.0000
  C   C577      1.0  0.22035  0.39349  0.33000  1.0000
  C   C578      1.0  0.20807  0.39772  0.39624  1.0000
  C   C579      1.0  0.19158  0.39046  0.39475  1.0000
  H   H289      1.0  0.21125  0.40577  0.44778  1.0000
  H   H290      1.0  0.18339  0.39305  0.44657  1.0000
  C   C580      1.0  0.23752  0.39973  0.33396  1.0000
  C   C581      1.0  0.27241  0.41086  0.33670  1.0000
  C   C582      1.0  0.26592  0.40001  0.40433  1.0000
  C   C583      1.0  0.24868  0.39452  0.40431  1.0000
  H   H291      1.0  0.27377  0.39620  0.45558  1.0000
  N   N69       1.0  0.24254  0.38356  0.47292  1.0000
  O   O137      1.0  0.25052  0.36967  0.47445  1.0000
  O   O138      1.0  0.24363  0.39043  0.54912  1.0000
  C   C584      1.0  0.78894  0.61581  0.33062  1.0000
  C   C585      1.0  0.80118  0.61161  0.39705  1.0000
  C   C586      1.0  0.81768  0.61886  0.39564  1.0000
  H   H292      1.0  0.79799  0.60358  0.44865  1.0000
  H   H293      1.0  0.82584  0.61628  0.44760  1.0000
  C   C587      1.0  0.77176  0.60958  0.33446  1.0000
  C   C588      1.0  0.73687  0.59845  0.33700  1.0000
  C   C589      1.0  0.74334  0.60932  0.40458  1.0000
  C   C590      1.0  0.76058  0.61482  0.40467  1.0000
  H   H294      1.0  0.73547  0.61315  0.45574  1.0000
  N   N70       1.0  0.76670  0.62579  0.47323  1.0000
  O   O139      1.0  0.75871  0.63969  0.47456  1.0000
  O   O140      1.0  0.76558  0.61895  0.54948  1.0000
  C   C591      1.0  0.61582  0.22034  0.33062  1.0000
  C   C592      1.0  0.61162  0.20809  0.39705  1.0000
  C   C593      1.0  0.61888  0.19160  0.39565  1.0000
  H   H295      1.0  0.60359  0.21129  0.44865  1.0000
  H   H296      1.0  0.61630  0.18343  0.44761  1.0000
  C   C594      1.0  0.60959  0.23752  0.33446  1.0000
  C   C595      1.0  0.59845  0.27240  0.33701  1.0000
  C   C596      1.0  0.60932  0.26594  0.40458  1.0000
  C   C597      1.0  0.61482  0.24870  0.40468  1.0000
  H   H297      1.0  0.61315  0.27381  0.45574  1.0000
  N   N71       1.0  0.62580  0.24258  0.47323  1.0000
  O   O141      1.0  0.63970  0.25057  0.47456  1.0000
  O   O142      1.0  0.61896  0.24370  0.54949  1.0000
  C   C598      1.0  0.39349  0.78893  0.33002  1.0000
  C   C599      1.0  0.39771  0.80119  0.39633  1.0000
  C   C600      1.0  0.39046  0.81769  0.39482  1.0000
  H   H298      1.0  0.40574  0.79801  0.44793  1.0000
  H   H299      1.0  0.39305  0.82587  0.44669  1.0000
  C   C601      1.0  0.39972  0.77175  0.33397  1.0000
  C   C602      1.0  0.41085  0.73686  0.33669  1.0000
  C   C603      1.0  0.39999  0.74335  0.40429  1.0000
  C   C604      1.0  0.39450  0.76059  0.40429  1.0000
  H   H300      1.0  0.39617  0.73550  0.45552  1.0000
  N   N72       1.0  0.38354  0.76673  0.47286  1.0000
  O   O143      1.0  0.36964  0.75875  0.47432  1.0000
  O   O144      1.0  0.39040  0.76563  0.54908  1.0000
  C   C605      1.0  0.82395  0.37802  0.35881  1.0000
  C   C606      1.0  0.81179  0.37419  0.42644  1.0000
  C   C607      1.0  0.79537  0.38145  0.42516  1.0000
  C   C608      1.0  0.76685  0.40975  0.42138  1.0000
  C   C609      1.0  0.74967  0.41535  0.41840  1.0000
  H   H301      1.0  0.74526  0.42312  0.46866  1.0000
  H   H302      1.0  0.81455  0.36543  0.47536  1.0000
  H   H303      1.0  0.78676  0.37779  0.47321  1.0000
  N   N73       1.0  0.77778  0.41497  0.49221  1.0000
  O   O145      1.0  0.77235  0.41002  0.56738  1.0000
  O   O146      1.0  0.77949  0.43090  0.49418  1.0000
  C   C610      1.0  0.18532  0.63131  0.35796  1.0000
  C   C611      1.0  0.19745  0.63513  0.42571  1.0000
  C   C612      1.0  0.21387  0.62787  0.42454  1.0000
  C   C613      1.0  0.24239  0.59956  0.42091  1.0000
  C   C614      1.0  0.25957  0.59396  0.41802  1.0000
  H   H304      1.0  0.26396  0.58618  0.46830  1.0000
  H   H305      1.0  0.19468  0.64389  0.47462  1.0000
  H   H306      1.0  0.22247  0.63152  0.47268  1.0000
  N   N74       1.0  0.23144  0.59434  0.49165  1.0000
  O   O147      1.0  0.23686  0.59928  0.56687  1.0000
  O   O148      1.0  0.22973  0.57841  0.49357  1.0000
  C   C615      1.0  0.37800  0.18535  0.35881  1.0000
  C   C616      1.0  0.37418  0.19751  0.42645  1.0000
  C   C617      1.0  0.38144  0.21392  0.42516  1.0000
  C   C618      1.0  0.40974  0.24244  0.42138  1.0000
  C   C619      1.0  0.41534  0.25962  0.41839  1.0000
  H   H307      1.0  0.42311  0.26402  0.46865  1.0000
  H   H308      1.0  0.36541  0.19474  0.47538  1.0000
  H   H309      1.0  0.37778  0.22253  0.47322  1.0000
  N   N75       1.0  0.41496  0.23151  0.49219  1.0000
  O   O149      1.0  0.41001  0.23694  0.56737  1.0000
  O   O150      1.0  0.43089  0.22980  0.49416  1.0000
  C   C620      1.0  0.63130  0.82396  0.35795  1.0000
  C   C621      1.0  0.63511  0.81183  0.42571  1.0000
  C   C622      1.0  0.62785  0.79541  0.42454  1.0000
  C   C623      1.0  0.59954  0.76689  0.42091  1.0000
  C   C624      1.0  0.59394  0.74971  0.41802  1.0000
  H   H310      1.0  0.58617  0.74532  0.46831  1.0000
  H   H311      1.0  0.64388  0.81460  0.47460  1.0000
  H   H312      1.0  0.63150  0.78681  0.47266  1.0000
  N   N76       1.0  0.59432  0.77784  0.49166  1.0000
  O   O151      1.0  0.59926  0.77242  0.56687  1.0000
  O   O152      1.0  0.57839  0.77955  0.49360  1.0000
  C   C625      1.0  0.31073  0.55051  0.33767  1.0000
  C   C626      1.0  0.32269  0.54205  0.39357  1.0000
  C   C627      1.0  0.32399  0.52407  0.39461  1.0000
  C   C628      1.0  0.30885  0.48664  0.42139  1.0000
  C   C629      1.0  0.30811  0.46855  0.42158  1.0000
  H   H313      1.0  0.30382  0.46242  0.47804  1.0000
  H   H314      1.0  0.33011  0.54892  0.43709  1.0000
  H   H315      1.0  0.33255  0.51847  0.43740  1.0000
  N   N77       1.0  0.30373  0.49602  0.49829  1.0000
  O   O153      1.0  0.31289  0.49256  0.56525  1.0000
  O   O154      1.0  0.28841  0.49322  0.51825  1.0000
  C   C630      1.0  0.69852  0.45878  0.33772  1.0000
  C   C631      1.0  0.68657  0.46725  0.39365  1.0000
  C   C632      1.0  0.68527  0.48523  0.39466  1.0000
  C   C633      1.0  0.70042  0.52266  0.42144  1.0000
  C   C634      1.0  0.70117  0.54075  0.42162  1.0000
  H   H316      1.0  0.70547  0.54688  0.47808  1.0000
  H   H317      1.0  0.67914  0.46039  0.43714  1.0000
  H   H318      1.0  0.67671  0.49083  0.43745  1.0000
  N   N78       1.0  0.70555  0.51328  0.49833  1.0000
  O   O155      1.0  0.69639  0.51674  0.56530  1.0000
  O   O156      1.0  0.72087  0.51607  0.51827  1.0000
  C   C635      1.0  0.45878  0.31076  0.33773  1.0000
  C   C636      1.0  0.46725  0.32272  0.39362  1.0000
  C   C637      1.0  0.48523  0.32401  0.39466  1.0000
  C   C638      1.0  0.52266  0.30885  0.42142  1.0000
  C   C639      1.0  0.54074  0.30810  0.42160  1.0000
  H   H319      1.0  0.54688  0.30380  0.47806  1.0000
  H   H320      1.0  0.46039  0.33014  0.43716  1.0000
  H   H321      1.0  0.49083  0.33256  0.43745  1.0000
  N   N79       1.0  0.51327  0.30372  0.49830  1.0000
  O   O157      1.0  0.51674  0.31287  0.56528  1.0000
  O   O158      1.0  0.51606  0.28839  0.51823  1.0000
  C   C640      1.0  0.55051  0.69854  0.33763  1.0000
  C   C641      1.0  0.54205  0.68659  0.39359  1.0000
  C   C642      1.0  0.52406  0.68529  0.39464  1.0000
  C   C643      1.0  0.48663  0.70043  0.42138  1.0000
  C   C644      1.0  0.46854  0.70117  0.42156  1.0000
  H   H322      1.0  0.46241  0.70547  0.47800  1.0000
  H   H323      1.0  0.54891  0.67917  0.43713  1.0000
  H   H324      1.0  0.51847  0.67674  0.43746  1.0000
  N   N80       1.0  0.49601  0.70556  0.49826  1.0000
  O   O159      1.0  0.49255  0.69641  0.56525  1.0000
  O   O160      1.0  0.49321  0.72089  0.51818  1.0000
  C   C645      1.0  0.37364  0.36034  0.34456  1.0000
  C   C646      1.0  0.37181  0.34599  0.40145  1.0000
  C   C647      1.0  0.38401  0.33276  0.40196  1.0000
  H   H325      1.0  0.36136  0.34495  0.44238  1.0000
  H   H326      1.0  0.38209  0.32273  0.44477  1.0000
  C   C648      1.0  0.36087  0.37355  0.34260  1.0000
  C   C649      1.0  0.33446  0.39911  0.34055  1.0000
  C   C650      1.0  0.34466  0.39647  0.41755  1.0000
  C   C651      1.0  0.35758  0.38377  0.41992  1.0000
  H   H327      1.0  0.34239  0.40359  0.47405  1.0000
  N   N81       1.0  0.36742  0.38123  0.49877  1.0000
  O   O161      1.0  0.37559  0.39443  0.51987  1.0000
  O   O162      1.0  0.35824  0.37690  0.56422  1.0000
  C   C652      1.0  0.63565  0.64897  0.34454  1.0000
  C   C653      1.0  0.63749  0.66332  0.40136  1.0000
  C   C654      1.0  0.62528  0.67656  0.40184  1.0000
  H   H328      1.0  0.64793  0.66438  0.44227  1.0000
  H   H329      1.0  0.62721  0.68660  0.44461  1.0000
  C   C655      1.0  0.64842  0.63575  0.34260  1.0000
  C   C656      1.0  0.67481  0.61018  0.34057  1.0000
  C   C657      1.0  0.66463  0.61285  0.41761  1.0000
  C   C658      1.0  0.65171  0.62555  0.41996  1.0000
  H   H330      1.0  0.66690  0.60574  0.47414  1.0000
  N   N82       1.0  0.64188  0.62810  0.49883  1.0000
  O   O163      1.0  0.63371  0.61491  0.52001  1.0000
  O   O164      1.0  0.65107  0.63244  0.56423  1.0000
  C   C659      1.0  0.64895  0.37364  0.34459  1.0000
  C   C660      1.0  0.66330  0.37180  0.40145  1.0000
  C   C661      1.0  0.67653  0.38401  0.40195  1.0000
  H   H331      1.0  0.66435  0.36136  0.44237  1.0000
  H   H332      1.0  0.68657  0.38209  0.44475  1.0000
  C   C662      1.0  0.63574  0.36087  0.34263  1.0000
  C   C663      1.0  0.61017  0.33446  0.34059  1.0000
  C   C664      1.0  0.61283  0.34464  0.41761  1.0000
  C   C665      1.0  0.62553  0.35757  0.41998  1.0000
  H   H333      1.0  0.60572  0.34237  0.47414  1.0000
  N   N83       1.0  0.62808  0.36740  0.49885  1.0000
  O   O165      1.0  0.61488  0.37557  0.52002  1.0000
  O   O166      1.0  0.63241  0.35821  0.56426  1.0000
  C   C666      1.0  0.36032  0.63565  0.34452  1.0000
  C   C667      1.0  0.34597  0.63748  0.40136  1.0000
  C   C668      1.0  0.33273  0.62528  0.40185  1.0000
  H   H334      1.0  0.34492  0.64793  0.44228  1.0000
  H   H335      1.0  0.32270  0.62721  0.44464  1.0000
  C   C669      1.0  0.37354  0.64841  0.34256  1.0000
  C   C670      1.0  0.39911  0.67481  0.34051  1.0000
  C   C671      1.0  0.39646  0.66462  0.41753  1.0000
  C   C672      1.0  0.38375  0.65170  0.41990  1.0000
  H   H336      1.0  0.40357  0.66689  0.47404  1.0000
  N   N84       1.0  0.38121  0.64186  0.49875  1.0000
  O   O167      1.0  0.39440  0.63369  0.51988  1.0000
  O   O168      1.0  0.37688  0.65106  0.56419  1.0000
