data_image0
_chemical_formula_structural       C2HC5H3C2HC5H3C2NC3NHCH3C2NC3NHCH3C2HC5H3C2HC5H3C2NC3NHCH3C2NC3NHCH3C2HC5H3C2HC5H3C2HC5H3C2HC5H3C2NC3NHCH3C2NC3NHCH3C2HC5H3C2HC5H3C2NC3NHCH3C2NC3NHCH3C2HC5H3C2HC5H3C2NC3NHCH3C2NC3NHCH3C2HC5H3C2HC5H3C6H3C6H3C6H3C6H3C6H3C6H3C6H3C6H3C6H3C6H3C6H3C6H3C6H3C6H3C6H3C6H3C2NC3NHCH3C2NC3NHCH3C2HC5H3C2HC5H3C2NC3NHCH3C2NC3NHCH3C2HC5H3C2HC5H3C2NC3NHCH3C2NC3NHCH3C2NC3NHCH3C2NC3NHCH3C2HC5H3C2HC5H3C2NC3NHCH3C2NC3NHCH3C2HC5H3C2HC5H3C2NC3NHCH3C2NC3NHCH3C2HC5H3C2HC5H3C2NC3NHCH3C2NC3NHCH3
_chemical_formula_sum              "C408 H240 N48"
_cell_length_a       66.2157
_cell_length_b       51.9232
_cell_length_c       14.8793
_cell_angle_alpha    90
_cell_angle_beta     90
_cell_angle_gamma    90

_space_group_name_H-M_alt    "P 1"
_space_group_IT_number       1

loop_
  _space_group_symop_operation_xyz
  'x, y, z'

loop_
  _atom_site_type_symbol
  _atom_site_label
  _atom_site_symmetry_multiplicity
  _atom_site_fract_x
  _atom_site_fract_y
  _atom_site_fract_z
  _atom_site_occupancy
  C   C1        1.0  0.00406  0.97655  0.25939  1.0000
  C   C2        1.0  0.00406  0.94929  0.26192  1.0000
  H   H1        1.0  0.00406  0.93919  0.20277  1.0000
  C   C3        1.0  0.00406  0.07249  0.34060  1.0000
  C   C4        1.0  0.00404  0.05866  0.25877  1.0000
  C   C5        1.0  0.00404  0.03137  0.25790  1.0000
  C   C6        1.0  0.00404  0.01733  0.17663  1.0000
  C   C7        1.0  0.00405  0.99023  0.17736  1.0000
  H   H2        1.0  0.00403  0.02671  0.11618  1.0000
  H   H3        1.0  0.00404  0.98057  0.11743  1.0000
  H   H4        1.0  0.00402  0.06859  0.19927  1.0000
  C   C8        1.0  0.50406  0.47654  0.25941  1.0000
  C   C9        1.0  0.50406  0.44928  0.26193  1.0000
  H   H5        1.0  0.50407  0.43918  0.20278  1.0000
  C   C10       1.0  0.50405  0.57249  0.34061  1.0000
  C   C11       1.0  0.50403  0.55865  0.25878  1.0000
  C   C12       1.0  0.50404  0.53136  0.25791  1.0000
  C   C13       1.0  0.50404  0.51732  0.17664  1.0000
  C   C14       1.0  0.50405  0.49022  0.17738  1.0000
  H   H6        1.0  0.50403  0.52671  0.11620  1.0000
  H   H7        1.0  0.50405  0.48056  0.11745  1.0000
  H   H8        1.0  0.50402  0.56858  0.19927  1.0000
  C   C15       1.0  0.12825  0.23444  0.33892  1.0000
  C   C16       1.0  0.11905  0.22546  0.25839  1.0000
  N   N1        1.0  0.10257  0.20979  0.26400  1.0000
  C   C17       1.0  0.09388  0.20186  0.34207  1.0000
  C   C18       1.0  0.07641  0.18602  0.34272  1.0000
  C   C19       1.0  0.05067  0.16299  0.26251  1.0000
  N   N2        1.0  0.06759  0.17783  0.26512  1.0000
  H   H9        1.0  0.04484  0.15793  0.20141  1.0000
  C   C20       1.0  0.12572  0.23228  0.16643  1.0000
  H   H10       1.0  0.13903  0.24461  0.16568  1.0000
  H   H11       1.0  0.11354  0.24234  0.13161  1.0000
  H   H12       1.0  0.12932  0.21473  0.12941  1.0000
  C   C21       1.0  0.87989  0.77367  0.33902  1.0000
  C   C22       1.0  0.88909  0.78263  0.25847  1.0000
  N   N3        1.0  0.90557  0.79831  0.26405  1.0000
  C   C23       1.0  0.91424  0.80629  0.34209  1.0000
  C   C24       1.0  0.93170  0.82213  0.34271  1.0000
  C   C25       1.0  0.95749  0.84507  0.26246  1.0000
  N   N4        1.0  0.94056  0.83023  0.26509  1.0000
  H   H13       1.0  0.96335  0.85005  0.20134  1.0000
  C   C26       1.0  0.88244  0.77578  0.16651  1.0000
  H   H14       1.0  0.86913  0.76343  0.16578  1.0000
  H   H15       1.0  0.89462  0.76572  0.13176  1.0000
  H   H16       1.0  0.87883  0.79332  0.12942  1.0000
  C   C27       1.0  0.90563  0.21038  0.25858  1.0000
  C   C28       1.0  0.88851  0.22667  0.26123  1.0000
  H   H17       1.0  0.88256  0.23343  0.20220  1.0000
  C   C29       1.0  0.96698  0.15518  0.34027  1.0000
  C   C30       1.0  0.95829  0.16330  0.25827  1.0000
  C   C31       1.0  0.94063  0.17868  0.25718  1.0000
  C   C32       1.0  0.93190  0.18717  0.17586  1.0000
  C   C33       1.0  0.91457  0.20286  0.17654  1.0000
  H   H18       1.0  0.93815  0.18216  0.11547  1.0000
  H   H19       1.0  0.90865  0.20891  0.11664  1.0000
  H   H20       1.0  0.96505  0.15823  0.19891  1.0000
  C   C34       1.0  0.10244  0.79770  0.25858  1.0000
  C   C35       1.0  0.11955  0.78140  0.26122  1.0000
  H   H21       1.0  0.12548  0.77460  0.20220  1.0000
  C   C36       1.0  0.04114  0.85298  0.34025  1.0000
  C   C37       1.0  0.04977  0.84476  0.25827  1.0000
  C   C38       1.0  0.06744  0.82940  0.25718  1.0000
  C   C39       1.0  0.07614  0.82084  0.17586  1.0000
  C   C40       1.0  0.09346  0.80516  0.17654  1.0000
  H   H22       1.0  0.06985  0.82580  0.11548  1.0000
  H   H23       1.0  0.09936  0.79907  0.11665  1.0000
  H   H24       1.0  0.04299  0.84977  0.19891  1.0000
  C   C41       1.0  0.62826  0.73445  0.33929  1.0000
  C   C42       1.0  0.61914  0.72538  0.25870  1.0000
  N   N5        1.0  0.60266  0.70970  0.26421  1.0000
  C   C43       1.0  0.59392  0.70181  0.34223  1.0000
  C   C44       1.0  0.57645  0.68598  0.34279  1.0000
  C   C45       1.0  0.55073  0.66292  0.26250  1.0000
  N   N6        1.0  0.56766  0.67776  0.26517  1.0000
  H   H25       1.0  0.54492  0.65784  0.20137  1.0000
  C   C46       1.0  0.62586  0.73215  0.16676  1.0000
  H   H26       1.0  0.63916  0.74453  0.16607  1.0000
  H   H27       1.0  0.61369  0.74216  0.13171  1.0000
  H   H28       1.0  0.62952  0.71459  0.12992  1.0000
  C   C47       1.0  0.37985  0.27370  0.33925  1.0000
  C   C48       1.0  0.38902  0.28269  0.25867  1.0000
  N   N7        1.0  0.40550  0.29837  0.26417  1.0000
  C   C49       1.0  0.41421  0.30630  0.34218  1.0000
  C   C50       1.0  0.43169  0.32213  0.34274  1.0000
  C   C51       1.0  0.45745  0.34511  0.26243  1.0000
  N   N8        1.0  0.44052  0.33028  0.26511  1.0000
  H   H29       1.0  0.46328  0.35013  0.20129  1.0000
  C   C52       1.0  0.38232  0.27587  0.16674  1.0000
  H   H30       1.0  0.36901  0.26353  0.16606  1.0000
  H   H31       1.0  0.39449  0.26582  0.13186  1.0000
  H   H32       1.0  0.37870  0.29342  0.12974  1.0000
  C   C53       1.0  0.40565  0.71042  0.25845  1.0000
  C   C54       1.0  0.38855  0.72672  0.26104  1.0000
  H   H33       1.0  0.38262  0.73351  0.20199  1.0000
  C   C55       1.0  0.46699  0.65521  0.34029  1.0000
  C   C56       1.0  0.45833  0.66336  0.25828  1.0000
  C   C57       1.0  0.44066  0.67872  0.25715  1.0000
  C   C58       1.0  0.43196  0.68725  0.17581  1.0000
  C   C59       1.0  0.41464  0.70294  0.17645  1.0000
  H   H34       1.0  0.43825  0.68229  0.11544  1.0000
  H   H35       1.0  0.40875  0.70903  0.11653  1.0000
  H   H36       1.0  0.46511  0.65833  0.19893  1.0000
  C   C60       1.0  0.60245  0.29769  0.25847  1.0000
  C   C61       1.0  0.61955  0.28139  0.26105  1.0000
  H   H37       1.0  0.62546  0.27456  0.20201  1.0000
  C   C62       1.0  0.54114  0.35296  0.34029  1.0000
  C   C63       1.0  0.54975  0.34471  0.25829  1.0000
  C   C64       1.0  0.56743  0.32937  0.25716  1.0000
  C   C65       1.0  0.57610  0.32077  0.17582  1.0000
  C   C66       1.0  0.59343  0.30511  0.17646  1.0000
  H   H38       1.0  0.56978  0.32569  0.11546  1.0000
  H   H39       1.0  0.59929  0.29897  0.11655  1.0000
  H   H40       1.0  0.54294  0.34968  0.19895  1.0000
  C   C67       1.0  0.36854  0.14373  0.25720  1.0000
  C   C68       1.0  0.36332  0.17006  0.26046  1.0000
  H   H41       1.0  0.36174  0.18016  0.20170  1.0000
  C   C69       1.0  0.38809  0.05176  0.33900  1.0000
  C   C70       1.0  0.38574  0.06497  0.25671  1.0000
  C   C71       1.0  0.37954  0.09099  0.25535  1.0000
  C   C72       1.0  0.37743  0.10473  0.17405  1.0000
  C   C73       1.0  0.37189  0.13087  0.17494  1.0000
  H   H42       1.0  0.38004  0.09590  0.11370  1.0000
  H   H43       1.0  0.37056  0.14048  0.11521  1.0000
  H   H44       1.0  0.38928  0.05585  0.19768  1.0000
  C   C74       1.0  0.63962  0.86441  0.25708  1.0000
  C   C75       1.0  0.64484  0.83808  0.26031  1.0000
  H   H45       1.0  0.64644  0.82799  0.20153  1.0000
  C   C76       1.0  0.62004  0.95635  0.33911  1.0000
  C   C77       1.0  0.62242  0.94317  0.25678  1.0000
  C   C78       1.0  0.62862  0.91715  0.25535  1.0000
  C   C79       1.0  0.63074  0.90343  0.17402  1.0000
  C   C80       1.0  0.63628  0.87729  0.17486  1.0000
  H   H46       1.0  0.62814  0.91227  0.11368  1.0000
  H   H47       1.0  0.63762  0.86769  0.11509  1.0000
  H   H48       1.0  0.61889  0.95231  0.19777  1.0000
  C   C81       1.0  0.64780  0.18266  0.33955  1.0000
  C   C82       1.0  0.64553  0.16813  0.25924  1.0000
  N   N9        1.0  0.64053  0.14278  0.26569  1.0000
  C   C83       1.0  0.63752  0.13005  0.34435  1.0000
  C   C84       1.0  0.63213  0.10371  0.34541  1.0000
  C   C85       1.0  0.62386  0.06525  0.26491  1.0000
  N   N10       1.0  0.62963  0.09032  0.26760  1.0000
  H   H49       1.0  0.62153  0.05677  0.20377  1.0000
  C   C86       1.0  0.64806  0.17834  0.16700  1.0000
  H   H50       1.0  0.65195  0.19873  0.16569  1.0000
  H   H51       1.0  0.63401  0.17581  0.12966  1.0000
  H   H52       1.0  0.66003  0.16771  0.13286  1.0000
  C   C87       1.0  0.36028  0.82548  0.33970  1.0000
  C   C88       1.0  0.36257  0.84000  0.25938  1.0000
  N   N11       1.0  0.36757  0.86535  0.26583  1.0000
  C   C89       1.0  0.37057  0.87809  0.34448  1.0000
  C   C90       1.0  0.37597  0.90442  0.34552  1.0000
  C   C91       1.0  0.38428  0.94286  0.26495  1.0000
  N   N12       1.0  0.37850  0.91779  0.26770  1.0000
  H   H53       1.0  0.38665  0.95131  0.20380  1.0000
  C   C92       1.0  0.36006  0.82979  0.16713  1.0000
  H   H54       1.0  0.35616  0.80940  0.16582  1.0000
  H   H55       1.0  0.37412  0.83230  0.12987  1.0000
  H   H56       1.0  0.34811  0.84042  0.13292  1.0000
  C   C93       1.0  0.86853  0.64376  0.25727  1.0000
  C   C94       1.0  0.86331  0.67009  0.26054  1.0000
  H   H57       1.0  0.86176  0.68020  0.20179  1.0000
  C   C95       1.0  0.88807  0.55176  0.33902  1.0000
  C   C96       1.0  0.88574  0.56500  0.25676  1.0000
  C   C97       1.0  0.87954  0.59102  0.25541  1.0000
  C   C98       1.0  0.87747  0.60478  0.17412  1.0000
  C   C99       1.0  0.87192  0.63091  0.17502  1.0000
  H   H58       1.0  0.88011  0.59596  0.11377  1.0000
  H   H59       1.0  0.87062  0.64054  0.11530  1.0000
  H   H60       1.0  0.88932  0.55591  0.19773  1.0000
  C   C100      1.0  0.13961  0.36439  0.25714  1.0000
  C   C101      1.0  0.14483  0.33805  0.26038  1.0000
  H   H61       1.0  0.14639  0.32795  0.20160  1.0000
  C   C102      1.0  0.12004  0.45633  0.33913  1.0000
  C   C103      1.0  0.12237  0.44314  0.25680  1.0000
  C   C104      1.0  0.12859  0.41713  0.25539  1.0000
  C   C105      1.0  0.13069  0.40339  0.17407  1.0000
  C   C106      1.0  0.13624  0.37725  0.17492  1.0000
  H   H62       1.0  0.12805  0.41222  0.11374  1.0000
  H   H63       1.0  0.13755  0.36764  0.11517  1.0000
  H   H64       1.0  0.11884  0.45227  0.19779  1.0000
  C   C107      1.0  0.14789  0.68265  0.33947  1.0000
  C   C108      1.0  0.14565  0.66810  0.25918  1.0000
  N   N13       1.0  0.14065  0.64275  0.26564  1.0000
  C   C109      1.0  0.13760  0.63003  0.34429  1.0000
  C   C110      1.0  0.13220  0.60369  0.34537  1.0000
  C   C111      1.0  0.12394  0.56522  0.26489  1.0000
  N   N14       1.0  0.12973  0.59028  0.26757  1.0000
  H   H65       1.0  0.12161  0.55673  0.20376  1.0000
  C   C112      1.0  0.14818  0.67830  0.16693  1.0000
  H   H66       1.0  0.15206  0.69870  0.16559  1.0000
  H   H67       1.0  0.13414  0.67574  0.12956  1.0000
  H   H68       1.0  0.16017  0.66769  0.13285  1.0000
  C   C113      1.0  0.86023  0.32548  0.33963  1.0000
  C   C114      1.0  0.86250  0.34001  0.25934  1.0000
  N   N15       1.0  0.86750  0.36536  0.26578  1.0000
  C   C115      1.0  0.87053  0.37809  0.34443  1.0000
  C   C116      1.0  0.87594  0.40442  0.34548  1.0000
  C   C117      1.0  0.88424  0.44286  0.26493  1.0000
  N   N16       1.0  0.87845  0.41780  0.26766  1.0000
  H   H69       1.0  0.88658  0.45133  0.20379  1.0000
  C   C118      1.0  0.85998  0.32981  0.16709  1.0000
  H   H70       1.0  0.85609  0.30941  0.16576  1.0000
  H   H71       1.0  0.87402  0.33235  0.12976  1.0000
  H   H72       1.0  0.84800  0.34042  0.13294  1.0000
  C   C119      1.0  0.52553  0.00405  0.25683  1.0000
  C   C120      1.0  0.54678  0.00402  0.26048  1.0000
  H   H73       1.0  0.55493  0.00402  0.20189  1.0000
  C   C121      1.0  0.45119  0.00405  0.33951  1.0000
  C   C122      1.0  0.46156  0.00413  0.25671  1.0000
  C   C123      1.0  0.48284  0.00410  0.25503  1.0000
  C   C124      1.0  0.49375  0.00411  0.17352  1.0000
  C   C125      1.0  0.51497  0.00407  0.17442  1.0000
  H   H74       1.0  0.48636  0.00414  0.11315  1.0000
  H   H75       1.0  0.52262  0.00407  0.11466  1.0000
  H   H76       1.0  0.45359  0.00417  0.19767  1.0000
  C   C126      1.0  0.02553  0.50406  0.25684  1.0000
  C   C127      1.0  0.04678  0.50403  0.26049  1.0000
  H   H77       1.0  0.05492  0.50403  0.20189  1.0000
  C   C128      1.0  0.95119  0.50406  0.33951  1.0000
  C   C129      1.0  0.96156  0.50413  0.25672  1.0000
  C   C130      1.0  0.98284  0.50410  0.25504  1.0000
  C   C131      1.0  0.99375  0.50412  0.17354  1.0000
  C   C132      1.0  0.01497  0.50408  0.17443  1.0000
  H   H78       1.0  0.98636  0.50414  0.11316  1.0000
  H   H79       1.0  0.02261  0.50408  0.11468  1.0000
  H   H80       1.0  0.95359  0.50417  0.19767  1.0000
  C   C133      1.0  0.30733  0.24819  0.33904  1.0000
  C   C134      1.0  0.29577  0.24903  0.25849  1.0000
  N   N17       1.0  0.27530  0.25138  0.26408  1.0000
  C   C135      1.0  0.26470  0.25292  0.34217  1.0000
  C   C136      1.0  0.24334  0.25500  0.34283  1.0000
  C   C137      1.0  0.21201  0.25825  0.26259  1.0000
  N   N18       1.0  0.23247  0.25594  0.26520  1.0000
  H   H81       1.0  0.20503  0.25951  0.20148  1.0000
  C   C138      1.0  0.30421  0.24703  0.16658  1.0000
  H   H82       1.0  0.32062  0.24551  0.16581  1.0000
  H   H83       1.0  0.30000  0.26409  0.12804  1.0000
  H   H84       1.0  0.29801  0.23005  0.13335  1.0000
  C   C139      1.0  0.70079  0.75989  0.33892  1.0000
  C   C140      1.0  0.71236  0.75908  0.25839  1.0000
  N   N19       1.0  0.73284  0.75674  0.26400  1.0000
  C   C141      1.0  0.74343  0.75520  0.34210  1.0000
  C   C142      1.0  0.76479  0.75313  0.34277  1.0000
  C   C143      1.0  0.79612  0.74991  0.26255  1.0000
  N   N20       1.0  0.77567  0.75220  0.26516  1.0000
  H   H85       1.0  0.80311  0.74864  0.20146  1.0000
  C   C144      1.0  0.70393  0.76109  0.16649  1.0000
  H   H86       1.0  0.68751  0.76259  0.16571  1.0000
  H   H87       1.0  0.70815  0.74404  0.12791  1.0000
  H   H88       1.0  0.71012  0.77808  0.13330  1.0000
  C   C145      1.0  0.73254  0.25215  0.25836  1.0000
  C   C146      1.0  0.71129  0.24966  0.26107  1.0000
  H   H89       1.0  0.70339  0.24833  0.20201  1.0000
  C   C147      1.0  0.80737  0.25981  0.33974  1.0000
  C   C148      1.0  0.79660  0.25907  0.25778  1.0000
  C   C149      1.0  0.77532  0.25651  0.25677  1.0000
  C   C150      1.0  0.76434  0.25579  0.17547  1.0000
  C   C151      1.0  0.74318  0.25352  0.17625  1.0000
  H   H90       1.0  0.77166  0.25687  0.11503  1.0000
  H   H91       1.0  0.73560  0.25295  0.11636  1.0000
  H   H92       1.0  0.80430  0.26097  0.19841  1.0000
  C   C152      1.0  0.27556  0.75599  0.25840  1.0000
  C   C153      1.0  0.29682  0.75846  0.26114  1.0000
  H   H93       1.0  0.30472  0.75978  0.20207  1.0000
  C   C154      1.0  0.20073  0.74837  0.33973  1.0000
  C   C155      1.0  0.21150  0.74907  0.25778  1.0000
  C   C156      1.0  0.23278  0.75163  0.25677  1.0000
  C   C157      1.0  0.24376  0.75235  0.17549  1.0000
  C   C158      1.0  0.26493  0.75462  0.17628  1.0000
  H   H94       1.0  0.23645  0.75127  0.11505  1.0000
  H   H95       1.0  0.27251  0.75518  0.11639  1.0000
  H   H96       1.0  0.20381  0.74718  0.19840  1.0000
  C   C159      1.0  0.98544  0.14114  0.34160  1.0000
  C   C160      1.0  0.00405  0.15451  0.34183  1.0000
  C   C161      1.0  0.02266  0.14114  0.34174  1.0000
  C   C162      1.0  0.02247  0.11387  0.34181  1.0000
  C   C163      1.0  0.00405  0.09996  0.34165  1.0000
  C   C164      1.0  0.98564  0.11387  0.34118  1.0000
  H   H97       1.0  0.03589  0.10404  0.34197  1.0000
  H   H98       1.0  0.97222  0.10403  0.34046  1.0000
  H   H99       1.0  0.00405  0.17426  0.34193  1.0000
  C   C165      1.0  0.02267  0.86701  0.34159  1.0000
  C   C166      1.0  0.00406  0.85365  0.34119  1.0000
  C   C167      1.0  0.98545  0.86701  0.34166  1.0000
  C   C168      1.0  0.98565  0.89428  0.34277  1.0000
  C   C169      1.0  0.00406  0.90818  0.34304  1.0000
  C   C170      1.0  0.02247  0.89428  0.34224  1.0000
  H   H100      1.0  0.97223  0.90411  0.34370  1.0000
  H   H101      1.0  0.03589  0.90412  0.34232  1.0000
  H   H102      1.0  0.00406  0.83390  0.34072  1.0000
  C   C171      1.0  0.48545  0.64115  0.34164  1.0000
  C   C172      1.0  0.50406  0.65451  0.34180  1.0000
  C   C173      1.0  0.52267  0.64113  0.34165  1.0000
  C   C174      1.0  0.52247  0.61386  0.34173  1.0000
  C   C175      1.0  0.50405  0.59996  0.34164  1.0000
  C   C176      1.0  0.48564  0.61388  0.34124  1.0000
  H   H103      1.0  0.53588  0.60403  0.34186  1.0000
  H   H104      1.0  0.47222  0.60405  0.34056  1.0000
  H   H105      1.0  0.50407  0.67426  0.34189  1.0000
  C   C177      1.0  0.52268  0.36700  0.34164  1.0000
  C   C178      1.0  0.50407  0.35363  0.34117  1.0000
  C   C179      1.0  0.48545  0.36699  0.34159  1.0000
  C   C180      1.0  0.48565  0.39426  0.34271  1.0000
  C   C181      1.0  0.50406  0.40817  0.34304  1.0000
  C   C182      1.0  0.52248  0.39427  0.34230  1.0000
  H   H106      1.0  0.47223  0.40410  0.34361  1.0000
  H   H107      1.0  0.53590  0.40411  0.34242  1.0000
  H   H108      1.0  0.50407  0.33388  0.34069  1.0000
  C   C183      1.0  0.43000  0.00406  0.34157  1.0000
  C   C184      1.0  0.41934  0.98061  0.34326  1.0000
  C   C185      1.0  0.39803  0.98043  0.34363  1.0000
  C   C186      1.0  0.38738  0.00406  0.34283  1.0000
  C   C187      1.0  0.39802  0.02769  0.34123  1.0000
  C   C188      1.0  0.41934  0.02751  0.34017  1.0000
  H   H109      1.0  0.37191  0.00406  0.34315  1.0000
  H   H110      1.0  0.42717  0.04455  0.33840  1.0000
  H   H111      1.0  0.42718  0.96356  0.34379  1.0000
  C   C189      1.0  0.57814  0.00404  0.34382  1.0000
  C   C190      1.0  0.58879  0.02749  0.34466  1.0000
  C   C191      1.0  0.61011  0.02767  0.34366  1.0000
  C   C192      1.0  0.62076  0.00405  0.34220  1.0000
  C   C193      1.0  0.61011  0.98042  0.34144  1.0000
  C   C194      1.0  0.58880  0.98059  0.34186  1.0000
  H   H112      1.0  0.63622  0.00405  0.34171  1.0000
  H   H113      1.0  0.58096  0.96354  0.34099  1.0000
  H   H114      1.0  0.58095  0.04454  0.34597  1.0000
  C   C195      1.0  0.92999  0.50407  0.34156  1.0000
  C   C196      1.0  0.91933  0.48061  0.34324  1.0000
  C   C197      1.0  0.89802  0.48044  0.34363  1.0000
  C   C198      1.0  0.88737  0.50406  0.34281  1.0000
  C   C199      1.0  0.89801  0.52770  0.34122  1.0000
  C   C200      1.0  0.91933  0.52752  0.34017  1.0000
  H   H115      1.0  0.87190  0.50406  0.34315  1.0000
  H   H116      1.0  0.92716  0.54456  0.33842  1.0000
  H   H117      1.0  0.92717  0.46357  0.34377  1.0000
  C   C201      1.0  0.07815  0.50405  0.34382  1.0000
  C   C202      1.0  0.08881  0.52750  0.34467  1.0000
  C   C203      1.0  0.11012  0.52768  0.34368  1.0000
  C   C204      1.0  0.12076  0.50404  0.34219  1.0000
  C   C205      1.0  0.11011  0.48041  0.34143  1.0000
  C   C206      1.0  0.08880  0.48059  0.34185  1.0000
  H   H118      1.0  0.13623  0.50404  0.34171  1.0000
  H   H119      1.0  0.08095  0.46355  0.34099  1.0000
  H   H120      1.0  0.08096  0.54454  0.34597  1.0000
  C   C207      1.0  0.15341  0.29909  0.34271  1.0000
  C   C208      1.0  0.13848  0.27970  0.34093  1.0000
  C   C209      1.0  0.14387  0.25335  0.34000  1.0000
  C   C210      1.0  0.16462  0.24660  0.34057  1.0000
  C   C211      1.0  0.17981  0.26584  0.34168  1.0000
  C   C212      1.0  0.17398  0.29202  0.34298  1.0000
  H   H121      1.0  0.16869  0.22757  0.34013  1.0000
  H   H122      1.0  0.18483  0.30612  0.34415  1.0000
  H   H123      1.0  0.12352  0.28484  0.34059  1.0000
  C   C213      1.0  0.85472  0.70903  0.34291  1.0000
  C   C214      1.0  0.86965  0.72842  0.34110  1.0000
  C   C215      1.0  0.86426  0.75478  0.34009  1.0000
  C   C216      1.0  0.84351  0.76153  0.34062  1.0000
  C   C217      1.0  0.82832  0.74229  0.34176  1.0000
  C   C218      1.0  0.83415  0.71611  0.34312  1.0000
  H   H124      1.0  0.83944  0.78056  0.34011  1.0000
  H   H125      1.0  0.82330  0.70201  0.34428  1.0000
  H   H126      1.0  0.88460  0.72328  0.34079  1.0000
  C   C219      1.0  0.85471  0.29912  0.34014  1.0000
  C   C220      1.0  0.86964  0.27972  0.34188  1.0000
  C   C221      1.0  0.86425  0.25337  0.34273  1.0000
  C   C222      1.0  0.84349  0.24662  0.34211  1.0000
  C   C223      1.0  0.82831  0.26586  0.34102  1.0000
  C   C224      1.0  0.83413  0.29204  0.33984  1.0000
  H   H127      1.0  0.83943  0.22759  0.34252  1.0000
  H   H128      1.0  0.82329  0.30614  0.33875  1.0000
  H   H129      1.0  0.88459  0.28487  0.34228  1.0000
  C   C225      1.0  0.15340  0.70901  0.33998  1.0000
  C   C226      1.0  0.13847  0.72840  0.34178  1.0000
  C   C227      1.0  0.14385  0.75475  0.34271  1.0000
  C   C228      1.0  0.16460  0.76152  0.34213  1.0000
  C   C229      1.0  0.17979  0.74228  0.34099  1.0000
  C   C230      1.0  0.17397  0.71610  0.33971  1.0000
  H   H130      1.0  0.16866  0.78055  0.34261  1.0000
  H   H131      1.0  0.18483  0.70201  0.33859  1.0000
  H   H132      1.0  0.12351  0.72324  0.34216  1.0000
  C   C231      1.0  0.65338  0.79912  0.34267  1.0000
  C   C232      1.0  0.63846  0.77970  0.34170  1.0000
  C   C233      1.0  0.64387  0.75336  0.34037  1.0000
  C   C234      1.0  0.66463  0.74664  0.33994  1.0000
  C   C235      1.0  0.67980  0.76591  0.34026  1.0000
  C   C236      1.0  0.67396  0.79208  0.34170  1.0000
  H   H133      1.0  0.66872  0.72762  0.33875  1.0000
  H   H134      1.0  0.68480  0.80619  0.34191  1.0000
  H   H135      1.0  0.62351  0.78484  0.34197  1.0000
  C   C237      1.0  0.35476  0.20900  0.34284  1.0000
  C   C238      1.0  0.36967  0.22843  0.34180  1.0000
  C   C239      1.0  0.36425  0.25477  0.34041  1.0000
  C   C240      1.0  0.34349  0.26147  0.33997  1.0000
  C   C241      1.0  0.32832  0.24219  0.34035  1.0000
  C   C242      1.0  0.33418  0.21603  0.34187  1.0000
  H   H136      1.0  0.33939  0.28049  0.33875  1.0000
  H   H137      1.0  0.32335  0.20191  0.34211  1.0000
  H   H138      1.0  0.38463  0.22331  0.34205  1.0000
  C   C243      1.0  0.35474  0.79913  0.34019  1.0000
  C   C244      1.0  0.36965  0.77972  0.34115  1.0000
  C   C245      1.0  0.36423  0.75337  0.34240  1.0000
  C   C246      1.0  0.34348  0.74666  0.34277  1.0000
  C   C247      1.0  0.32831  0.76593  0.34244  1.0000
  C   C248      1.0  0.33416  0.79210  0.34107  1.0000
  H   H139      1.0  0.33938  0.72764  0.34392  1.0000
  H   H140      1.0  0.32332  0.80622  0.34092  1.0000
  H   H141      1.0  0.38461  0.78484  0.34099  1.0000
  C   C249      1.0  0.65335  0.20900  0.34005  1.0000
  C   C250      1.0  0.63845  0.22843  0.34109  1.0000
  C   C251      1.0  0.64388  0.25477  0.34240  1.0000
  C   C252      1.0  0.66464  0.26147  0.34279  1.0000
  C   C253      1.0  0.67980  0.24218  0.34241  1.0000
  C   C254      1.0  0.67393  0.21602  0.34096  1.0000
  H   H142      1.0  0.66875  0.28048  0.34398  1.0000
  H   H143      1.0  0.68476  0.20189  0.34076  1.0000
  H   H144      1.0  0.62349  0.22332  0.34092  1.0000
  C   C255      1.0  0.00406  0.93571  0.34438  1.0000
  C   C256      1.0  0.00406  0.95048  0.42496  1.0000
  N   N21       1.0  0.00406  0.97673  0.41956  1.0000
  C   C257      1.0  0.00406  0.99045  0.34166  1.0000
  C   C258      1.0  0.00406  0.01782  0.34107  1.0000
  C   C259      1.0  0.00408  0.05802  0.42104  1.0000
  N   N22       1.0  0.00408  0.03180  0.41854  1.0000
  H   H145      1.0  0.00410  0.06702  0.48211  1.0000
  C   C260      1.0  0.00405  0.93955  0.51686  1.0000
  H   H146      1.0  0.00406  0.91856  0.51751  1.0000
  H   H147      1.0  0.99065  0.94615  0.55281  1.0000
  H   H148      1.0  0.01745  0.94616  0.55284  1.0000
  C   C261      1.0  0.50406  0.43570  0.34439  1.0000
  C   C262      1.0  0.50406  0.45047  0.42497  1.0000
  N   N23       1.0  0.50406  0.47671  0.41958  1.0000
  C   C263      1.0  0.50406  0.49044  0.34168  1.0000
  C   C264      1.0  0.50405  0.51781  0.34108  1.0000
  C   C265      1.0  0.50407  0.55802  0.42104  1.0000
  N   N24       1.0  0.50407  0.53180  0.41856  1.0000
  H   H149      1.0  0.50408  0.56702  0.48211  1.0000
  C   C266      1.0  0.50405  0.43954  0.51687  1.0000
  H   H150      1.0  0.50406  0.41855  0.51751  1.0000
  H   H151      1.0  0.49065  0.44613  0.55281  1.0000
  H   H152      1.0  0.51745  0.44615  0.55286  1.0000
  C   C267      1.0  0.10248  0.21042  0.42429  1.0000
  C   C268      1.0  0.11960  0.22670  0.42155  1.0000
  H   H153      1.0  0.12555  0.23348  0.48056  1.0000
  C   C269      1.0  0.04112  0.15519  0.34294  1.0000
  C   C270      1.0  0.04980  0.16337  0.42488  1.0000
  C   C271      1.0  0.06746  0.17873  0.42588  1.0000
  C   C272      1.0  0.07620  0.18727  0.50715  1.0000
  C   C273      1.0  0.09352  0.20295  0.50637  1.0000
  H   H154      1.0  0.06993  0.18230  0.56757  1.0000
  H   H155      1.0  0.09944  0.20902  0.56625  1.0000
  H   H156      1.0  0.04304  0.15834  0.48428  1.0000
  C   C274      1.0  0.90561  0.79778  0.42434  1.0000
  C   C275      1.0  0.88850  0.78149  0.42164  1.0000
  H   H157      1.0  0.88253  0.77475  0.48066  1.0000
  C   C276      1.0  0.96699  0.85296  0.34287  1.0000
  C   C277      1.0  0.95827  0.84488  0.42484  1.0000
  C   C278      1.0  0.94061  0.82950  0.42586  1.0000
  C   C279      1.0  0.93185  0.82102  0.50716  1.0000
  C   C280      1.0  0.91454  0.80533  0.50641  1.0000
  H   H158      1.0  0.93809  0.82604  0.56758  1.0000
  H   H159      1.0  0.90860  0.79929  0.56630  1.0000
  H   H160      1.0  0.96501  0.84997  0.48424  1.0000
  C   C281      1.0  0.87987  0.23448  0.34382  1.0000
  C   C282      1.0  0.88906  0.22551  0.42440  1.0000
  N   N25       1.0  0.90553  0.20983  0.41888  1.0000
  C   C283      1.0  0.91423  0.20187  0.34085  1.0000
  C   C284      1.0  0.93169  0.18603  0.34029  1.0000
  C   C285      1.0  0.95745  0.16306  0.42065  1.0000
  N   N26       1.0  0.94053  0.17790  0.41795  1.0000
  H   H161      1.0  0.96329  0.15805  0.48179  1.0000
  C   C286      1.0  0.88239  0.23235  0.51634  1.0000
  H   H162      1.0  0.86908  0.24470  0.51705  1.0000
  H   H163      1.0  0.89457  0.24241  0.55114  1.0000
  H   H164      1.0  0.87877  0.21481  0.55342  1.0000
  C   C287      1.0  0.12821  0.77364  0.34382  1.0000
  C   C288      1.0  0.11907  0.78267  0.42440  1.0000
  N   N27       1.0  0.10260  0.79836  0.41887  1.0000
  C   C289      1.0  0.09388  0.80627  0.34084  1.0000
  C   C290      1.0  0.07642  0.82213  0.34029  1.0000
  C   C291      1.0  0.05071  0.84520  0.42063  1.0000
  N   N28       1.0  0.06763  0.83034  0.41793  1.0000
  H   H165      1.0  0.04491  0.85027  0.48177  1.0000
  C   C292      1.0  0.12576  0.77586  0.51634  1.0000
  H   H166      1.0  0.13906  0.76349  0.51703  1.0000
  H   H167      1.0  0.11358  0.76584  0.55126  1.0000
  H   H168      1.0  0.12940  0.79341  0.55328  1.0000
  C   C293      1.0  0.60247  0.71042  0.42449  1.0000
  C   C294      1.0  0.61958  0.72672  0.42186  1.0000
  H   H169      1.0  0.62549  0.73356  0.48088  1.0000
  C   C295      1.0  0.54114  0.65517  0.34289  1.0000
  C   C296      1.0  0.54979  0.66338  0.42485  1.0000
  C   C297      1.0  0.56746  0.67874  0.42591  1.0000
  C   C298      1.0  0.57615  0.68731  0.50722  1.0000
  C   C299      1.0  0.59348  0.70299  0.50652  1.0000
  H   H170      1.0  0.56985  0.68238  0.56760  1.0000
  H   H171      1.0  0.59936  0.70910  0.56642  1.0000
  H   H172      1.0  0.54299  0.65840  0.48422  1.0000
  C   C300      1.0  0.40564  0.29775  0.42445  1.0000
  C   C301      1.0  0.38853  0.28146  0.42182  1.0000
  H   H173      1.0  0.38260  0.27466  0.48086  1.0000
  C   C302      1.0  0.46699  0.35294  0.34281  1.0000
  C   C303      1.0  0.45830  0.34482  0.42479  1.0000
  C   C304      1.0  0.44064  0.32945  0.42586  1.0000
  C   C305      1.0  0.43191  0.32093  0.50718  1.0000
  C   C306      1.0  0.41460  0.30524  0.50649  1.0000
  H   H174      1.0  0.43819  0.32591  0.56757  1.0000
  H   H175      1.0  0.40870  0.29916  0.56639  1.0000
  H   H176      1.0  0.46507  0.34987  0.48417  1.0000
  C   C307      1.0  0.37984  0.73445  0.34358  1.0000
  C   C308      1.0  0.38899  0.72544  0.42419  1.0000
  N   N29       1.0  0.40547  0.70977  0.41874  1.0000
  C   C309      1.0  0.41421  0.70186  0.34075  1.0000
  C   C310      1.0  0.43168  0.68602  0.34024  1.0000
  C   C311      1.0  0.45742  0.66302  0.42064  1.0000
  N   N30       1.0  0.44048  0.67784  0.41790  1.0000
  H   H177      1.0  0.46323  0.65797  0.48179  1.0000
  C   C312      1.0  0.38227  0.73225  0.51610  1.0000
  H   H178      1.0  0.36896  0.74459  0.51674  1.0000
  H   H179      1.0  0.39443  0.74230  0.55106  1.0000
  H   H180      1.0  0.37864  0.71470  0.55306  1.0000
  C   C313      1.0  0.62829  0.27370  0.34359  1.0000
  C   C314      1.0  0.61917  0.28277  0.42420  1.0000
  N   N31       1.0  0.60268  0.29844  0.41874  1.0000
  C   C315      1.0  0.59392  0.30631  0.34076  1.0000
  C   C316      1.0  0.57646  0.32216  0.34025  1.0000
  C   C317      1.0  0.55077  0.34525  0.42063  1.0000
  N   N32       1.0  0.56769  0.33041  0.41790  1.0000
  H   H181      1.0  0.54499  0.35036  0.48179  1.0000
  C   C318      1.0  0.62590  0.27599  0.51611  1.0000
  H   H182      1.0  0.63921  0.26363  0.51674  1.0000
  H   H183      1.0  0.61375  0.26597  0.55119  1.0000
  H   H184      1.0  0.62956  0.29356  0.55295  1.0000
  C   C319      1.0  0.36031  0.18266  0.34359  1.0000
  C   C320      1.0  0.36258  0.16819  0.42403  1.0000
  N   N33       1.0  0.36757  0.14283  0.41782  1.0000
  C   C321      1.0  0.37058  0.13004  0.33930  1.0000
  C   C322      1.0  0.37597  0.10370  0.33851  1.0000
  C   C323      1.0  0.38424  0.06531  0.41942  1.0000
  N   N34       1.0  0.37847  0.09038  0.41645  1.0000
  H   H185      1.0  0.38659  0.05690  0.48064  1.0000
  C   C324      1.0  0.36004  0.17847  0.51618  1.0000
  H   H186      1.0  0.35615  0.19886  0.51730  1.0000
  H   H187      1.0  0.37409  0.17597  0.55354  1.0000
  H   H188      1.0  0.34807  0.16788  0.55040  1.0000
  C   C325      1.0  0.64785  0.82547  0.34342  1.0000
  C   C326      1.0  0.64555  0.83992  0.42389  1.0000
  N   N35       1.0  0.64056  0.86527  0.41772  1.0000
  C   C327      1.0  0.63755  0.87807  0.33921  1.0000
  C   C328      1.0  0.63216  0.90441  0.33847  1.0000
  C   C329      1.0  0.62386  0.94277  0.41950  1.0000
  N   N36       1.0  0.62963  0.91770  0.41646  1.0000
  H   H189      1.0  0.62147  0.95116  0.48075  1.0000
  C   C330      1.0  0.64808  0.82963  0.51603  1.0000
  H   H190      1.0  0.65199  0.80924  0.51712  1.0000
  H   H191      1.0  0.63402  0.83210  0.55335  1.0000
  H   H192      1.0  0.66004  0.84023  0.55031  1.0000
  C   C331      1.0  0.63956  0.14380  0.42631  1.0000
  C   C332      1.0  0.64478  0.17013  0.42278  1.0000
  H   H193      1.0  0.64637  0.18027  0.48146  1.0000
  C   C333      1.0  0.62004  0.05175  0.34545  1.0000
  C   C334      1.0  0.62237  0.06504  0.42759  1.0000
  C   C335      1.0  0.62857  0.09106  0.42868  1.0000
  C   C336      1.0  0.63067  0.10487  0.50985  1.0000
  C   C337      1.0  0.63621  0.13101  0.50870  1.0000
  H   H194      1.0  0.62806  0.09609  0.57029  1.0000
  H   H195      1.0  0.63754  0.14067  0.56834  1.0000
  H   H196      1.0  0.61884  0.05598  0.48673  1.0000
  C   C338      1.0  0.36850  0.86435  0.42646  1.0000
  C   C339      1.0  0.36328  0.83802  0.42294  1.0000
  H   H197      1.0  0.36167  0.82788  0.48161  1.0000
  C   C340      1.0  0.38810  0.95635  0.34550  1.0000
  C   C341      1.0  0.38573  0.94310  0.42768  1.0000
  C   C342      1.0  0.37952  0.91708  0.42880  1.0000
  C   C343      1.0  0.37738  0.90328  0.50998  1.0000
  C   C344      1.0  0.37184  0.87715  0.50884  1.0000
  H   H198      1.0  0.37998  0.91207  0.57042  1.0000
  H   H199      1.0  0.37048  0.86750  0.56848  1.0000
  H   H200      1.0  0.38924  0.95218  0.48681  1.0000
  C   C345      1.0  0.86024  0.68267  0.34366  1.0000
  C   C346      1.0  0.86248  0.66819  0.42409  1.0000
  N   N37       1.0  0.86749  0.64284  0.41788  1.0000
  C   C347      1.0  0.87053  0.63005  0.33936  1.0000
  C   C348      1.0  0.87594  0.60372  0.33856  1.0000
  C   C349      1.0  0.88420  0.56531  0.41943  1.0000
  N   N38       1.0  0.87841  0.59038  0.41648  1.0000
  H   H201      1.0  0.88653  0.55689  0.48066  1.0000
  C   C350      1.0  0.85994  0.67846  0.51624  1.0000
  H   H202      1.0  0.85606  0.69886  0.51738  1.0000
  H   H203      1.0  0.87398  0.67594  0.55366  1.0000
  H   H204      1.0  0.84795  0.66788  0.55041  1.0000
  C   C351      1.0  0.14788  0.32545  0.34348  1.0000
  C   C352      1.0  0.14563  0.33992  0.42393  1.0000
  N   N39       1.0  0.14062  0.36528  0.41776  1.0000
  C   C353      1.0  0.13759  0.37807  0.33926  1.0000
  C   C354      1.0  0.13218  0.40441  0.33851  1.0000
  C   C355      1.0  0.12389  0.44277  0.41952  1.0000
  N   N40       1.0  0.12968  0.41772  0.41649  1.0000
  H   H205      1.0  0.12155  0.45118  0.48077  1.0000
  C   C356      1.0  0.14816  0.32964  0.51607  1.0000
  H   H206      1.0  0.15204  0.30924  0.51719  1.0000
  H   H207      1.0  0.13412  0.33215  0.55346  1.0000
  H   H208      1.0  0.16015  0.34022  0.55028  1.0000
  C   C357      1.0  0.13961  0.64380  0.42624  1.0000
  C   C358      1.0  0.14482  0.67013  0.42270  1.0000
  H   H209      1.0  0.14638  0.68029  0.48136  1.0000
  C   C359      1.0  0.12005  0.55175  0.34544  1.0000
  C   C360      1.0  0.12236  0.56505  0.42758  1.0000
  C   C361      1.0  0.12858  0.59107  0.42864  1.0000
  C   C362      1.0  0.13066  0.60490  0.50979  1.0000
  C   C363      1.0  0.13621  0.63103  0.50862  1.0000
  H   H210      1.0  0.12800  0.59613  0.57023  1.0000
  H   H211      1.0  0.13751  0.64070  0.56824  1.0000
  H   H212      1.0  0.11880  0.55601  0.48671  1.0000
  C   C364      1.0  0.86850  0.36433  0.42639  1.0000
  C   C365      1.0  0.86328  0.33800  0.42286  1.0000
  H   H213      1.0  0.86170  0.32785  0.48154  1.0000
  C   C366      1.0  0.88809  0.45636  0.34546  1.0000
  C   C367      1.0  0.88575  0.44308  0.42763  1.0000
  C   C368      1.0  0.87953  0.41706  0.42875  1.0000
  C   C369      1.0  0.87743  0.40325  0.50991  1.0000
  C   C370      1.0  0.87187  0.37712  0.50876  1.0000
  H   H214      1.0  0.88006  0.41203  0.57034  1.0000
  H   H215      1.0  0.87055  0.36746  0.56840  1.0000
  H   H216      1.0  0.88928  0.45215  0.48676  1.0000
  C   C371      1.0  0.55690  0.00403  0.34405  1.0000
  C   C372      1.0  0.54539  0.00406  0.42454  1.0000
  N   N41       1.0  0.52494  0.00405  0.41791  1.0000
  C   C373      1.0  0.51466  0.00405  0.33898  1.0000
  C   C374      1.0  0.49339  0.00405  0.33823  1.0000
  C   C375      1.0  0.46241  0.00397  0.42001  1.0000
  N   N42       1.0  0.48284  0.00399  0.41662  1.0000
  H   H217      1.0  0.45542  0.00393  0.48127  1.0000
  C   C376      1.0  0.55375  0.00406  0.51687  1.0000
  H   H218      1.0  0.57020  0.00401  0.51825  1.0000
  H   H219      1.0  0.54845  0.98700  0.55266  1.0000
  H   H220      1.0  0.54851  0.02117  0.55254  1.0000
  C   C377      1.0  0.05690  0.50405  0.34405  1.0000
  C   C378      1.0  0.04539  0.50407  0.42455  1.0000
  N   N43       1.0  0.02494  0.50407  0.41792  1.0000
  C   C379      1.0  0.01465  0.50406  0.33900  1.0000
  C   C380      1.0  0.99339  0.50406  0.33824  1.0000
  C   C381      1.0  0.96241  0.50398  0.42001  1.0000
  N   N44       1.0  0.98284  0.50400  0.41663  1.0000
  H   H221      1.0  0.95541  0.50394  0.48127  1.0000
  C   C382      1.0  0.05375  0.50407  0.51687  1.0000
  H   H222      1.0  0.07021  0.50402  0.51825  1.0000
  H   H223      1.0  0.04846  0.48701  0.55266  1.0000
  H   H224      1.0  0.04852  0.52118  0.55255  1.0000
  C   C383      1.0  0.27558  0.25214  0.42440  1.0000
  C   C384      1.0  0.29683  0.24965  0.42168  1.0000
  H   H225      1.0  0.30473  0.24834  0.48074  1.0000
  C   C385      1.0  0.20075  0.25978  0.34304  1.0000
  C   C386      1.0  0.21152  0.25906  0.42500  1.0000
  C   C387      1.0  0.23280  0.25650  0.42600  1.0000
  C   C388      1.0  0.24378  0.25578  0.50730  1.0000
  C   C389      1.0  0.26495  0.25351  0.50652  1.0000
  H   H226      1.0  0.23646  0.25686  0.56774  1.0000
  H   H227      1.0  0.27252  0.25294  0.56641  1.0000
  H   H228      1.0  0.20382  0.26095  0.48436  1.0000
  C   C390      1.0  0.73255  0.75598  0.42432  1.0000
  C   C391      1.0  0.71129  0.75845  0.42158  1.0000
  H   H229      1.0  0.70339  0.75976  0.48064  1.0000
  C   C392      1.0  0.80738  0.74835  0.34302  1.0000
  C   C393      1.0  0.79661  0.74906  0.42497  1.0000
  C   C394      1.0  0.77533  0.75163  0.42596  1.0000
  C   C395      1.0  0.76435  0.75234  0.50725  1.0000
  C   C396      1.0  0.74318  0.75461  0.50645  1.0000
  H   H230      1.0  0.77166  0.75126  0.56769  1.0000
  H   H231      1.0  0.73560  0.75517  0.56633  1.0000
  H   H232      1.0  0.80431  0.74718  0.48435  1.0000
  C   C397      1.0  0.70079  0.24816  0.34373  1.0000
  C   C398      1.0  0.71235  0.24903  0.42428  1.0000
  N   N45       1.0  0.73282  0.25139  0.41869  1.0000
  C   C399      1.0  0.74342  0.25293  0.34060  1.0000
  C   C400      1.0  0.76478  0.25501  0.33994  1.0000
  C   C401      1.0  0.79611  0.25824  0.42020  1.0000
  N   N46       1.0  0.77565  0.25594  0.41758  1.0000
  H   H233      1.0  0.80309  0.25952  0.48130  1.0000
  C   C402      1.0  0.70391  0.24704  0.51619  1.0000
  H   H234      1.0  0.68749  0.24549  0.51696  1.0000
  H   H235      1.0  0.70810  0.26410  0.55471  1.0000
  H   H236      1.0  0.71012  0.23006  0.54945  1.0000
  C   C403      1.0  0.30732  0.75992  0.34379  1.0000
  C   C404      1.0  0.29575  0.75910  0.42432  1.0000
  N   N47       1.0  0.27528  0.75675  0.41872  1.0000
  C   C405      1.0  0.26468  0.75521  0.34063  1.0000
  C   C406      1.0  0.24332  0.75313  0.33996  1.0000
  C   C407      1.0  0.21199  0.74990  0.42018  1.0000
  N   N48       1.0  0.23245  0.75219  0.41758  1.0000
  H   H237      1.0  0.20501  0.74862  0.48128  1.0000
  C   C408      1.0  0.30419  0.76111  0.51622  1.0000
  H   H238      1.0  0.32060  0.76263  0.51700  1.0000
  H   H239      1.0  0.29997  0.74406  0.55480  1.0000
  H   H240      1.0  0.29799  0.77811  0.54942  1.0000
