data_image0
_chemical_formula_structural       C15HNO2CHC3HNO2CHC3HNO2CHC3HNO2CHC3HNO2CHC3HNO2CHC3HNO2CHC3HNO2CHC3HNO2CHC3HNO2CHC3HNO2CHC3HNO2CHC3HNO2CHC3HNO2CHC3HNO2CHC3HNO2CHC3HNO2CHC3HNO2CHC3HNO2CHC3HNO2CHC3HNO2CHC3HNO2CHC3HNO2CHC3HNO2CHC3HNO2CHC3HNO2CHC3HNO2CHC3HNO2CHC3HNO2CHC3HNO2CHNCNCN5CNCN5CNCN5CNCN4CNCNCN4CNCNCN4CNCNCN4CNCNCN4CNCNCN4CNCNCN4CNCNCN4CNCNCN5CNCN5CNCN5CNCN5CNCN5CNCN5CNCN5CNCN5CNCN4C3HNO2CHC3HNO2CHC3HNO2CHC3HNO2CHC3HNO2CHC3HNO2CHC3HNO2CHC3HNO2CHC3HNO2CHC3HNO2CHC3HNO2CHC3HNO2CHC3HNO2CHC3HNO2CHC3HNO2CHC3HNO2CHC3HNO2CHC3HNO2CHC3HNO2CHC3HNO2CHC3HNO2CHC3HNO2CHC3HNO2CHC3HNO2CHC3HNO2CHC3HNO2CHC3HNO2CHC3HNO2CHC3HNO2CHC3HNO2CH
_chemical_formula_sum              "C300 H120 N180 O120"
_cell_length_a       66.7572
_cell_length_b       66.7572
_cell_length_c       14.6189
_cell_angle_alpha    90
_cell_angle_beta     90
_cell_angle_gamma    90

_space_group_name_H-M_alt    "P 1"
_space_group_IT_number       1

loop_
  _space_group_symop_operation_xyz
  'x, y, z'

loop_
  _atom_site_type_symbol
  _atom_site_label
  _atom_site_symmetry_multiplicity
  _atom_site_fract_x
  _atom_site_fract_y
  _atom_site_fract_z
  _atom_site_occupancy
  C   C1        1.0  0.25103  0.01780  0.36276  1.0000
  C   C2        1.0  0.77513  0.00832  0.36189  1.0000
  C   C3        1.0  0.00836  0.25104  0.36324  1.0000
  C   C4        1.0  0.01774  0.77512  0.36213  1.0000
  C   C5        1.0  0.36886  0.71407  0.35720  1.0000
  C   C6        1.0  0.65725  0.31206  0.35631  1.0000
  C   C7        1.0  0.71400  0.65717  0.35698  1.0000
  C   C8        1.0  0.31215  0.36893  0.35735  1.0000
  C   C9        1.0  0.45886  0.06500  0.35880  1.0000
  C   C10       1.0  0.56728  0.96117  0.35544  1.0000
  C   C11       1.0  0.96108  0.45886  0.35867  1.0000
  C   C12       1.0  0.06491  0.56728  0.35547  1.0000
  C   C13       1.0  0.37417  0.05818  0.35948  1.0000
  C   C14       1.0  0.36257  0.05177  0.28323  1.0000
  C   C15       1.0  0.34140  0.05068  0.29059  1.0000
  H   H1        1.0  0.33321  0.04637  0.23462  1.0000
  N   N1        1.0  0.37229  0.04702  0.19976  1.0000
  O   O1        1.0  0.36674  0.05840  0.13615  1.0000
  O   O2        1.0  0.36911  0.02919  0.17641  1.0000
  C   C16       1.0  0.39502  0.05800  0.35448  1.0000
  H   H2        1.0  0.40177  0.04508  0.34019  1.0000
  C   C17       1.0  0.65200  0.96789  0.35582  1.0000
  C   C18       1.0  0.66366  0.97435  0.27987  1.0000
  C   C19       1.0  0.68482  0.97546  0.28765  1.0000
  H   H3        1.0  0.69305  0.97980  0.23189  1.0000
  N   N2        1.0  0.65401  0.97915  0.19629  1.0000
  O   O3        1.0  0.65963  0.96781  0.13262  1.0000
  O   O4        1.0  0.65719  0.99700  0.17326  1.0000
  C   C20       1.0  0.63114  0.96807  0.35045  1.0000
  H   H4        1.0  0.62442  0.98099  0.33586  1.0000
  C   C21       1.0  0.96793  0.37417  0.35953  1.0000
  C   C22       1.0  0.97432  0.36257  0.28324  1.0000
  C   C23       1.0  0.97543  0.34140  0.29062  1.0000
  H   H5        1.0  0.97971  0.33322  0.23461  1.0000
  N   N3        1.0  0.97903  0.37229  0.19971  1.0000
  O   O5        1.0  0.96763  0.36673  0.13621  1.0000
  O   O6        1.0  0.99686  0.36913  0.17622  1.0000
  C   C24       1.0  0.96811  0.39503  0.35452  1.0000
  H   H6        1.0  0.98102  0.40178  0.34001  1.0000
  C   C25       1.0  0.05820  0.65200  0.35587  1.0000
  C   C26       1.0  0.05174  0.66367  0.27993  1.0000
  C   C27       1.0  0.05063  0.68483  0.28772  1.0000
  H   H7        1.0  0.04629  0.69306  0.23195  1.0000
  N   N4        1.0  0.04694  0.65402  0.19633  1.0000
  O   O7        1.0  0.05828  0.65965  0.13268  1.0000
  O   O8        1.0  0.02909  0.65719  0.17330  1.0000
  C   C28       1.0  0.05801  0.63115  0.35051  1.0000
  H   H8        1.0  0.04509  0.62442  0.33593  1.0000
  C   C29       1.0  0.19521  0.55649  0.35040  1.0000
  C   C30       1.0  0.18344  0.55994  0.27174  1.0000
  C   C31       1.0  0.16285  0.56495  0.27800  1.0000
  H   H9        1.0  0.19012  0.55987  0.20855  1.0000
  N   N5        1.0  0.15158  0.56930  0.19817  1.0000
  O   O9        1.0  0.15870  0.58399  0.15527  1.0000
  O   O10       1.0  0.15093  0.55449  0.14520  1.0000
  C   C32       1.0  0.21592  0.55602  0.34288  1.0000
  H   H10       1.0  0.22250  0.56818  0.31721  1.0000
  C   C33       1.0  0.83087  0.46962  0.34651  1.0000
  C   C34       1.0  0.84271  0.46599  0.26823  1.0000
  C   C35       1.0  0.86329  0.46099  0.27512  1.0000
  H   H11       1.0  0.83610  0.46596  0.20489  1.0000
  N   N6        1.0  0.87465  0.45647  0.19575  1.0000
  O   O11       1.0  0.86758  0.44170  0.15334  1.0000
  O   O12       1.0  0.87535  0.47118  0.14215  1.0000
  C   C36       1.0  0.81017  0.47024  0.33851  1.0000
  H   H12       1.0  0.80356  0.45835  0.31049  1.0000
  C   C37       1.0  0.55651  0.83087  0.35033  1.0000
  C   C38       1.0  0.55993  0.84266  0.27174  1.0000
  C   C39       1.0  0.56491  0.86326  0.27811  1.0000
  H   H13       1.0  0.55982  0.83601  0.20849  1.0000
  N   N7        1.0  0.56922  0.87457  0.19834  1.0000
  O   O13       1.0  0.58390  0.86749  0.15527  1.0000
  O   O14       1.0  0.55438  0.87522  0.14549  1.0000
  C   C40       1.0  0.55602  0.81017  0.34278  1.0000
  H   H14       1.0  0.56815  0.80357  0.31693  1.0000
  C   C41       1.0  0.46967  0.19522  0.34674  1.0000
  C   C42       1.0  0.46601  0.18342  0.26839  1.0000
  C   C43       1.0  0.46100  0.16284  0.27517  1.0000
  H   H15       1.0  0.46593  0.19005  0.20510  1.0000
  N   N8        1.0  0.45643  0.15151  0.19575  1.0000
  O   O15       1.0  0.44165  0.15861  0.15355  1.0000
  O   O16       1.0  0.47111  0.15082  0.14199  1.0000
  C   C44       1.0  0.47027  0.21593  0.33884  1.0000
  H   H16       1.0  0.45835  0.22254  0.31110  1.0000
  C   C45       1.0  0.22576  0.10413  0.35323  1.0000
  C   C46       1.0  0.22404  0.11759  0.27898  1.0000
  C   C47       1.0  0.21219  0.13524  0.28380  1.0000
  H   H17       1.0  0.23153  0.11455  0.21935  1.0000
  N   N9        1.0  0.21040  0.14803  0.20683  1.0000
  O   O17       1.0  0.22713  0.15483  0.18246  1.0000
  O   O18       1.0  0.20258  0.13909  0.14015  1.0000
  C   C48       1.0  0.23922  0.08811  0.34847  1.0000
  H   H18       1.0  0.25299  0.09134  0.32686  1.0000
  C   C49       1.0  0.80034  0.92196  0.35229  1.0000
  C   C50       1.0  0.80203  0.90845  0.27822  1.0000
  C   C51       1.0  0.81388  0.89080  0.28321  1.0000
  H   H19       1.0  0.79450  0.91145  0.21862  1.0000
  N   N10       1.0  0.81562  0.87795  0.20642  1.0000
  O   O19       1.0  0.79888  0.87113  0.18239  1.0000
  O   O20       1.0  0.82340  0.88684  0.13948  1.0000
  C   C52       1.0  0.78693  0.93802  0.34732  1.0000
  H   H20       1.0  0.77318  0.93483  0.32524  1.0000
  C   C53       1.0  0.92202  0.22578  0.35333  1.0000
  C   C54       1.0  0.90856  0.22405  0.27910  1.0000
  C   C55       1.0  0.89092  0.21218  0.28393  1.0000
  H   H21       1.0  0.91159  0.23157  0.21950  1.0000
  N   N11       1.0  0.87813  0.21040  0.20697  1.0000
  O   O21       1.0  0.87131  0.22713  0.18272  1.0000
  O   O22       1.0  0.88706  0.20261  0.14022  1.0000
  C   C56       1.0  0.93806  0.23922  0.34856  1.0000
  H   H22       1.0  0.93485  0.25298  0.32672  1.0000
  C   C57       1.0  0.10408  0.80040  0.35255  1.0000
  C   C58       1.0  0.11759  0.80209  0.27849  1.0000
  C   C59       1.0  0.13524  0.81395  0.28347  1.0000
  H   H23       1.0  0.11460  0.79455  0.21890  1.0000
  N   N12       1.0  0.14808  0.81569  0.20668  1.0000
  O   O23       1.0  0.15491  0.79895  0.18266  1.0000
  O   O24       1.0  0.13920  0.82346  0.13974  1.0000
  C   C60       1.0  0.08803  0.78697  0.34756  1.0000
  H   H24       1.0  0.09124  0.77322  0.32550  1.0000
  C   C61       1.0  0.32414  0.64013  0.35380  1.0000
  C   C62       1.0  0.32222  0.62687  0.27789  1.0000
  C   C63       1.0  0.31049  0.60915  0.28536  1.0000
  H   H25       1.0  0.30889  0.60012  0.22912  1.0000
  N   N13       1.0  0.33161  0.63190  0.19401  1.0000
  O   O25       1.0  0.31899  0.63426  0.13111  1.0000
  O   O26       1.0  0.34396  0.61871  0.16983  1.0000
  C   C64       1.0  0.33684  0.65690  0.34860  1.0000
  H   H26       1.0  0.35111  0.65459  0.33202  1.0000
  C   C65       1.0  0.70196  0.38600  0.35275  1.0000
  C   C66       1.0  0.70385  0.39927  0.27686  1.0000
  C   C67       1.0  0.71559  0.41700  0.28427  1.0000
  H   H27       1.0  0.71715  0.42603  0.22805  1.0000
  N   N14       1.0  0.69440  0.39427  0.19307  1.0000
  O   O27       1.0  0.70698  0.39192  0.13001  1.0000
  O   O28       1.0  0.68205  0.40747  0.16911  1.0000
  C   C68       1.0  0.68926  0.36923  0.34759  1.0000
  H   H28       1.0  0.67499  0.37153  0.33091  1.0000
  C   C69       1.0  0.64007  0.70191  0.35403  1.0000
  C   C70       1.0  0.62679  0.70382  0.27817  1.0000
  C   C71       1.0  0.60907  0.71555  0.28568  1.0000
  H   H29       1.0  0.60004  0.71715  0.22946  1.0000
  N   N15       1.0  0.63179  0.69440  0.19430  1.0000
  O   O29       1.0  0.63414  0.70701  0.13133  1.0000
  O   O30       1.0  0.61860  0.68205  0.17027  1.0000
  C   C72       1.0  0.65683  0.68920  0.34879  1.0000
  H   H30       1.0  0.65452  0.67494  0.33199  1.0000
  C   C73       1.0  0.38608  0.32417  0.35354  1.0000
  C   C74       1.0  0.39935  0.32231  0.27763  1.0000
  C   C75       1.0  0.41707  0.31057  0.28495  1.0000
  H   H31       1.0  0.42610  0.30902  0.22871  1.0000
  N   N16       1.0  0.39435  0.33179  0.19391  1.0000
  O   O31       1.0  0.39199  0.31922  0.13077  1.0000
  O   O32       1.0  0.40754  0.34415  0.17002  1.0000
  C   C76       1.0  0.36932  0.33690  0.34849  1.0000
  H   H32       1.0  0.37163  0.35116  0.33185  1.0000
  C   C77       1.0  0.23136  0.92148  0.36278  1.0000
  C   C78       1.0  0.23319  0.93236  0.27943  1.0000
  C   C79       1.0  0.23809  0.95311  0.28086  1.0000
  H   H33       1.0  0.24054  0.96032  0.21995  1.0000
  N   N17       1.0  0.23112  0.92203  0.19522  1.0000
  O   O33       1.0  0.21714  0.92924  0.14797  1.0000
  O   O34       1.0  0.24700  0.92259  0.14905  1.0000
  C   C80       1.0  0.23141  0.90045  0.36191  1.0000
  H   H34       1.0  0.24481  0.89393  0.35973  1.0000
  C   C81       1.0  0.79477  0.10464  0.36204  1.0000
  C   C82       1.0  0.79281  0.09385  0.27852  1.0000
  C   C83       1.0  0.78792  0.07310  0.27973  1.0000
  H   H35       1.0  0.78538  0.06595  0.21875  1.0000
  N   N18       1.0  0.79475  0.10425  0.19441  1.0000
  O   O35       1.0  0.80866  0.09709  0.14658  1.0000
  O   O36       1.0  0.77880  0.10372  0.14874  1.0000
  C   C84       1.0  0.79473  0.12568  0.36136  1.0000
  H   H36       1.0  0.78133  0.13219  0.35904  1.0000
  C   C85       1.0  0.10471  0.23140  0.36295  1.0000
  C   C86       1.0  0.09392  0.23344  0.27942  1.0000
  C   C87       1.0  0.07317  0.23831  0.28056  1.0000
  H   H37       1.0  0.06606  0.24092  0.21956  1.0000
  N   N19       1.0  0.10435  0.23158  0.19534  1.0000
  O   O37       1.0  0.09721  0.21772  0.14718  1.0000
  O   O38       1.0  0.10383  0.24757  0.14999  1.0000
  C   C88       1.0  0.12574  0.23146  0.36241  1.0000
  H   H38       1.0  0.13224  0.24486  0.36066  1.0000
  C   C89       1.0  0.92139  0.79472  0.36278  1.0000
  C   C90       1.0  0.93219  0.79284  0.27921  1.0000
  C   C91       1.0  0.95295  0.78797  0.28021  1.0000
  H   H39       1.0  0.96007  0.78547  0.21915  1.0000
  N   N20       1.0  0.92177  0.79484  0.19518  1.0000
  O   O39       1.0  0.92891  0.80879  0.14756  1.0000
  O   O40       1.0  0.92230  0.77893  0.14924  1.0000
  C   C92       1.0  0.90036  0.79464  0.36224  1.0000
  H   H40       1.0  0.89386  0.78124  0.36069  1.0000
  C   C93       1.0  0.28486  0.46342  0.35776  1.0000
  C   C94       1.0  0.28704  0.45266  0.27513  1.0000
  C   C95       1.0  0.29187  0.43190  0.27372  1.0000
  H   H41       1.0  0.28379  0.45966  0.21451  1.0000
  N   N21       1.0  0.29284  0.42132  0.18975  1.0000
  O   O41       1.0  0.27639  0.42175  0.14797  1.0000
  O   O42       1.0  0.30618  0.42836  0.13831  1.0000
  C   C96       1.0  0.27496  0.48185  0.35874  1.0000
  H   H42       1.0  0.26007  0.48121  0.36105  1.0000
  C   C97       1.0  0.74132  0.56272  0.35685  1.0000
  C   C98       1.0  0.73899  0.57347  0.27432  1.0000
  C   C99       1.0  0.73413  0.59422  0.27321  1.0000
  H   H43       1.0  0.74211  0.56647  0.21357  1.0000
  N   N22       1.0  0.73301  0.60484  0.18937  1.0000
  O   O43       1.0  0.74938  0.60443  0.14698  1.0000
  O   O44       1.0  0.71958  0.59781  0.13840  1.0000
  C   C100      1.0  0.75120  0.54426  0.35757  1.0000
  H   H44       1.0  0.76608  0.54489  0.35963  1.0000
  C   C101      1.0  0.46336  0.74131  0.35815  1.0000
  C   C102      1.0  0.45268  0.73898  0.27542  1.0000
  C   C103      1.0  0.43193  0.73413  0.27385  1.0000
  H   H45       1.0  0.45976  0.74207  0.21480  1.0000
  N   N23       1.0  0.42141  0.73299  0.18976  1.0000
  O   O45       1.0  0.42187  0.74936  0.14730  1.0000
  O   O46       1.0  0.42849  0.71955  0.13900  1.0000
  C   C104      1.0  0.48181  0.75119  0.35940  1.0000
  H   H46       1.0  0.48119  0.76606  0.36284  1.0000
  C   C105      1.0  0.56278  0.28475  0.35643  1.0000
  C   C106      1.0  0.57355  0.28701  0.27391  1.0000
  C   C107      1.0  0.59431  0.29186  0.27284  1.0000
  H   H47       1.0  0.56658  0.28381  0.21317  1.0000
  N   N24       1.0  0.60494  0.29290  0.18902  1.0000
  O   O47       1.0  0.60454  0.27648  0.14698  1.0000
  O   O48       1.0  0.59792  0.30627  0.13770  1.0000
  C   C108      1.0  0.54432  0.27487  0.35702  1.0000
  H   H48       1.0  0.54495  0.25998  0.35824  1.0000
  C   C109      1.0  0.23137  0.26415  0.35383  1.0000
  C   C110      1.0  0.24006  0.27199  0.27333  1.0000
  C   C111      1.0  0.25519  0.28694  0.27595  1.0000
  H   H49       1.0  0.23624  0.26589  0.21134  1.0000
  N   N25       1.0  0.26440  0.29368  0.19412  1.0000
  O   O49       1.0  0.27293  0.27962  0.15231  1.0000
  O   O50       1.0  0.25186  0.30165  0.14132  1.0000
  C   C112      1.0  0.22063  0.24626  0.35028  1.0000
  H   H50       1.0  0.22852  0.23396  0.33652  1.0000
  C   C113      1.0  0.79467  0.76201  0.35216  1.0000
  C   C114      1.0  0.78558  0.75443  0.27209  1.0000
  C   C115      1.0  0.77049  0.73945  0.27532  1.0000
  H   H51       1.0  0.78909  0.76071  0.21011  1.0000
  N   N26       1.0  0.76085  0.73297  0.19408  1.0000
  O   O51       1.0  0.77312  0.72520  0.13933  1.0000
  O   O52       1.0  0.75209  0.74716  0.15425  1.0000
  C   C116      1.0  0.80550  0.77986  0.34851  1.0000
  H   H52       1.0  0.79773  0.79212  0.33288  1.0000
  C   C117      1.0  0.76211  0.23137  0.35276  1.0000
  C   C118      1.0  0.75471  0.24032  0.27201  1.0000
  C   C119      1.0  0.73982  0.25542  0.27391  1.0000
  H   H53       1.0  0.76114  0.23664  0.21048  1.0000
  N   N27       1.0  0.73476  0.26367  0.18768  1.0000
  O   O53       1.0  0.71642  0.26176  0.17068  1.0000
  O   O54       1.0  0.73955  0.28181  0.18123  1.0000
  C   C120      1.0  0.78001  0.22062  0.35055  1.0000
  H   H54       1.0  0.79237  0.22855  0.33875  1.0000
  C   C121      1.0  0.26400  0.79475  0.35247  1.0000
  C   C122      1.0  0.27137  0.78571  0.27186  1.0000
  C   C123      1.0  0.28624  0.77060  0.27405  1.0000
  H   H55       1.0  0.26488  0.78927  0.21031  1.0000
  N   N28       1.0  0.29125  0.76222  0.18802  1.0000
  O   O55       1.0  0.30958  0.76410  0.17072  1.0000
  O   O56       1.0  0.28645  0.74407  0.18217  1.0000
  C   C124      1.0  0.24611  0.80553  0.34986  1.0000
  H   H56       1.0  0.23378  0.79766  0.33668  1.0000
  C   C125      1.0  0.50084  0.03075  0.34552  1.0000
  C   C126      1.0  0.51275  0.02441  0.27118  1.0000
  C   C127      1.0  0.52472  0.00690  0.27606  1.0000
  H   H57       1.0  0.51261  0.03249  0.21151  1.0000
  N   N29       1.0  0.53601  0.00049  0.19932  1.0000
  O   O57       1.0  0.54856  0.01350  0.17525  1.0000
  O   O58       1.0  0.52490  0.99650  0.13240  1.0000
  C   C128      1.0  0.49000  0.04847  0.33974  1.0000
  H   H58       1.0  0.49699  0.06060  0.31617  1.0000
  C   C129      1.0  0.99531  0.50086  0.34543  1.0000
  C   C130      1.0  0.00165  0.51279  0.27114  1.0000
  C   C131      1.0  0.01916  0.52476  0.27605  1.0000
  H   H59       1.0  0.99356  0.51267  0.21151  1.0000
  N   N30       1.0  0.02556  0.53608  0.19937  1.0000
  O   O59       1.0  0.01254  0.54863  0.17543  1.0000
  O   O60       1.0  0.02953  0.52498  0.13236  1.0000
  C   C132      1.0  0.97761  0.49001  0.33961  1.0000
  H   H60       1.0  0.96547  0.49699  0.31598  1.0000
  N   N31       1.0  0.23915  0.03450  0.36539  1.0000
  C   C133      1.0  0.24691  0.05347  0.36473  1.0000
  N   N32       1.0  0.26723  0.05532  0.36246  1.0000
  C   C134      1.0  0.27968  0.03920  0.36020  1.0000
  N   N33       1.0  0.27128  0.02064  0.35984  1.0000
  N   N34       1.0  0.24271  0.99940  0.36306  1.0000
  N   N35       1.0  0.29958  0.04097  0.35736  1.0000
  N   N36       1.0  0.23492  0.06966  0.36746  1.0000
  N   N37       1.0  0.78700  0.99162  0.36474  1.0000
  C   C135      1.0  0.77924  0.97265  0.36379  1.0000
  N   N38       1.0  0.75893  0.97080  0.36105  1.0000
  C   C136      1.0  0.74648  0.98693  0.35858  1.0000
  N   N39       1.0  0.75488  0.00549  0.35849  1.0000
  N   N40       1.0  0.78345  0.02672  0.36248  1.0000
  N   N41       1.0  0.72658  0.98515  0.35530  1.0000
  N   N42       1.0  0.79122  0.95645  0.36670  1.0000
  N   N43       1.0  0.99166  0.23916  0.36593  1.0000
  C   C137      1.0  0.97269  0.24692  0.36510  1.0000
  N   N44       1.0  0.97083  0.26724  0.36267  1.0000
  C   C138      1.0  0.98696  0.27969  0.36039  1.0000
  N   N45       1.0  0.00552  0.27130  0.36017  1.0000
  N   N46       1.0  0.02676  0.24273  0.36378  1.0000
  N   N47       1.0  0.98518  0.29959  0.35749  1.0000
  N   N48       1.0  0.95650  0.23493  0.36783  1.0000
  N   N49       1.0  0.03444  0.78700  0.36499  1.0000
  C   C139      1.0  0.05341  0.77925  0.36402  1.0000
  N   N50       1.0  0.05527  0.75894  0.36122  1.0000
  C   C140      1.0  0.03915  0.74648  0.35874  1.0000
  N   N51       1.0  0.02059  0.75487  0.35869  1.0000
  N   N52       1.0  0.99933  0.78343  0.36276  1.0000
  N   N53       1.0  0.04093  0.72658  0.35542  1.0000
  N   N54       1.0  0.06960  0.79124  0.36693  1.0000
  C   C141      1.0  0.27525  0.51761  0.35786  1.0000
  N   N55       1.0  0.28712  0.53431  0.35475  1.0000
  C   C142      1.0  0.27937  0.55328  0.35595  1.0000
  N   N56       1.0  0.25906  0.55511  0.35923  1.0000
  C   C143      1.0  0.24660  0.53898  0.36192  1.0000
  N   N57       1.0  0.25500  0.52043  0.36178  1.0000
  N   N58       1.0  0.28356  0.49921  0.35701  1.0000
  N   N59       1.0  0.22670  0.54081  0.36579  1.0000
  N   N60       1.0  0.29133  0.56950  0.35289  1.0000
  C   C144      1.0  0.75087  0.50850  0.35658  1.0000
  N   N61       1.0  0.73899  0.49181  0.35346  1.0000
  C   C145      1.0  0.74674  0.47284  0.35447  1.0000
  N   N62       1.0  0.76705  0.47100  0.35756  1.0000
  C   C146      1.0  0.77951  0.48713  0.36022  1.0000
  N   N63       1.0  0.77112  0.50568  0.36034  1.0000
  N   N64       1.0  0.74258  0.52691  0.35592  1.0000
  N   N65       1.0  0.79941  0.48526  0.36406  1.0000
  N   N66       1.0  0.73477  0.45661  0.35148  1.0000
  C   C147      1.0  0.51757  0.75087  0.35771  1.0000
  N   N67       1.0  0.53427  0.73898  0.35461  1.0000
  C   C148      1.0  0.55324  0.74672  0.35594  1.0000
  N   N68       1.0  0.55508  0.76703  0.35931  1.0000
  C   C149      1.0  0.53896  0.77950  0.36197  1.0000
  N   N69       1.0  0.52041  0.77112  0.36172  1.0000
  N   N70       1.0  0.49916  0.74258  0.35670  1.0000
  N   N71       1.0  0.54081  0.79940  0.36587  1.0000
  N   N72       1.0  0.56945  0.73475  0.35292  1.0000
  C   C150      1.0  0.50857  0.27521  0.35682  1.0000
  N   N73       1.0  0.49187  0.28710  0.35384  1.0000
  C   C151      1.0  0.47290  0.27936  0.35487  1.0000
  N   N74       1.0  0.47106  0.25905  0.35785  1.0000
  C   C152      1.0  0.48718  0.24658  0.36039  1.0000
  N   N75       1.0  0.50574  0.25496  0.36049  1.0000
  N   N76       1.0  0.52698  0.28350  0.35620  1.0000
  N   N77       1.0  0.48531  0.22668  0.36414  1.0000
  N   N78       1.0  0.45669  0.29133  0.35198  1.0000
  C   C153      1.0  0.15705  0.21401  0.36317  1.0000
  N   N79       1.0  0.16556  0.19538  0.36190  1.0000
  C   C154      1.0  0.18588  0.19272  0.36052  1.0000
  N   N80       1.0  0.19764  0.20935  0.36003  1.0000
  C   C155      1.0  0.18995  0.22828  0.36154  1.0000
  N   N81       1.0  0.16962  0.23020  0.36330  1.0000
  N   N82       1.0  0.13694  0.21566  0.36371  1.0000
  N   N83       1.0  0.20154  0.24473  0.36285  1.0000
  N   N84       1.0  0.19526  0.17499  0.35830  1.0000
  C   C156      1.0  0.86905  0.81209  0.36291  1.0000
  N   N85       1.0  0.86054  0.83072  0.36152  1.0000
  C   C157      1.0  0.84023  0.83339  0.36014  1.0000
  N   N86       1.0  0.82846  0.81676  0.35975  1.0000
  C   C158      1.0  0.83614  0.79783  0.36140  1.0000
  N   N87       1.0  0.85647  0.79590  0.36319  1.0000
  N   N88       1.0  0.88916  0.81044  0.36341  1.0000
  N   N89       1.0  0.82453  0.78139  0.36282  1.0000
  N   N90       1.0  0.83086  0.85112  0.35778  1.0000
  C   C159      1.0  0.81219  0.15698  0.36271  1.0000
  N   N91       1.0  0.83082  0.16549  0.36174  1.0000
  C   C160      1.0  0.83348  0.18580  0.36038  1.0000
  N   N92       1.0  0.81685  0.19756  0.35960  1.0000
  C   C161      1.0  0.79792  0.18988  0.36086  1.0000
  N   N93       1.0  0.79600  0.16956  0.36253  1.0000
  N   N94       1.0  0.81053  0.13687  0.36325  1.0000
  N   N95       1.0  0.78147  0.20148  0.36156  1.0000
  N   N96       1.0  0.85121  0.19518  0.35823  1.0000
  C   C162      1.0  0.21394  0.86914  0.36294  1.0000
  N   N97       1.0  0.19531  0.86064  0.36176  1.0000
  C   C163      1.0  0.19264  0.84033  0.36032  1.0000
  N   N98       1.0  0.20926  0.82856  0.35968  1.0000
  C   C164      1.0  0.22819  0.83624  0.36115  1.0000
  N   N99       1.0  0.23012  0.85656  0.36293  1.0000
  N   N100      1.0  0.21561  0.88926  0.36358  1.0000
  N   N101      1.0  0.24464  0.82463  0.36207  1.0000
  N   N102      1.0  0.17490  0.83096  0.35802  1.0000
  N   N103      1.0  0.36036  0.69544  0.35839  1.0000
  C   C165      1.0  0.34005  0.69275  0.35947  1.0000
  N   N104      1.0  0.32828  0.70938  0.35971  1.0000
  C   C166      1.0  0.33595  0.72832  0.35835  1.0000
  N   N105      1.0  0.35628  0.73025  0.35688  1.0000
  N   N106      1.0  0.38898  0.71572  0.35694  1.0000
  N   N107      1.0  0.32436  0.74477  0.35644  1.0000
  N   N108      1.0  0.33071  0.67500  0.36163  1.0000
  N   N109      1.0  0.66574  0.33069  0.35738  1.0000
  C   C167      1.0  0.68605  0.33337  0.35858  1.0000
  N   N110      1.0  0.69783  0.31675  0.35905  1.0000
  C   C168      1.0  0.69016  0.29781  0.35779  1.0000
  N   N111      1.0  0.66983  0.29587  0.35622  1.0000
  N   N112      1.0  0.63713  0.31040  0.35581  1.0000
  N   N113      1.0  0.70175  0.28136  0.35609  1.0000
  N   N114      1.0  0.69538  0.35113  0.36071  1.0000
  N   N115      1.0  0.69537  0.66566  0.35832  1.0000
  C   C169      1.0  0.69269  0.68598  0.35960  1.0000
  N   N116      1.0  0.70932  0.69775  0.35990  1.0000
  C   C170      1.0  0.72825  0.69008  0.35837  1.0000
  N   N117      1.0  0.73018  0.66975  0.35667  1.0000
  N   N118      1.0  0.71566  0.63705  0.35645  1.0000
  N   N119      1.0  0.74470  0.70167  0.35639  1.0000
  N   N120      1.0  0.67493  0.69531  0.36188  1.0000
  N   N121      1.0  0.33078  0.36043  0.35839  1.0000
  C   C171      1.0  0.33347  0.34012  0.35949  1.0000
  N   N122      1.0  0.31684  0.32834  0.35995  1.0000
  C   C172      1.0  0.29790  0.33602  0.35870  1.0000
  N   N123      1.0  0.29597  0.35635  0.35722  1.0000
  N   N124      1.0  0.31050  0.38904  0.35704  1.0000
  N   N125      1.0  0.28145  0.32443  0.35722  1.0000
  N   N126      1.0  0.35122  0.33078  0.36158  1.0000
  N   N127      1.0  0.43881  0.06145  0.36243  1.0000
  C   C173      1.0  0.42525  0.07672  0.36236  1.0000
  N   N128      1.0  0.43224  0.09582  0.35996  1.0000
  C   C174      1.0  0.45222  0.09997  0.35686  1.0000
  N   N129      1.0  0.46530  0.08437  0.35586  1.0000
  N   N130      1.0  0.47129  0.04942  0.36067  1.0000
  N   N131      1.0  0.45944  0.11856  0.35304  1.0000
  N   N132      1.0  0.40552  0.07401  0.36518  1.0000
  N   N133      1.0  0.58734  0.96470  0.35692  1.0000
  C   C175      1.0  0.60087  0.94941  0.35924  1.0000
  N   N134      1.0  0.59385  0.93032  0.36011  1.0000
  C   C176      1.0  0.57385  0.92618  0.35832  1.0000
  N   N135      1.0  0.56080  0.94179  0.35544  1.0000
  N   N136      1.0  0.55496  0.97684  0.35290  1.0000
  N   N137      1.0  0.56663  0.90758  0.35591  1.0000
  N   N138      1.0  0.62062  0.95210  0.36174  1.0000
  N   N139      1.0  0.96465  0.43882  0.36239  1.0000
  C   C177      1.0  0.94938  0.42525  0.36235  1.0000
  N   N140      1.0  0.93028  0.43223  0.35990  1.0000
  C   C178      1.0  0.92612  0.45221  0.35673  1.0000
  N   N141      1.0  0.94171  0.46530  0.35570  1.0000
  N   N142      1.0  0.97666  0.47130  0.36057  1.0000
  N   N143      1.0  0.90752  0.45942  0.35289  1.0000
  N   N144      1.0  0.95209  0.40552  0.36527  1.0000
  N   N145      1.0  0.06139  0.58734  0.35694  1.0000
  C   C179      1.0  0.07667  0.60088  0.35926  1.0000
  N   N146      1.0  0.09577  0.59385  0.36012  1.0000
  C   C180      1.0  0.09990  0.57386  0.35830  1.0000
  N   N147      1.0  0.08429  0.56080  0.35546  1.0000
  N   N148      1.0  0.04925  0.55496  0.35289  1.0000
  N   N149      1.0  0.11851  0.56663  0.35595  1.0000
  N   N150      1.0  0.07398  0.62062  0.36176  1.0000
  C   C181      1.0  0.33138  0.05587  0.37222  1.0000
  C   C182      1.0  0.34305  0.06249  0.44687  1.0000
  C   C183      1.0  0.36424  0.06351  0.44205  1.0000
  H   H61       1.0  0.33610  0.06654  0.50665  1.0000
  N   N151      1.0  0.37563  0.06964  0.51899  1.0000
  O   O61       1.0  0.37117  0.08712  0.54363  1.0000
  O   O62       1.0  0.37320  0.05798  0.58554  1.0000
  C   C184      1.0  0.31059  0.05620  0.37778  1.0000
  H   H62       1.0  0.30418  0.06865  0.40135  1.0000
  C   C185      1.0  0.69477  0.97023  0.36940  1.0000
  C   C186      1.0  0.68304  0.96356  0.44375  1.0000
  C   C187      1.0  0.66185  0.96253  0.43853  1.0000
  H   H63       1.0  0.68994  0.95949  0.50363  1.0000
  N   N152      1.0  0.65041  0.95636  0.51522  1.0000
  O   O63       1.0  0.65486  0.93887  0.53979  1.0000
  O   O64       1.0  0.65277  0.96798  0.58194  1.0000
  C   C188      1.0  0.71556  0.96991  0.37535  1.0000
  H   H64       1.0  0.72196  0.95746  0.39894  1.0000
  C   C189      1.0  0.97027  0.33139  0.37230  1.0000
  C   C190      1.0  0.96368  0.34306  0.44699  1.0000
  C   C191      1.0  0.96265  0.36425  0.44215  1.0000
  H   H65       1.0  0.95965  0.33611  0.50681  1.0000
  N   N153      1.0  0.95654  0.37564  0.51913  1.0000
  O   O65       1.0  0.93908  0.37117  0.54394  1.0000
  O   O66       1.0  0.96823  0.37322  0.58559  1.0000
  C   C192      1.0  0.96994  0.31060  0.37785  1.0000
  H   H66       1.0  0.95750  0.30418  0.40140  1.0000
  C   C193      1.0  0.05586  0.69478  0.36948  1.0000
  C   C194      1.0  0.06253  0.68304  0.44383  1.0000
  C   C195      1.0  0.06356  0.66185  0.43860  1.0000
  H   H67       1.0  0.06659  0.68994  0.50372  1.0000
  N   N154      1.0  0.06972  0.65041  0.51530  1.0000
  O   O67       1.0  0.08720  0.65486  0.53990  1.0000
  O   O68       1.0  0.05809  0.65277  0.58199  1.0000
  C   C196      1.0  0.05618  0.71556  0.37545  1.0000
  H   H68       1.0  0.06863  0.72196  0.39907  1.0000
  C   C197      1.0  0.15371  0.56664  0.36549  1.0000
  C   C198      1.0  0.16525  0.56269  0.44525  1.0000
  C   C199      1.0  0.18579  0.55753  0.43669  1.0000
  H   H69       1.0  0.19421  0.55581  0.49481  1.0000
  N   N155      1.0  0.15622  0.56475  0.53259  1.0000
  O   O69       1.0  0.15676  0.54860  0.57664  1.0000
  O   O70       1.0  0.16455  0.57818  0.57930  1.0000
  C   C200      1.0  0.13506  0.57574  0.37360  1.0000
  H   H70       1.0  0.13489  0.59005  0.39268  1.0000
  C   C201      1.0  0.87233  0.45949  0.36287  1.0000
  C   C202      1.0  0.86074  0.46367  0.44224  1.0000
  C   C203      1.0  0.84022  0.46883  0.43304  1.0000
  H   H71       1.0  0.83176  0.47074  0.49091  1.0000
  N   N156      1.0  0.86970  0.46187  0.52986  1.0000
  O   O71       1.0  0.86916  0.47815  0.57289  1.0000
  O   O72       1.0  0.86134  0.44858  0.57728  1.0000
  C   C204      1.0  0.89098  0.45044  0.37199  1.0000
  H   H72       1.0  0.89117  0.43630  0.39369  1.0000
  C   C205      1.0  0.56663  0.87237  0.36564  1.0000
  C   C206      1.0  0.56271  0.86080  0.44535  1.0000
  C   C207      1.0  0.55754  0.84027  0.43669  1.0000
  H   H73       1.0  0.55587  0.83183  0.49478  1.0000
  N   N157      1.0  0.56479  0.86980  0.53275  1.0000
  O   O73       1.0  0.54865  0.86925  0.57689  1.0000
  O   O74       1.0  0.57824  0.86146  0.57933  1.0000
  C   C208      1.0  0.57571  0.89103  0.37393  1.0000
  H   H74       1.0  0.59000  0.89121  0.39337  1.0000
  C   C209      1.0  0.45952  0.15375  0.36285  1.0000
  C   C210      1.0  0.46374  0.16532  0.44226  1.0000
  C   C211      1.0  0.46892  0.18585  0.43319  1.0000
  H   H75       1.0  0.47081  0.19429  0.49112  1.0000
  N   N158      1.0  0.46194  0.15634  0.52981  1.0000
  O   O75       1.0  0.47823  0.15686  0.57281  1.0000
  O   O76       1.0  0.44866  0.16469  0.57733  1.0000
  C   C212      1.0  0.45045  0.13511  0.37187  1.0000
  H   H76       1.0  0.43629  0.13494  0.39331  1.0000
  C   C213      1.0  0.20195  0.14016  0.36620  1.0000
  C   C214      1.0  0.20389  0.12692  0.44217  1.0000
  C   C215      1.0  0.21568  0.10924  0.43485  1.0000
  H   H77       1.0  0.21729  0.10023  0.49112  1.0000
  N   N159      1.0  0.19445  0.13193  0.52599  1.0000
  O   O77       1.0  0.20705  0.13434  0.58895  1.0000
  O   O78       1.0  0.18215  0.11871  0.55012  1.0000
  C   C216      1.0  0.18918  0.15687  0.37129  1.0000
  H   H78       1.0  0.17492  0.15452  0.38788  1.0000
  C   C217      1.0  0.82417  0.88595  0.36553  1.0000
  C   C218      1.0  0.82230  0.89926  0.44129  1.0000
  C   C219      1.0  0.81051  0.91695  0.43381  1.0000
  H   H79       1.0  0.80895  0.92602  0.48991  1.0000
  N   N160      1.0  0.83181  0.89435  0.52504  1.0000
  O   O79       1.0  0.81927  0.89200  0.58828  1.0000
  O   O80       1.0  0.84414  0.90759  0.54867  1.0000
  C   C220      1.0  0.83694  0.86924  0.37076  1.0000
  H   H80       1.0  0.85119  0.87158  0.38757  1.0000
  C   C221      1.0  0.88603  0.20191  0.36627  1.0000
  C   C222      1.0  0.89929  0.20383  0.44218  1.0000
  C   C223      1.0  0.91697  0.21563  0.43485  1.0000
  H   H81       1.0  0.92599  0.21722  0.49108  1.0000
  N   N161      1.0  0.89432  0.19434  0.52592  1.0000
  O   O81       1.0  0.89193  0.20690  0.58905  1.0000
  O   O82       1.0  0.90756  0.18203  0.54982  1.0000
  C   C224      1.0  0.86933  0.18912  0.37132  1.0000
  H   H82       1.0  0.87169  0.17487  0.38805  1.0000
  C   C225      1.0  0.14008  0.82425  0.36579  1.0000
  C   C226      1.0  0.12676  0.82237  0.44153  1.0000
  C   C227      1.0  0.10908  0.81058  0.43405  1.0000
  H   H83       1.0  0.10002  0.80902  0.49016  1.0000
  N   N162      1.0  0.13168  0.83189  0.52527  1.0000
  O   O83       1.0  0.13402  0.81935  0.58853  1.0000
  O   O84       1.0  0.11843  0.84422  0.54885  1.0000
  C   C228      1.0  0.15678  0.83703  0.37099  1.0000
  H   H84       1.0  0.15443  0.85128  0.38774  1.0000
  C   C229      1.0  0.30045  0.60401  0.36706  1.0000
  C   C230      1.0  0.30218  0.61748  0.44128  1.0000
  C   C231      1.0  0.31396  0.63517  0.43631  1.0000
  H   H85       1.0  0.29473  0.61441  0.50102  1.0000
  N   N163      1.0  0.31576  0.64796  0.51327  1.0000
  O   O85       1.0  0.29902  0.65471  0.53785  1.0000
  O   O86       1.0  0.32365  0.63905  0.57985  1.0000
  C   C232      1.0  0.28704  0.58794  0.37205  1.0000
  H   H86       1.0  0.27329  0.59114  0.39404  1.0000
  C   C233      1.0  0.72568  0.42209  0.36586  1.0000
  C   C234      1.0  0.72397  0.40863  0.44009  1.0000
  C   C235      1.0  0.71218  0.39094  0.43517  1.0000
  H   H87       1.0  0.73145  0.41169  0.49975  1.0000
  N   N164      1.0  0.71041  0.37814  0.51212  1.0000
  O   O87       1.0  0.72715  0.37138  0.53653  1.0000
  O   O88       1.0  0.70255  0.38705  0.57879  1.0000
  C   C236      1.0  0.73907  0.43818  0.37077  1.0000
  H   H88       1.0  0.75283  0.43500  0.39283  1.0000
  C   C237      1.0  0.60397  0.72562  0.36733  1.0000
  C   C238      1.0  0.61744  0.72389  0.44153  1.0000
  C   C239      1.0  0.63513  0.71210  0.43653  1.0000
  H   H89       1.0  0.61438  0.73135  0.50125  1.0000
  N   N165      1.0  0.64793  0.71030  0.51346  1.0000
  O   O89       1.0  0.65468  0.72703  0.53800  1.0000
  O   O90       1.0  0.63902  0.70242  0.58007  1.0000
  C   C240      1.0  0.58789  0.73902  0.37231  1.0000
  H   H90       1.0  0.59108  0.75277  0.39446  1.0000
  C   C241      1.0  0.42218  0.30045  0.36646  1.0000
  C   C242      1.0  0.40871  0.30213  0.44071  1.0000
  C   C243      1.0  0.39102  0.31393  0.43589  1.0000
  H   H91       1.0  0.41177  0.29463  0.50032  1.0000
  N   N166      1.0  0.37823  0.31568  0.51286  1.0000
  O   O91       1.0  0.37147  0.29893  0.53719  1.0000
  O   O92       1.0  0.38715  0.32352  0.57956  1.0000
  C   C244      1.0  0.43825  0.28704  0.37129  1.0000
  H   H92       1.0  0.43506  0.27329  0.39330  1.0000
  C   C245      1.0  0.24138  0.96358  0.36347  1.0000
  C   C246      1.0  0.23920  0.95271  0.44579  1.0000
  C   C247      1.0  0.23432  0.93196  0.44652  1.0000
  H   H93       1.0  0.24248  0.95961  0.50662  1.0000
  N   N167      1.0  0.23336  0.92124  0.53014  1.0000
  O   O93       1.0  0.24982  0.92157  0.57181  1.0000
  O   O94       1.0  0.22005  0.92822  0.58192  1.0000
  C   C248      1.0  0.25129  0.98202  0.36319  1.0000
  H   H94       1.0  0.26618  0.98137  0.36324  1.0000
  C   C249      1.0  0.78478  0.06255  0.36224  1.0000
  C   C250      1.0  0.78710  0.07333  0.44469  1.0000
  C   C251      1.0  0.79199  0.09408  0.44568  1.0000
  H   H95       1.0  0.78395  0.06636  0.50549  1.0000
  N   N168      1.0  0.79308  0.10474  0.52943  1.0000
  O   O95       1.0  0.77669  0.10436  0.57169  1.0000
  O   O96       1.0  0.80648  0.09772  0.58060  1.0000
  C   C252      1.0  0.77487  0.04410  0.36166  1.0000
  H   H96       1.0  0.75998  0.04475  0.36049  1.0000
  C   C253      1.0  0.06258  0.24139  0.36304  1.0000
  C   C254      1.0  0.07336  0.23904  0.44547  1.0000
  C   C255      1.0  0.09411  0.23415  0.44652  1.0000
  H   H97       1.0  0.06637  0.24214  0.50629  1.0000
  N   N169      1.0  0.10474  0.23300  0.53034  1.0000
  O   O97       1.0  0.10435  0.24938  0.57276  1.0000
  O   O98       1.0  0.09770  0.21958  0.58133  1.0000
  C   C256      1.0  0.04414  0.25130  0.36236  1.0000
  H   H98       1.0  0.04479  0.26619  0.36063  1.0000
  C   C257      1.0  0.96351  0.78473  0.36260  1.0000
  C   C258      1.0  0.95274  0.78696  0.44514  1.0000
  C   C259      1.0  0.93198  0.79182  0.44629  1.0000
  H   H99       1.0  0.95971  0.78372  0.50585  1.0000
  N   N170      1.0  0.92134  0.79281  0.53012  1.0000
  O   O99       1.0  0.92173  0.77637  0.57194  1.0000
  O   O100      1.0  0.92836  0.80615  0.58161  1.0000
  C   C260      1.0  0.98196  0.77484  0.36191  1.0000
  H   H100      1.0  0.98132  0.75995  0.36066  1.0000
  C   C261      1.0  0.29478  0.42128  0.35713  1.0000
  C   C262      1.0  0.29293  0.43203  0.44081  1.0000
  C   C263      1.0  0.28807  0.45278  0.44001  1.0000
  H   H101      1.0  0.28561  0.45989  0.50115  1.0000
  N   N171      1.0  0.29494  0.42157  0.52473  1.0000
  O   O101      1.0  0.30890  0.42869  0.57237  1.0000
  O   O102      1.0  0.27904  0.42209  0.57073  1.0000
  C   C264      1.0  0.29470  0.40025  0.35728  1.0000
  H   H102      1.0  0.28129  0.39374  0.35775  1.0000
  C   C265      1.0  0.73139  0.60482  0.35681  1.0000
  C   C266      1.0  0.73336  0.59405  0.44040  1.0000
  C   C267      1.0  0.73823  0.57330  0.43931  1.0000
  H   H103      1.0  0.74077  0.56617  0.50032  1.0000
  N   N172      1.0  0.73145  0.60448  0.52446  1.0000
  O   O103      1.0  0.71756  0.59733  0.57240  1.0000
  O   O104      1.0  0.74741  0.60394  0.57003  1.0000
  C   C268      1.0  0.73145  0.62585  0.35729  1.0000
  H   H104      1.0  0.74486  0.63236  0.35856  1.0000
  C   C269      1.0  0.42122  0.73141  0.35717  1.0000
  C   C270      1.0  0.43190  0.73343  0.44097  1.0000
  C   C271      1.0  0.45266  0.73826  0.44035  1.0000
  H   H105      1.0  0.45971  0.74086  0.50154  1.0000
  N   N173      1.0  0.42138  0.73158  0.52481  1.0000
  O   O105      1.0  0.42846  0.71771  0.57312  1.0000
  O   O106      1.0  0.42188  0.74757  0.57017  1.0000
  C   C272      1.0  0.40019  0.73150  0.35715  1.0000
  H   H106      1.0  0.39370  0.74492  0.35755  1.0000
  C   C273      1.0  0.60489  0.29470  0.35639  1.0000
  C   C274      1.0  0.59409  0.29279  0.43994  1.0000
  C   C275      1.0  0.57334  0.28794  0.43888  1.0000
  H   H107      1.0  0.56621  0.28541  0.49990  1.0000
  N   N174      1.0  0.60450  0.29475  0.52401  1.0000
  O   O107      1.0  0.59736  0.30868  0.57175  1.0000
  O   O108      1.0  0.60396  0.27882  0.56979  1.0000
  C   C276      1.0  0.62592  0.29461  0.35697  1.0000
  H   H108      1.0  0.63242  0.28120  0.35853  1.0000
  C   C277      1.0  0.26201  0.29448  0.36150  1.0000
  C   C278      1.0  0.25312  0.28697  0.44309  1.0000
  C   C279      1.0  0.23792  0.27208  0.43823  1.0000
  H   H109      1.0  0.23259  0.26601  0.49784  1.0000
  N   N175      1.0  0.26031  0.29380  0.52888  1.0000
  O   O109      1.0  0.24662  0.30190  0.57482  1.0000
  O   O110      1.0  0.26775  0.27979  0.57514  1.0000
  C   C280      1.0  0.27997  0.30524  0.36593  1.0000
  H   H110      1.0  0.29234  0.29719  0.37567  1.0000
  C   C281      1.0  0.76413  0.73163  0.36107  1.0000
  C   C282      1.0  0.77347  0.73884  0.44221  1.0000
  C   C283      1.0  0.78863  0.75375  0.43672  1.0000
  H   H111      1.0  0.79431  0.75961  0.49613  1.0000
  N   N176      1.0  0.76676  0.73168  0.52825  1.0000
  O   O111      1.0  0.78071  0.72340  0.57188  1.0000
  O   O112      1.0  0.75959  0.74551  0.57651  1.0000
  C   C284      1.0  0.74621  0.72083  0.36680  1.0000
  H   H112      1.0  0.73389  0.72882  0.37850  1.0000
  C   C285      1.0  0.73178  0.26201  0.35922  1.0000
  C   C286      1.0  0.73881  0.25280  0.44098  1.0000
  C   C287      1.0  0.75372  0.23760  0.43672  1.0000
  H   H113      1.0  0.75947  0.23207  0.49662  1.0000
  N   N177      1.0  0.73151  0.25966  0.52652  1.0000
  O   O113      1.0  0.72313  0.24580  0.57036  1.0000
  O   O114      1.0  0.74526  0.26691  0.57502  1.0000
  C   C288      1.0  0.72096  0.27992  0.36421  1.0000
  H   H114      1.0  0.72900  0.29230  0.37362  1.0000
  C   C289      1.0  0.29434  0.76412  0.35947  1.0000
  C   C290      1.0  0.28736  0.77346  0.44103  1.0000
  C   C291      1.0  0.27245  0.78865  0.43651  1.0000
  H   H115      1.0  0.26673  0.79427  0.49630  1.0000
  N   N178      1.0  0.29471  0.76672  0.52668  1.0000
  O   O115      1.0  0.30312  0.78063  0.57001  1.0000
  O   O116      1.0  0.28099  0.75954  0.57556  1.0000
  C   C292      1.0  0.30516  0.74622  0.36483  1.0000
  H   H116      1.0  0.29712  0.73385  0.37467  1.0000
  C   C293      1.0  0.52522  0.99556  0.35839  1.0000
  C   C294      1.0  0.51352  0.00195  0.43433  1.0000
  C   C295      1.0  0.50150  0.01940  0.42689  1.0000
  H   H117      1.0  0.49337  0.02399  0.48255  1.0000
  N   N179      1.0  0.51433  0.99103  0.51748  1.0000
  O   O117      1.0  0.52090  0.00164  0.58188  1.0000
  O   O118      1.0  0.49742  0.98433  0.53953  1.0000
  C   C296      1.0  0.53582  0.97761  0.36313  1.0000
  H   H118      1.0  0.52816  0.96516  0.37655  1.0000
  C   C297      1.0  0.03052  0.52522  0.35833  1.0000
  C   C298      1.0  0.02414  0.51349  0.43420  1.0000
  C   C299      1.0  0.00669  0.50148  0.42675  1.0000
  H   H119      1.0  0.00211  0.49333  0.48235  1.0000
  N   N180      1.0  0.03508  0.51427  0.51732  1.0000
  O   O119      1.0  0.02448  0.52081  0.58183  1.0000
  O   O120      1.0  0.04178  0.49735  0.53919  1.0000
  C   C300      1.0  0.04847  0.53582  0.36308  1.0000
  H   H120      1.0  0.06092  0.52816  0.37658  1.0000
